MODEL 1
REMARK VINA RESULT:     -12.2      0.000      0.000
REMARK  Name = 25023705
REMARK  6 active torsions:
REMARK  status: ('A' for Active; 'I' for Inactive)
REMARK    1  A    between atoms: C_1  and  C_8
REMARK    2  A    between atoms: C_1  and  C_20
REMARK    3  A    between atoms: C_20  and  N_22
REMARK    4  A    between atoms: C_23  and  C_25
REMARK    5  A    between atoms: C_30  and  O_31
REMARK    6  A    between atoms: O_31  and  C_32
REMARK                            x       y       z     vdW  Elec       q    Type
REMARK                         _______ _______ _______ _____ _____    ______ ____
ROOT
ATOM      1  C   UNL     1      31.579 -23.490 -14.853  0.00  0.00    +0.066 C 
ATOM      2  C   UNL     1      31.055 -22.056 -14.598  0.00  0.00    +0.009 C 
ATOM      3  C   UNL     1      30.571 -24.452 -14.178  0.00  0.00    +0.009 C 
ENDROOT
BRANCH   1   8
ATOM      4  N   UNL     1      34.017 -23.314 -15.162  0.00  0.00    -0.347 NA
ATOM      5  N   UNL     1      36.286 -23.111 -15.578  0.00  0.00    -0.266 NA
ATOM      6  N   UNL     1      37.922 -23.546 -13.866  0.00  0.00    -0.316 NA
ATOM      7  N   UNL     1      38.582 -22.901 -16.018  0.00  0.00    -0.283 N 
ATOM      8  C   UNL     1      33.012 -23.598 -14.298  0.00  0.00    +0.122 C 
ATOM      9  C   UNL     1      33.203 -23.970 -12.984  0.00  0.00    +0.026 C 
ATOM     10  C   UNL     1      34.509 -24.052 -12.535  0.00  0.00    +0.001 C 
ATOM     11  C   UNL     1      35.284 -23.390 -14.734  0.00  0.00    +0.137 C 
ATOM     12  C   UNL     1      35.562 -23.761 -13.414  0.00  0.00    +0.199 C 
ATOM     13  C   UNL     1      36.902 -23.822 -13.036  0.00  0.00    +0.187 C 
ATOM     14  C   UNL     1      37.547 -23.202 -15.106  0.00  0.00    +0.207 C 
ATOM     15  H   UNL     1      38.363 -22.643 -16.942  0.00  0.00    +0.156 HD
ATOM     16  H   UNL     1      39.522 -22.951 -15.729  0.00  0.00    +0.156 HD
ATOM     17  N   UNL     1      37.235 -24.192 -11.710  0.00  0.00    -0.334 N 
ATOM     18  H   UNL     1      38.180 -24.238 -11.435  0.00  0.00    +0.144 HD
ATOM     19  H   UNL     1      36.523 -24.404 -11.064  0.00  0.00    +0.144 HD
ENDBRANCH   1   8
BRANCH   1  20
ATOM     20  C   UNL     1      31.558 -23.749 -16.386  0.00  0.00    +0.096 C 
BRANCH  20  22
ATOM     21  O   UNL     1      33.493 -24.281 -18.438  0.00  0.00    -0.270 OA
ATOM     22  N   UNL     1      32.289 -22.772 -17.152  0.00  0.00    -0.300 N 
ATOM     23  C   UNL     1      33.210 -23.126 -18.129  0.00  0.00    +0.246 C 
ATOM     24  H   UNL     1      32.130 -21.817 -16.975  0.00  0.00    +0.150 HD
BRANCH  23  25
ATOM     25  C   UNL     1      33.902 -22.001 -18.811  0.00  0.00    +0.054 C 
ATOM     26  C   UNL     1      33.160 -21.037 -19.491  0.00  0.00    +0.008 C 
ATOM     27  C   UNL     1      35.294 -21.912 -18.769  0.00  0.00    +0.008 C 
ATOM     28  C   UNL     1      33.809 -19.982 -20.132  0.00  0.00    +0.038 C 
ATOM     29  C   UNL     1      35.943 -20.856 -19.410  0.00  0.00    +0.038 C 
ATOM     30  C   UNL     1      35.201 -19.892 -20.091  0.00  0.00    +0.145 C 
BRANCH  30  31
ATOM     31  O   UNL     1      35.835 -18.863 -20.718  0.00  0.00    -0.453 OA
BRANCH  31  32
ATOM     32  C   UNL     1      35.311 -18.421 -21.921  0.00  0.00    +0.145 C 
ATOM     33  C   UNL     1      34.789 -19.339 -22.833  0.00  0.00    +0.037 C 
ATOM     34  C   UNL     1      35.306 -17.059 -22.222  0.00  0.00    +0.037 C 
ATOM     35  C   UNL     1      34.262 -18.895 -24.046  0.00  0.00    +0.003 C 
ATOM     36  C   UNL     1      34.779 -16.615 -23.435  0.00  0.00    +0.003 C 
ATOM     37  C   UNL     1      34.258 -17.533 -24.347  0.00  0.00    +0.000 C 
ENDBRANCH  31  32
ENDBRANCH  30  31
ENDBRANCH  23  25
ENDBRANCH  20  22
ENDBRANCH   1  20
TORSDOF 6
ENDMDL
MODEL 2
REMARK VINA RESULT:     -12.1      2.286      2.833
REMARK  Name = 25023705
REMARK  6 active torsions:
REMARK  status: ('A' for Active; 'I' for Inactive)
REMARK    1  A    between atoms: C_1  and  C_8
REMARK    2  A    between atoms: C_1  and  C_20
REMARK    3  A    between atoms: C_20  and  N_22
REMARK    4  A    between atoms: C_23  and  C_25
REMARK    5  A    between atoms: C_30  and  O_31
REMARK    6  A    between atoms: O_31  and  C_32
REMARK                            x       y       z     vdW  Elec       q    Type
REMARK                         _______ _______ _______ _____ _____    ______ ____
ROOT
ATOM      1  C   UNL     1      33.715 -24.015 -14.359  0.00  0.00    +0.066 C 
ATOM      2  C   UNL     1      33.824 -22.519 -13.978  0.00  0.00    +0.009 C 
ATOM      3  C   UNL     1      32.711 -24.649 -13.365  0.00  0.00    +0.009 C 
ENDROOT
BRANCH   1   8
ATOM      4  N   UNL     1      35.316 -25.752 -15.060  0.00  0.00    -0.347 NA
ATOM      5  N   UNL     1      36.724 -27.437 -15.794  0.00  0.00    -0.266 NA
ATOM      6  N   UNL     1      39.012 -27.574 -15.058  0.00  0.00    -0.316 NA
ATOM      7  N   UNL     1      38.136 -29.153 -16.550  0.00  0.00    -0.283 N 
ATOM      8  C   UNL     1      35.123 -24.641 -14.308  0.00  0.00    +0.122 C 
ATOM      9  C   UNL     1      36.094 -24.059 -13.522  0.00  0.00    +0.026 C 
ATOM     10  C   UNL     1      37.340 -24.661 -13.511  0.00  0.00    +0.001 C 
ATOM     11  C   UNL     1      36.520 -26.339 -15.056  0.00  0.00    +0.137 C 
ATOM     12  C   UNL     1      37.560 -25.811 -14.283  0.00  0.00    +0.199 C 
ATOM     13  C   UNL     1      38.785 -26.472 -14.324  0.00  0.00    +0.187 C 
ATOM     14  C   UNL     1      37.951 -27.997 -15.760  0.00  0.00    +0.207 C 
ATOM     15  H   UNL     1      37.390 -29.507 -17.085  0.00  0.00    +0.156 HD
ATOM     16  H   UNL     1      39.012 -29.604 -16.563  0.00  0.00    +0.156 HD
ATOM     17  N   UNL     1      39.870 -25.976 -13.560  0.00  0.00    -0.334 N 
ATOM     18  H   UNL     1      40.740 -26.437 -13.583  0.00  0.00    +0.144 HD
ATOM     19  H   UNL     1      39.755 -25.171 -13.006  0.00  0.00    +0.144 HD
ENDBRANCH   1   8
BRANCH   1  20
ATOM     20  C   UNL     1      33.118 -24.109 -15.791  0.00  0.00    +0.096 C 
BRANCH  20  22
ATOM     21  O   UNL     1      31.835 -22.398 -17.706  0.00  0.00    -0.270 OA
ATOM     22  N   UNL     1      33.768 -23.254 -16.750  0.00  0.00    -0.300 N 
ATOM     23  C   UNL     1      33.060 -22.458 -17.642  0.00  0.00    +0.246 C 
ATOM     24  H   UNL     1      34.752 -23.233 -16.776  0.00  0.00    +0.150 HD
BRANCH  23  25
ATOM     25  C   UNL     1      33.878 -21.653 -18.587  0.00  0.00    +0.054 C 
ATOM     26  C   UNL     1      35.268 -21.748 -18.560  0.00  0.00    +0.008 C 
ATOM     27  C   UNL     1      33.252 -20.802 -19.499  0.00  0.00    +0.008 C 
ATOM     28  C   UNL     1      36.035 -20.991 -19.447  0.00  0.00    +0.038 C 
ATOM     29  C   UNL     1      34.019 -20.046 -20.385  0.00  0.00    +0.038 C 
ATOM     30  C   UNL     1      35.411 -20.141 -20.359  0.00  0.00    +0.145 C 
BRANCH  30  31
ATOM     31  O   UNL     1      36.159 -19.401 -21.222  0.00  0.00    -0.453 OA
BRANCH  31  32
ATOM     32  C   UNL     1      35.493 -18.697 -22.211  0.00  0.00    +0.145 C 
ATOM     33  C   UNL     1      35.489 -17.302 -22.191  0.00  0.00    +0.037 C 
ATOM     34  C   UNL     1      34.824 -19.382 -23.226  0.00  0.00    +0.037 C 
ATOM     35  C   UNL     1      34.817 -16.592 -23.186  0.00  0.00    +0.003 C 
ATOM     36  C   UNL     1      34.152 -18.672 -24.221  0.00  0.00    +0.003 C 
ATOM     37  C   UNL     1      34.148 -17.277 -24.201  0.00  0.00    +0.000 C 
ENDBRANCH  31  32
ENDBRANCH  30  31
ENDBRANCH  23  25
ENDBRANCH  20  22
ENDBRANCH   1  20
TORSDOF 6
ENDMDL
MODEL 3
REMARK VINA RESULT:     -12.0      4.976      8.224
REMARK  Name = 25023705
REMARK  6 active torsions:
REMARK  status: ('A' for Active; 'I' for Inactive)
REMARK    1  A    between atoms: C_1  and  C_8
REMARK    2  A    between atoms: C_1  and  C_20
REMARK    3  A    between atoms: C_20  and  N_22
REMARK    4  A    between atoms: C_23  and  C_25
REMARK    5  A    between atoms: C_30  and  O_31
REMARK    6  A    between atoms: O_31  and  C_32
REMARK                            x       y       z     vdW  Elec       q    Type
REMARK                         _______ _______ _______ _____ _____    ______ ____
ROOT
ATOM      1  C   UNL     1      35.367 -18.810 -21.885  0.00  0.00    +0.066 C 
ATOM      2  C   UNL     1      34.150 -18.424 -22.760  0.00  0.00    +0.009 C 
ATOM      3  C   UNL     1      36.417 -19.426 -22.842  0.00  0.00    +0.009 C 
ENDROOT
BRANCH   1   8
ATOM      4  N   UNL     1      35.836 -20.183 -19.894  0.00  0.00    -0.347 NA
ATOM      5  N   UNL     1      36.402 -21.433 -18.028  0.00  0.00    -0.266 NA
ATOM      6  N   UNL     1      34.767 -22.756 -16.856  0.00  0.00    -0.316 NA
ATOM      7  N   UNL     1      36.996 -22.693 -16.140  0.00  0.00    -0.283 N 
ATOM      8  C   UNL     1      34.894 -19.771 -20.777  0.00  0.00    +0.122 C 
ATOM      9  C   UNL     1      33.572 -20.157 -20.736  0.00  0.00    +0.026 C 
ATOM     10  C   UNL     1      33.198 -21.021 -19.721  0.00  0.00    +0.001 C 
ATOM     11  C   UNL     1      35.482 -21.019 -18.908  0.00  0.00    +0.137 C 
ATOM     12  C   UNL     1      34.158 -21.459 -18.797  0.00  0.00    +0.199 C 
ATOM     13  C   UNL     1      33.860 -22.327 -17.750  0.00  0.00    +0.187 C 
ATOM     14  C   UNL     1      36.003 -22.274 -17.052  0.00  0.00    +0.207 C 
ATOM     15  H   UNL     1      37.921 -22.372 -16.237  0.00  0.00    +0.156 HD
ATOM     16  H   UNL     1      36.762 -23.308 -15.406  0.00  0.00    +0.156 HD
ATOM     17  N   UNL     1      32.534 -22.801 -17.594  0.00  0.00    -0.334 N 
ATOM     18  H   UNL     1      32.314 -23.415 -16.856  0.00  0.00    +0.144 HD
ATOM     19  H   UNL     1      31.832 -22.516 -18.223  0.00  0.00    +0.144 HD
ENDBRANCH   1   8
BRANCH   1  20
ATOM     20  C   UNL     1      35.959 -17.508 -21.275  0.00  0.00    +0.096 C 
BRANCH  20  22
ATOM     21  O   UNL     1      35.618 -15.413 -23.208  0.00  0.00    -0.270 OA
ATOM     22  N   UNL     1      35.019 -16.419 -21.205  0.00  0.00    -0.300 N 
ATOM     23  C   UNL     1      34.926 -15.447 -22.194  0.00  0.00    +0.246 C 
ATOM     24  H   UNL     1      34.419 -16.361 -20.427  0.00  0.00    +0.150 HD
BRANCH  23  25
ATOM     25  C   UNL     1      33.925 -14.374 -21.960  0.00  0.00    +0.054 C 
ATOM     26  C   UNL     1      33.479 -14.106 -20.667  0.00  0.00    +0.008 C 
ATOM     27  C   UNL     1      33.431 -13.637 -23.037  0.00  0.00    +0.008 C 
ATOM     28  C   UNL     1      32.538 -13.100 -20.449  0.00  0.00    +0.038 C 
ATOM     29  C   UNL     1      32.490 -12.630 -22.818  0.00  0.00    +0.038 C 
ATOM     30  C   UNL     1      32.043 -12.362 -21.524  0.00  0.00    +0.145 C 
BRANCH  30  31
ATOM     31  O   UNL     1      31.124 -11.382 -21.312  0.00  0.00    -0.453 OA
BRANCH  31  32
ATOM     32  C   UNL     1      31.589 -10.135 -20.930  0.00  0.00    +0.145 C 
ATOM     33  C   UNL     1      31.643  -9.795 -19.578  0.00  0.00    +0.037 C 
ATOM     34  C   UNL     1      32.001  -9.217 -21.897  0.00  0.00    +0.037 C 
ATOM     35  C   UNL     1      32.110  -8.539 -19.193  0.00  0.00    +0.003 C 
ATOM     36  C   UNL     1      32.468  -7.961 -21.511  0.00  0.00    +0.003 C 
ATOM     37  C   UNL     1      32.522  -7.621 -20.160  0.00  0.00    +0.000 C 
ENDBRANCH  31  32
ENDBRANCH  30  31
ENDBRANCH  23  25
ENDBRANCH  20  22
ENDBRANCH   1  20
TORSDOF 6
ENDMDL
MODEL 4
REMARK VINA RESULT:     -11.7      1.065      2.056
REMARK  Name = 25023705
REMARK  6 active torsions:
REMARK  status: ('A' for Active; 'I' for Inactive)
REMARK    1  A    between atoms: C_1  and  C_8
REMARK    2  A    between atoms: C_1  and  C_20
REMARK    3  A    between atoms: C_20  and  N_22
REMARK    4  A    between atoms: C_23  and  C_25
REMARK    5  A    between atoms: C_30  and  O_31
REMARK    6  A    between atoms: O_31  and  C_32
REMARK                            x       y       z     vdW  Elec       q    Type
REMARK                         _______ _______ _______ _____ _____    ______ ____
ROOT
ATOM      1  C   UNL     1      31.872 -23.611 -14.695  0.00  0.00    +0.066 C 
ATOM      2  C   UNL     1      31.491 -22.147 -14.366  0.00  0.00    +0.009 C 
ATOM      3  C   UNL     1      30.820 -24.505 -13.993  0.00  0.00    +0.009 C 
ENDROOT
BRANCH   1   8
ATOM      4  N   UNL     1      33.522 -23.883 -12.887  0.00  0.00    -0.347 NA
ATOM      5  N   UNL     1      34.976 -24.121 -11.100  0.00  0.00    -0.266 NA
ATOM      6  N   UNL     1      37.323 -24.541 -11.434  0.00  0.00    -0.316 NA
ATOM      7  N   UNL     1      36.434 -24.359  -9.276  0.00  0.00    -0.283 N 
ATOM      8  C   UNL     1      33.318 -23.863 -14.226  0.00  0.00    +0.122 C 
ATOM      9  C   UNL     1      34.310 -24.051 -15.164  0.00  0.00    +0.026 C 
ATOM     10  C   UNL     1      35.591 -24.273 -14.691  0.00  0.00    +0.001 C 
ATOM     11  C   UNL     1      34.760 -24.098 -12.421  0.00  0.00    +0.137 C 
ATOM     12  C   UNL     1      35.823 -24.297 -13.308  0.00  0.00    +0.199 C 
ATOM     13  C   UNL     1      37.084 -24.515 -12.756  0.00  0.00    +0.187 C 
ATOM     14  C   UNL     1      36.237 -24.340 -10.674  0.00  0.00    +0.207 C 
ATOM     15  H   UNL     1      35.671 -24.216  -8.670  0.00  0.00    +0.156 HD
ATOM     16  H   UNL     1      37.334 -24.514  -8.907  0.00  0.00    +0.156 HD
ATOM     17  N   UNL     1      38.193 -24.722 -13.613  0.00  0.00    -0.334 N 
ATOM     18  H   UNL     1      39.087 -24.876 -13.231  0.00  0.00    +0.144 HD
ATOM     19  H   UNL     1      38.070 -24.711 -14.589  0.00  0.00    +0.144 HD
ENDBRANCH   1   8
BRANCH   1  20
ATOM     20  C   UNL     1      31.744 -23.812 -16.231  0.00  0.00    +0.096 C 
BRANCH  20  22
ATOM     21  O   UNL     1      33.478 -24.320 -18.462  0.00  0.00    -0.270 OA
ATOM     22  N   UNL     1      32.455 -22.830 -17.008  0.00  0.00    -0.300 N 
ATOM     23  C   UNL     1      33.275 -23.172 -18.076  0.00  0.00    +0.246 C 
ATOM     24  H   UNL     1      32.356 -21.879 -16.773  0.00  0.00    +0.150 HD
BRANCH  23  25
ATOM     25  C   UNL     1      33.960 -22.044 -18.758  0.00  0.00    +0.054 C 
ATOM     26  C   UNL     1      33.213 -21.084 -19.439  0.00  0.00    +0.008 C 
ATOM     27  C   UNL     1      35.352 -21.947 -18.717  0.00  0.00    +0.008 C 
ATOM     28  C   UNL     1      33.857 -20.026 -20.081  0.00  0.00    +0.038 C 
ATOM     29  C   UNL     1      35.995 -20.888 -19.359  0.00  0.00    +0.038 C 
ATOM     30  C   UNL     1      35.248 -19.928 -20.041  0.00  0.00    +0.145 C 
BRANCH  30  31
ATOM     31  O   UNL     1      35.876 -18.897 -20.668  0.00  0.00    -0.453 OA
BRANCH  31  32
ATOM     32  C   UNL     1      35.343 -18.452 -21.867  0.00  0.00    +0.145 C 
ATOM     33  C   UNL     1      34.812 -19.366 -22.776  0.00  0.00    +0.037 C 
ATOM     34  C   UNL     1      35.338 -17.089 -22.165  0.00  0.00    +0.037 C 
ATOM     35  C   UNL     1      34.276 -18.919 -23.983  0.00  0.00    +0.003 C 
ATOM     36  C   UNL     1      34.802 -16.641 -23.372  0.00  0.00    +0.003 C 
ATOM     37  C   UNL     1      34.271 -17.556 -24.281  0.00  0.00    +0.000 C 
ENDBRANCH  31  32
ENDBRANCH  30  31
ENDBRANCH  23  25
ENDBRANCH  20  22
ENDBRANCH   1  20
TORSDOF 6
ENDMDL
MODEL 5
REMARK VINA RESULT:     -11.7      8.287     13.083
REMARK  Name = 25023705
REMARK  6 active torsions:
REMARK  status: ('A' for Active; 'I' for Inactive)
REMARK    1  A    between atoms: C_1  and  C_8
REMARK    2  A    between atoms: C_1  and  C_20
REMARK    3  A    between atoms: C_20  and  N_22
REMARK    4  A    between atoms: C_23  and  C_25
REMARK    5  A    between atoms: C_30  and  O_31
REMARK    6  A    between atoms: O_31  and  C_32
REMARK                            x       y       z     vdW  Elec       q    Type
REMARK                         _______ _______ _______ _____ _____    ______ ____
ROOT
ATOM      1  C   UNL     1      32.745 -12.009 -22.274  0.00  0.00    +0.066 C 
ATOM      2  C   UNL     1      31.212 -12.211 -22.356  0.00  0.00    +0.009 C 
ATOM      3  C   UNL     1      33.181 -12.528 -20.882  0.00  0.00    +0.009 C 
ENDROOT
BRANCH   1   8
ATOM      4  N   UNL     1      32.363  -9.629 -21.768  0.00  0.00    -0.347 NA
ATOM      5  N   UNL     1      31.915  -7.429 -21.202  0.00  0.00    -0.266 NA
ATOM      6  N   UNL     1      33.064  -5.598 -22.262  0.00  0.00    -0.316 NA
ATOM      7  N   UNL     1      31.446  -5.205 -20.616  0.00  0.00    -0.283 N 
ATOM      8  C   UNL     1      33.061 -10.520 -22.513  0.00  0.00    +0.122 C 
ATOM      9  C   UNL     1      34.011 -10.172 -23.449  0.00  0.00    +0.026 C 
ATOM     10  C   UNL     1      34.257  -8.822 -23.626  0.00  0.00    +0.001 C 
ATOM     11  C   UNL     1      32.596  -8.320 -21.933  0.00  0.00    +0.137 C 
ATOM     12  C   UNL     1      33.546  -7.884 -22.864  0.00  0.00    +0.199 C 
ATOM     13  C   UNL     1      33.737  -6.509 -22.984  0.00  0.00    +0.187 C 
ATOM     14  C   UNL     1      32.180  -6.121 -21.401  0.00  0.00    +0.207 C 
ATOM     15  H   UNL     1      30.782  -5.534 -19.968  0.00  0.00    +0.156 HD
ATOM     16  H   UNL     1      31.598  -4.237 -20.718  0.00  0.00    +0.156 HD
ATOM     17  N   UNL     1      34.688  -6.017 -23.912  0.00  0.00    -0.334 N 
ATOM     18  H   UNL     1      34.829  -5.047 -24.004  0.00  0.00    +0.144 HD
ATOM     19  H   UNL     1      35.207  -6.645 -24.466  0.00  0.00    +0.144 HD
ENDBRANCH   1   8
BRANCH   1  20
ATOM     20  C   UNL     1      33.409 -12.899 -23.363  0.00  0.00    +0.096 C 
BRANCH  20  22
ATOM     21  O   UNL     1      34.052 -15.227 -24.914  0.00  0.00    -0.270 OA
ATOM     22  N   UNL     1      33.912 -14.153 -22.863  0.00  0.00    -0.300 N 
ATOM     23  C   UNL     1      34.195 -15.229 -23.695  0.00  0.00    +0.246 C 
ATOM     24  H   UNL     1      34.060 -14.251 -21.895  0.00  0.00    +0.150 HD
BRANCH  23  25
ATOM     25  C   UNL     1      34.681 -16.461 -23.021  0.00  0.00    +0.054 C 
ATOM     26  C   UNL     1      34.583 -17.693 -23.667  0.00  0.00    +0.008 C 
ATOM     27  C   UNL     1      35.235 -16.384 -21.743  0.00  0.00    +0.008 C 
ATOM     28  C   UNL     1      35.038 -18.850 -23.034  0.00  0.00    +0.038 C 
ATOM     29  C   UNL     1      35.690 -17.541 -21.110  0.00  0.00    +0.038 C 
ATOM     30  C   UNL     1      35.591 -18.774 -21.755  0.00  0.00    +0.145 C 
BRANCH  30  31
ATOM     31  O   UNL     1      36.033 -19.902 -21.137  0.00  0.00    -0.453 OA
BRANCH  31  32
ATOM     32  C   UNL     1      35.170 -20.535 -20.258  0.00  0.00    +0.145 C 
ATOM     33  C   UNL     1      33.799 -20.290 -20.330  0.00  0.00    +0.037 C 
ATOM     34  C   UNL     1      35.672 -21.416 -19.299  0.00  0.00    +0.037 C 
ATOM     35  C   UNL     1      32.929 -20.926 -19.444  0.00  0.00    +0.003 C 
ATOM     36  C   UNL     1      34.802 -22.052 -18.413  0.00  0.00    +0.003 C 
ATOM     37  C   UNL     1      33.431 -21.807 -18.485  0.00  0.00    +0.000 C 
ENDBRANCH  31  32
ENDBRANCH  30  31
ENDBRANCH  23  25
ENDBRANCH  20  22
ENDBRANCH   1  20
TORSDOF 6
ENDMDL
MODEL 6
REMARK VINA RESULT:     -11.6      2.397      4.782
REMARK  Name = 25023705
REMARK  6 active torsions:
REMARK  status: ('A' for Active; 'I' for Inactive)
REMARK    1  A    between atoms: C_1  and  C_8
REMARK    2  A    between atoms: C_1  and  C_20
REMARK    3  A    between atoms: C_20  and  N_22
REMARK    4  A    between atoms: C_23  and  C_25
REMARK    5  A    between atoms: C_30  and  O_31
REMARK    6  A    between atoms: O_31  and  C_32
REMARK                            x       y       z     vdW  Elec       q    Type
REMARK                         _______ _______ _______ _____ _____    ______ ____
ROOT
ATOM      1  C   UNL     1      33.987 -22.283 -18.597  0.00  0.00    +0.066 C 
ATOM      2  C   UNL     1      32.708 -21.436 -18.805  0.00  0.00    +0.009 C 
ATOM      3  C   UNL     1      33.868 -23.497 -19.552  0.00  0.00    +0.009 C 
ENDROOT
BRANCH   1   8
ATOM      4  N   UNL     1      32.963 -23.157 -16.534  0.00  0.00    -0.347 NA
ATOM      5  N   UNL     1      31.887 -23.995 -14.663  0.00  0.00    -0.266 NA
ATOM      6  N   UNL     1      33.032 -24.242 -12.558  0.00  0.00    -0.316 NA
ATOM      7  N   UNL     1      30.780 -24.846 -12.776  0.00  0.00    -0.283 N 
ATOM      8  C   UNL     1      34.089 -22.668 -17.109  0.00  0.00    +0.122 C 
ATOM      9  C   UNL     1      35.286 -22.499 -16.447  0.00  0.00    +0.026 C 
ATOM     10  C   UNL     1      35.324 -22.859 -15.111  0.00  0.00    +0.001 C 
ATOM     11  C   UNL     1      32.992 -23.509 -15.242  0.00  0.00    +0.137 C 
ATOM     12  C   UNL     1      34.170 -23.368 -14.499  0.00  0.00    +0.199 C 
ATOM     13  C   UNL     1      34.129 -23.752 -13.160  0.00  0.00    +0.187 C 
ATOM     14  C   UNL     1      31.961 -24.335 -13.359  0.00  0.00    +0.207 C 
ATOM     15  H   UNL     1      29.963 -24.935 -13.318  0.00  0.00    +0.156 HD
ATOM     16  H   UNL     1      30.775 -25.110 -11.827  0.00  0.00    +0.156 HD
ATOM     17  N   UNL     1      35.296 -23.630 -12.365  0.00  0.00    -0.334 N 
ATOM     18  H   UNL     1      35.276 -23.898 -11.418  0.00  0.00    +0.144 HD
ATOM     19  H   UNL     1      36.125 -23.275 -12.759  0.00  0.00    +0.144 HD
ENDBRANCH   1   8
BRANCH   1  20
ATOM     20  C   UNL     1      35.211 -21.430 -19.034  0.00  0.00    +0.096 C 
BRANCH  20  22
ATOM     21  O   UNL     1      36.930 -19.347 -20.009  0.00  0.00    -0.270 OA
ATOM     22  N   UNL     1      34.928 -20.515 -20.111  0.00  0.00    -0.300 N 
ATOM     23  C   UNL     1      35.826 -19.535 -20.514  0.00  0.00    +0.246 C 
ATOM     24  H   UNL     1      34.065 -20.587 -20.579  0.00  0.00    +0.150 HD
BRANCH  23  25
ATOM     25  C   UNL     1      35.374 -18.654 -21.621  0.00  0.00    +0.054 C 
ATOM     26  C   UNL     1      35.713 -17.301 -21.619  0.00  0.00    +0.008 C 
ATOM     27  C   UNL     1      34.608 -19.181 -22.663  0.00  0.00    +0.008 C 
ATOM     28  C   UNL     1      35.287 -16.475 -22.659  0.00  0.00    +0.038 C 
ATOM     29  C   UNL     1      34.183 -18.353 -23.702  0.00  0.00    +0.038 C 
ATOM     30  C   UNL     1      34.522 -17.000 -23.700  0.00  0.00    +0.145 C 
BRANCH  30  31
ATOM     31  O   UNL     1      34.105 -16.193 -24.712  0.00  0.00    -0.453 OA
BRANCH  31  32
ATOM     32  C   UNL     1      33.893 -14.855 -24.424  0.00  0.00    +0.145 C 
ATOM     33  C   UNL     1      33.742 -13.934 -25.461  0.00  0.00    +0.037 C 
ATOM     34  C   UNL     1      33.832 -14.428 -23.097  0.00  0.00    +0.037 C 
ATOM     35  C   UNL     1      33.530 -12.586 -25.171  0.00  0.00    +0.003 C 
ATOM     36  C   UNL     1      33.620 -13.080 -22.807  0.00  0.00    +0.003 C 
ATOM     37  C   UNL     1      33.469 -12.160 -23.844  0.00  0.00    +0.000 C 
ENDBRANCH  31  32
ENDBRANCH  30  31
ENDBRANCH  23  25
ENDBRANCH  20  22
ENDBRANCH   1  20
TORSDOF 6
ENDMDL
MODEL 7
REMARK VINA RESULT:     -11.5      2.997      5.280
REMARK  Name = 25023705
REMARK  6 active torsions:
REMARK  status: ('A' for Active; 'I' for Inactive)
REMARK    1  A    between atoms: C_1  and  C_8
REMARK    2  A    between atoms: C_1  and  C_20
REMARK    3  A    between atoms: C_20  and  N_22
REMARK    4  A    between atoms: C_23  and  C_25
REMARK    5  A    between atoms: C_30  and  O_31
REMARK    6  A    between atoms: O_31  and  C_32
REMARK                            x       y       z     vdW  Elec       q    Type
REMARK                         _______ _______ _______ _____ _____    ______ ____
ROOT
ATOM      1  C   UNL     1      36.562 -24.105 -11.194  0.00  0.00    +0.066 C 
ATOM      2  C   UNL     1      36.970 -22.643 -11.493  0.00  0.00    +0.009 C 
ATOM      3  C   UNL     1      36.803 -24.326  -9.680  0.00  0.00    +0.009 C 
ENDROOT
BRANCH   1   8
ATOM      4  N   UNL     1      36.718 -26.096 -12.636  0.00  0.00    -0.347 NA
ATOM      5  N   UNL     1      36.736 -27.989 -13.970  0.00  0.00    -0.266 NA
ATOM      6  N   UNL     1      38.738 -28.720 -15.089  0.00  0.00    -0.316 NA
ATOM      7  N   UNL     1      36.734 -29.910 -15.318  0.00  0.00    -0.283 N 
ATOM      8  C   UNL     1      37.382 -25.043 -12.101  0.00  0.00    +0.122 C 
ATOM      9  C   UNL     1      38.716 -24.777 -12.318  0.00  0.00    +0.026 C 
ATOM     10  C   UNL     1      39.408 -25.650 -13.140  0.00  0.00    +0.001 C 
ATOM     11  C   UNL     1      37.380 -26.945 -13.434  0.00  0.00    +0.137 C 
ATOM     12  C   UNL     1      38.738 -26.745 -13.705  0.00  0.00    +0.199 C 
ATOM     13  C   UNL     1      39.365 -27.666 -14.541  0.00  0.00    +0.187 C 
ATOM     14  C   UNL     1      37.441 -28.819 -14.766  0.00  0.00    +0.207 C 
ATOM     15  H   UNL     1      35.779 -30.032 -15.113  0.00  0.00    +0.156 HD
ATOM     16  H   UNL     1      37.198 -30.549 -15.907  0.00  0.00    +0.156 HD
ATOM     17  N   UNL     1      40.739 -27.507 -14.846  0.00  0.00    -0.334 N 
ATOM     18  H   UNL     1      41.190 -28.154 -15.436  0.00  0.00    +0.144 HD
ATOM     19  H   UNL     1      41.243 -26.750 -14.468  0.00  0.00    +0.144 HD
ENDBRANCH   1   8
BRANCH   1  20
ATOM     20  C   UNL     1      35.040 -24.251 -11.477  0.00  0.00    +0.096 C 
BRANCH  20  22
ATOM     21  O   UNL     1      32.463 -24.598 -12.694  0.00  0.00    -0.270 OA
ATOM     22  N   UNL     1      34.651 -23.835 -12.799  0.00  0.00    -0.300 N 
ATOM     23  C   UNL     1      33.375 -24.047 -13.305  0.00  0.00    +0.246 C 
ATOM     24  H   UNL     1      35.316 -23.383 -13.368  0.00  0.00    +0.150 HD
BRANCH  23  25
ATOM     25  C   UNL     1      33.140 -23.583 -14.697  0.00  0.00    +0.054 C 
ATOM     26  C   UNL     1      31.873 -23.149 -15.083  0.00  0.00    +0.008 C 
ATOM     27  C   UNL     1      34.189 -23.583 -15.617  0.00  0.00    +0.008 C 
ATOM     28  C   UNL     1      31.653 -22.715 -16.390  0.00  0.00    +0.038 C 
ATOM     29  C   UNL     1      33.969 -23.148 -16.924  0.00  0.00    +0.038 C 
ATOM     30  C   UNL     1      32.701 -22.715 -17.311  0.00  0.00    +0.145 C 
BRANCH  30  31
ATOM     31  O   UNL     1      32.487 -22.293 -18.587  0.00  0.00    -0.453 OA
BRANCH  31  32
ATOM     32  C   UNL     1      33.479 -21.539 -19.191  0.00  0.00    +0.145 C 
ATOM     33  C   UNL     1      33.139 -20.411 -19.938  0.00  0.00    +0.037 C 
ATOM     34  C   UNL     1      34.817 -21.909 -19.055  0.00  0.00    +0.037 C 
ATOM     35  C   UNL     1      34.138 -19.652 -20.548  0.00  0.00    +0.003 C 
ATOM     36  C   UNL     1      35.815 -21.150 -19.665  0.00  0.00    +0.003 C 
ATOM     37  C   UNL     1      35.476 -20.022 -20.412  0.00  0.00    +0.000 C 
ENDBRANCH  31  32
ENDBRANCH  30  31
ENDBRANCH  23  25
ENDBRANCH  20  22
ENDBRANCH   1  20
TORSDOF 6
ENDMDL
MODEL 8
REMARK VINA RESULT:     -11.4      4.757      8.341
REMARK  Name = 25023705
REMARK  6 active torsions:
REMARK  status: ('A' for Active; 'I' for Inactive)
REMARK    1  A    between atoms: C_1  and  C_8
REMARK    2  A    between atoms: C_1  and  C_20
REMARK    3  A    between atoms: C_20  and  N_22
REMARK    4  A    between atoms: C_23  and  C_25
REMARK    5  A    between atoms: C_30  and  O_31
REMARK    6  A    between atoms: O_31  and  C_32
REMARK                            x       y       z     vdW  Elec       q    Type
REMARK                         _______ _______ _______ _____ _____    ______ ____
ROOT
ATOM      1  C   UNL     1      35.675 -18.452 -21.727  0.00  0.00    +0.066 C 
ATOM      2  C   UNL     1      36.870 -19.061 -22.500  0.00  0.00    +0.009 C 
ATOM      3  C   UNL     1      36.200 -17.158 -21.057  0.00  0.00    +0.009 C 
ENDROOT
BRANCH   1   8
ATOM      4  N   UNL     1      36.030 -19.959 -19.811  0.00  0.00    -0.347 NA
ATOM      5  N   UNL     1      36.489 -21.332 -18.004  0.00  0.00    -0.266 NA
ATOM      6  N   UNL     1      34.806 -22.770 -17.057  0.00  0.00    -0.316 NA
ATOM      7  N   UNL     1      36.973 -22.718 -16.172  0.00  0.00    -0.283 N 
ATOM      8  C   UNL     1      35.146 -19.501 -20.730  0.00  0.00    +0.122 C 
ATOM      9  C   UNL     1      33.834 -19.915 -20.817  0.00  0.00    +0.026 C 
ATOM     10  C   UNL     1      33.409 -20.859 -19.898  0.00  0.00    +0.001 C 
ATOM     11  C   UNL     1      35.626 -20.872 -18.918  0.00  0.00    +0.137 C 
ATOM     12  C   UNL     1      34.309 -21.345 -18.939  0.00  0.00    +0.199 C 
ATOM     13  C   UNL     1      33.956 -22.295 -17.983  0.00  0.00    +0.187 C 
ATOM     14  C   UNL     1      36.040 -22.252 -17.124  0.00  0.00    +0.207 C 
ATOM     15  H   UNL     1      37.895 -22.372 -16.177  0.00  0.00    +0.156 HD
ATOM     16  H   UNL     1      36.702 -23.390 -15.506  0.00  0.00    +0.156 HD
ATOM     17  N   UNL     1      32.634 -22.804 -17.962  0.00  0.00    -0.334 N 
ATOM     18  H   UNL     1      32.377 -23.476 -17.290  0.00  0.00    +0.144 HD
ATOM     19  H   UNL     1      31.974 -22.488 -18.620  0.00  0.00    +0.144 HD
ENDBRANCH   1   8
BRANCH   1  20
ATOM     20  C   UNL     1      34.578 -18.063 -22.758  0.00  0.00    +0.096 C 
BRANCH  20  22
ATOM     21  O   UNL     1      33.808 -16.691 -25.159  0.00  0.00    -0.270 OA
ATOM     22  N   UNL     1      34.407 -16.642 -22.919  0.00  0.00    -0.300 N 
ATOM     23  C   UNL     1      34.030 -16.067 -24.125  0.00  0.00    +0.246 C 
ATOM     24  H   UNL     1      34.564 -16.056 -22.143  0.00  0.00    +0.150 HD
BRANCH  23  25
ATOM     25  C   UNL     1      33.923 -14.585 -24.134  0.00  0.00    +0.054 C 
ATOM     26  C   UNL     1      33.490 -13.924 -25.283  0.00  0.00    +0.008 C 
ATOM     27  C   UNL     1      34.258 -13.855 -22.993  0.00  0.00    +0.008 C 
ATOM     28  C   UNL     1      33.391 -12.532 -25.291  0.00  0.00    +0.038 C 
ATOM     29  C   UNL     1      34.158 -12.464 -23.001  0.00  0.00    +0.038 C 
ATOM     30  C   UNL     1      33.726 -11.803 -24.150  0.00  0.00    +0.145 C 
BRANCH  30  31
ATOM     31  O   UNL     1      33.631 -10.445 -24.159  0.00  0.00    -0.453 OA
BRANCH  31  32
ATOM     32  C   UNL     1      33.092  -9.830 -23.041  0.00  0.00    +0.145 C 
ATOM     33  C   UNL     1      32.159 -10.507 -22.256  0.00  0.00    +0.037 C 
ATOM     34  C   UNL     1      33.481  -8.534 -22.702  0.00  0.00    +0.037 C 
ATOM     35  C   UNL     1      31.615  -9.887 -21.131  0.00  0.00    +0.003 C 
ATOM     36  C   UNL     1      32.937  -7.915 -21.577  0.00  0.00    +0.003 C 
ATOM     37  C   UNL     1      32.004  -8.591 -20.792  0.00  0.00    +0.000 C 
ENDBRANCH  31  32
ENDBRANCH  30  31
ENDBRANCH  23  25
ENDBRANCH  20  22
ENDBRANCH   1  20
TORSDOF 6
ENDMDL
MODEL 9
REMARK VINA RESULT:     -11.3      8.911     13.385
REMARK  Name = 25023705
REMARK  6 active torsions:
REMARK  status: ('A' for Active; 'I' for Inactive)
REMARK    1  A    between atoms: C_1  and  C_8
REMARK    2  A    between atoms: C_1  and  C_20
REMARK    3  A    between atoms: C_20  and  N_22
REMARK    4  A    between atoms: C_23  and  C_25
REMARK    5  A    between atoms: C_30  and  O_31
REMARK    6  A    between atoms: O_31  and  C_32
REMARK                            x       y       z     vdW  Elec       q    Type
REMARK                         _______ _______ _______ _____ _____    ______ ____
ROOT
ATOM      1  C   UNL     1      32.038 -11.388 -21.552  0.00  0.00    +0.066 C 
ATOM      2  C   UNL     1      30.652 -11.888 -22.028  0.00  0.00    +0.009 C 
ATOM      3  C   UNL     1      32.331 -12.114 -20.216  0.00  0.00    +0.009 C 
ENDROOT
BRANCH   1   8
ATOM      4  N   UNL     1      31.865  -9.160 -22.588  0.00  0.00    -0.347 NA
ATOM      5  N   UNL     1      31.692  -7.125 -23.680  0.00  0.00    -0.266 NA
ATOM      6  N   UNL     1      31.729  -5.042 -22.473  0.00  0.00    -0.316 NA
ATOM      7  N   UNL     1      31.516  -5.073 -24.805  0.00  0.00    -0.283 N 
ATOM      8  C   UNL     1      31.994  -9.852 -21.431  0.00  0.00    +0.122 C 
ATOM      9  C   UNL     1      32.087  -9.269 -20.185  0.00  0.00    +0.026 C 
ATOM     10  C   UNL     1      32.043  -7.887 -20.131  0.00  0.00    +0.001 C 
ATOM     11  C   UNL     1      31.820  -7.821 -22.544  0.00  0.00    +0.137 C 
ATOM     12  C   UNL     1      31.909  -7.152 -21.318  0.00  0.00    +0.199 C 
ATOM     13  C   UNL     1      31.857  -5.761 -21.345  0.00  0.00    +0.187 C 
ATOM     14  C   UNL     1      31.652  -5.779 -23.590  0.00  0.00    +0.207 C 
ATOM     15  H   UNL     1      31.456  -5.564 -25.656  0.00  0.00    +0.156 HD
ATOM     16  H   UNL     1      31.482  -4.088 -24.800  0.00  0.00    +0.156 HD
ATOM     17  N   UNL     1      31.943  -5.037 -20.130  0.00  0.00    -0.334 N 
ATOM     18  H   UNL     1      31.907  -4.053 -20.140  0.00  0.00    +0.144 HD
ATOM     19  H   UNL     1      32.038  -5.517 -19.276  0.00  0.00    +0.144 HD
ENDBRANCH   1   8
BRANCH   1  20
ATOM     20  C   UNL     1      33.099 -11.831 -22.598  0.00  0.00    +0.096 C 
BRANCH  20  22
ATOM     21  O   UNL     1      33.563 -13.892 -24.542  0.00  0.00    -0.270 OA
ATOM     22  N   UNL     1      33.650 -13.139 -22.350  0.00  0.00    -0.300 N 
ATOM     23  C   UNL     1      33.838 -14.074 -23.360  0.00  0.00    +0.246 C 
ATOM     24  H   UNL     1      33.902 -13.379 -21.429  0.00  0.00    +0.150 HD
BRANCH  23  25
ATOM     25  C   UNL     1      34.391 -15.387 -22.936  0.00  0.00    +0.054 C 
ATOM     26  C   UNL     1      34.517 -16.422 -23.862  0.00  0.00    +0.008 C 
ATOM     27  C   UNL     1      34.783 -15.583 -21.611  0.00  0.00    +0.008 C 
ATOM     28  C   UNL     1      35.035 -17.654 -23.463  0.00  0.00    +0.038 C 
ATOM     29  C   UNL     1      35.302 -16.815 -21.214  0.00  0.00    +0.038 C 
ATOM     30  C   UNL     1      35.427 -17.851 -22.139  0.00  0.00    +0.145 C 
BRANCH  30  31
ATOM     31  O   UNL     1      35.930 -19.054 -21.750  0.00  0.00    -0.453 OA
BRANCH  31  32
ATOM     32  C   UNL     1      35.182 -19.808 -20.862  0.00  0.00    +0.145 C 
ATOM     33  C   UNL     1      35.820 -20.556 -19.873  0.00  0.00    +0.037 C 
ATOM     34  C   UNL     1      33.790 -19.822 -20.959  0.00  0.00    +0.037 C 
ATOM     35  C   UNL     1      35.066 -21.317 -18.979  0.00  0.00    +0.003 C 
ATOM     36  C   UNL     1      33.036 -20.583 -20.065  0.00  0.00    +0.003 C 
ATOM     37  C   UNL     1      33.674 -21.331 -19.076  0.00  0.00    +0.000 C 
ENDBRANCH  31  32
ENDBRANCH  30  31
ENDBRANCH  23  25
ENDBRANCH  20  22
ENDBRANCH   1  20
TORSDOF 6
ENDMDL
