MODEL 1
REMARK VINA RESULT:     -11.3      0.000      0.000
REMARK  Name = 42627755
REMARK  2 active torsions:
REMARK  status: ('A' for Active; 'I' for Inactive)
REMARK    1  A    between atoms: N_5  and  C_20
REMARK    2  A    between atoms: C_7  and  C_28
REMARK                            x       y       z     vdW  Elec       q    Type
REMARK                         _______ _______ _______ _____ _____    ______ ____
ROOT
ATOM      1  N   UNL     1      37.270 -24.022 -15.030  0.00  0.00    -0.239 N 
ATOM      2  N   UNL     1      35.943 -23.886 -15.193  0.00  0.00    -0.166 NA
ATOM      3  N   UNL     1      34.075 -24.728 -13.865  0.00  0.00    -0.271 N 
ATOM      4  N   UNL     1      33.014 -23.532 -15.630  0.00  0.00    -0.322 NA
ATOM      5  N   UNL     1      31.929 -22.367 -17.348  0.00  0.00    -0.247 N 
ATOM      6  N   UNL     1      30.609 -23.417 -15.724  0.00  0.00    -0.170 NA
ATOM      7  C   UNL     1      37.618 -24.758 -13.935  0.00  0.00    +0.045 C 
ATOM      8  C   UNL     1      36.436 -25.128 -13.341  0.00  0.00    +0.048 C 
ATOM      9  C   UNL     1      35.439 -24.564 -14.158  0.00  0.00    +0.152 C 
ATOM     10  C   UNL     1      32.898 -24.274 -14.510  0.00  0.00    +0.199 C 
ATOM     11  C   UNL     1      31.689 -24.624 -13.944  0.00  0.00    +0.070 C 
ATOM     12  C   UNL     1      31.846 -23.142 -16.178  0.00  0.00    +0.150 C 
ATOM     13  C   UNL     1      30.566 -24.164 -14.601  0.00  0.00    +0.116 C 
ATOM     14  H   UNL     1      37.931 -23.627 -15.644  0.00  0.00    +0.174 HD
ATOM     15  H   UNL     1      33.904 -25.261 -13.056  0.00  0.00    +0.156 HD
ATOM     16  H   UNL     1      31.053 -22.105 -17.712  0.00  0.00    +0.165 HD
ENDROOT
BRANCH   5  20
ATOM     17  N   UNL     1      34.056 -19.717 -20.936  0.00  0.00    -0.315 N 
ATOM     18  N   UNL     1      36.115 -20.382 -20.428  0.00  0.00    -0.315 N 
ATOM     19  C   UNL     1      33.913 -20.565 -19.869  0.00  0.00    +0.060 C 
ATOM     20  C   UNL     1      33.025 -21.889 -18.102  0.00  0.00    +0.059 C 
ATOM     21  C   UNL     1      35.212 -20.967 -19.570  0.00  0.00    +0.059 C 
ATOM     22  C   UNL     1      32.794 -21.003 -19.160  0.00  0.00    +0.031 C 
ATOM     23  C   UNL     1      34.316 -22.310 -17.778  0.00  0.00    +0.017 C 
ATOM     24  C   UNL     1      35.426 -21.857 -18.504  0.00  0.00    +0.017 C 
ATOM     25  C   UNL     1      35.389 -19.640 -21.233  0.00  0.00    +0.182 C 
ATOM     26  H   UNL     1      33.329 -19.247 -21.405  0.00  0.00    +0.148 HD
ATOM     27  H   UNL     1      37.093 -20.494 -20.436  0.00  0.00    +0.148 HD
ENDBRANCH   5  20
BRANCH   7  28
ATOM     28  C   UNL     1      39.030 -25.095 -13.476  0.00  0.00    +0.037 C 
ATOM     29  C   UNL     1      40.133 -25.117 -14.492  0.00  0.00    +0.006 C 
ATOM     30  C   UNL     1      39.633 -26.403 -13.900  0.00  0.00    +0.006 C 
ENDBRANCH   7  28
TORSDOF 2
ENDMDL
MODEL 2
REMARK VINA RESULT:     -11.3      1.365      6.507
REMARK  Name = 42627755
REMARK  2 active torsions:
REMARK  status: ('A' for Active; 'I' for Inactive)
REMARK    1  A    between atoms: N_5  and  C_20
REMARK    2  A    between atoms: C_7  and  C_28
REMARK                            x       y       z     vdW  Elec       q    Type
REMARK                         _______ _______ _______ _____ _____    ______ ____
ROOT
ATOM      1  N   UNL     1      35.445 -21.568 -18.749  0.00  0.00    -0.239 N 
ATOM      2  N   UNL     1      34.678 -22.153 -17.814  0.00  0.00    -0.166 NA
ATOM      3  N   UNL     1      32.252 -22.233 -17.558  0.00  0.00    -0.271 N 
ATOM      4  N   UNL     1      33.053 -23.484 -15.697  0.00  0.00    -0.322 NA
ATOM      5  N   UNL     1      33.796 -24.721 -13.853  0.00  0.00    -0.247 N 
ATOM      6  N   UNL     1      31.488 -24.450 -14.139  0.00  0.00    -0.170 NA
ATOM      7  C   UNL     1      34.736 -20.910 -19.711  0.00  0.00    +0.045 C 
ATOM      8  C   UNL     1      33.413 -21.078 -19.382  0.00  0.00    +0.048 C 
ATOM      9  C   UNL     1      33.437 -21.850 -18.206  0.00  0.00    +0.152 C 
ATOM     10  C   UNL     1      32.004 -22.992 -16.388  0.00  0.00    +0.199 C 
ATOM     11  C   UNL     1      30.688 -23.184 -16.023  0.00  0.00    +0.070 C 
ATOM     12  C   UNL     1      32.727 -24.193 -14.599  0.00  0.00    +0.150 C 
ATOM     13  C   UNL     1      30.487 -23.928 -14.878  0.00  0.00    +0.116 C 
ATOM     14  H   UNL     1      36.429 -21.610 -18.742  0.00  0.00    +0.174 HD
ATOM     15  H   UNL     1      31.435 -21.912 -18.003  0.00  0.00    +0.156 HD
ATOM     16  H   UNL     1      33.512 -25.232 -13.061  0.00  0.00    +0.165 HD
ENDROOT
BRANCH   5  20
ATOM     17  N   UNL     1      38.236 -26.586 -14.964  0.00  0.00    -0.315 N 
ATOM     18  N   UNL     1      39.314 -24.684 -14.563  0.00  0.00    -0.315 N 
ATOM     19  C   UNL     1      37.270 -25.691 -14.583  0.00  0.00    +0.060 C 
ATOM     20  C   UNL     1      35.199 -24.663 -14.020  0.00  0.00    +0.059 C 
ATOM     21  C   UNL     1      37.968 -24.512 -14.338  0.00  0.00    +0.059 C 
ATOM     22  C   UNL     1      35.888 -25.808 -14.435  0.00  0.00    +0.031 C 
ATOM     23  C   UNL     1      35.871 -23.466 -13.767  0.00  0.00    +0.017 C 
ATOM     24  C   UNL     1      37.260 -23.371 -13.921  0.00  0.00    +0.017 C 
ATOM     25  C   UNL     1      39.440 -25.938 -14.936  0.00  0.00    +0.182 C 
ATOM     26  H   UNL     1      38.090 -27.527 -15.213  0.00  0.00    +0.148 HD
ATOM     27  H   UNL     1      40.028 -24.013 -14.466  0.00  0.00    +0.148 HD
ENDBRANCH   5  20
BRANCH   7  28
ATOM     28  C   UNL     1      35.304 -20.149 -20.901  0.00  0.00    +0.037 C 
ATOM     29  C   UNL     1      36.521 -19.295 -20.697  0.00  0.00    +0.006 C 
ATOM     30  C   UNL     1      35.184 -18.652 -20.923  0.00  0.00    +0.006 C 
ENDBRANCH   7  28
TORSDOF 2
ENDMDL
MODEL 3
REMARK VINA RESULT:     -11.2      1.728      5.723
REMARK  Name = 42627755
REMARK  2 active torsions:
REMARK  status: ('A' for Active; 'I' for Inactive)
REMARK    1  A    between atoms: N_5  and  C_20
REMARK    2  A    between atoms: C_7  and  C_28
REMARK                            x       y       z     vdW  Elec       q    Type
REMARK                         _______ _______ _______ _____ _____    ______ ____
ROOT
ATOM      1  N   UNL     1      30.890 -22.790 -16.674  0.00  0.00    -0.239 N 
ATOM      2  N   UNL     1      32.224 -22.749 -16.516  0.00  0.00    -0.166 NA
ATOM      3  N   UNL     1      33.651 -23.610 -14.732  0.00  0.00    -0.271 N 
ATOM      4  N   UNL     1      35.191 -22.612 -16.249  0.00  0.00    -0.322 NA
ATOM      5  N   UNL     1      36.742 -21.643 -17.712  0.00  0.00    -0.247 N 
ATOM      6  N   UNL     1      37.551 -22.657 -15.762  0.00  0.00    -0.170 NA
ATOM      7  C   UNL     1      30.235 -23.422 -15.658  0.00  0.00    +0.045 C 
ATOM      8  C   UNL     1      31.209 -23.822 -14.775  0.00  0.00    +0.048 C 
ATOM      9  C   UNL     1      32.412 -23.380 -15.354  0.00  0.00    +0.152 C 
ATOM     10  C   UNL     1      34.979 -23.278 -15.095  0.00  0.00    +0.199 C 
ATOM     11  C   UNL     1      35.987 -23.663 -14.236  0.00  0.00    +0.070 C 
ATOM     12  C   UNL     1      36.483 -22.337 -16.517  0.00  0.00    +0.150 C 
ATOM     13  C   UNL     1      37.266 -23.322 -14.623  0.00  0.00    +0.116 C 
ATOM     14  H   UNL     1      30.428 -22.401 -17.451  0.00  0.00    +0.174 HD
ATOM     15  H   UNL     1      33.581 -24.096 -13.879  0.00  0.00    +0.156 HD
ATOM     16  H   UNL     1      37.698 -21.464 -17.866  0.00  0.00    +0.165 HD
ENDROOT
BRANCH   5  20
ATOM     17  N   UNL     1      35.718 -19.023 -21.775  0.00  0.00    -0.315 N 
ATOM     18  N   UNL     1      33.575 -19.611 -21.810  0.00  0.00    -0.315 N 
ATOM     19  C   UNL     1      35.548 -19.847 -20.693  0.00  0.00    +0.060 C 
ATOM     20  C   UNL     1      35.898 -21.152 -18.734  0.00  0.00    +0.059 C 
ATOM     21  C   UNL     1      34.202 -20.201 -20.737  0.00  0.00    +0.059 C 
ATOM     22  C   UNL     1      36.427 -20.300 -19.710  0.00  0.00    +0.031 C 
ATOM     23  C   UNL     1      34.553 -21.525 -18.751  0.00  0.00    +0.017 C 
ATOM     24  C   UNL     1      33.687 -21.058 -19.749  0.00  0.00    +0.017 C 
ATOM     25  C   UNL     1      34.512 -18.912 -22.410  0.00  0.00    +0.182 C 
ATOM     26  H   UNL     1      36.559 -18.588 -22.047  0.00  0.00    +0.148 HD
ATOM     27  H   UNL     1      32.630 -19.695 -22.072  0.00  0.00    +0.148 HD
ENDBRANCH   5  20
BRANCH   7  28
ATOM     28  C   UNL     1      28.732 -23.634 -15.536  0.00  0.00    +0.037 C 
ATOM     29  C   UNL     1      27.844 -23.155 -16.645  0.00  0.00    +0.006 C 
ATOM     30  C   UNL     1      27.850 -22.438 -15.327  0.00  0.00    +0.006 C 
ENDBRANCH   7  28
TORSDOF 2
ENDMDL
MODEL 4
REMARK VINA RESULT:     -10.8      2.113      6.449
REMARK  Name = 42627755
REMARK  2 active torsions:
REMARK  status: ('A' for Active; 'I' for Inactive)
REMARK    1  A    between atoms: N_5  and  C_20
REMARK    2  A    between atoms: C_7  and  C_28
REMARK                            x       y       z     vdW  Elec       q    Type
REMARK                         _______ _______ _______ _____ _____    ______ ____
ROOT
ATOM      1  N   UNL     1      34.124 -22.046 -18.277  0.00  0.00    -0.239 N 
ATOM      2  N   UNL     1      34.332 -22.498 -17.029  0.00  0.00    -0.166 NA
ATOM      3  N   UNL     1      36.364 -22.586 -15.680  0.00  0.00    -0.271 N 
ATOM      4  N   UNL     1      34.704 -23.523 -14.253  0.00  0.00    -0.322 NA
ATOM      5  N   UNL     1      33.104 -24.451 -12.817  0.00  0.00    -0.247 N 
ATOM      6  N   UNL     1      35.306 -24.272 -12.044  0.00  0.00    -0.170 NA
ATOM      7  C   UNL     1      35.245 -21.557 -18.881  0.00  0.00    +0.045 C 
ATOM      8  C   UNL     1      36.257 -21.700 -17.963  0.00  0.00    +0.048 C 
ATOM      9  C   UNL     1      35.638 -22.285 -16.843  0.00  0.00    +0.152 C 
ATOM     10  C   UNL     1      35.991 -23.164 -14.442  0.00  0.00    +0.199 C 
ATOM     11  C   UNL     1      36.978 -23.324 -13.492  0.00  0.00    +0.070 C 
ATOM     12  C   UNL     1      34.435 -24.064 -13.049  0.00  0.00    +0.150 C 
ATOM     13  C   UNL     1      36.575 -23.890 -12.300  0.00  0.00    +0.116 C 
ATOM     14  H   UNL     1      33.242 -22.064 -18.716  0.00  0.00    +0.174 HD
ATOM     15  H   UNL     1      37.318 -22.352 -15.736  0.00  0.00    +0.156 HD
ATOM     16  H   UNL     1      32.954 -24.840 -11.925  0.00  0.00    +0.165 HD
ENDROOT
BRANCH   5  20
ATOM     17  N   UNL     1      30.103 -22.426 -16.181  0.00  0.00    -0.315 N 
ATOM     18  N   UNL     1      28.582 -24.040 -16.033  0.00  0.00    -0.315 N 
ATOM     19  C   UNL     1      30.592 -23.304 -15.249  0.00  0.00    +0.060 C 
ATOM     20  C   UNL     1      31.938 -24.391 -13.615  0.00  0.00    +0.059 C 
ATOM     21  C   UNL     1      29.625 -24.303 -15.174  0.00  0.00    +0.059 C 
ATOM     22  C   UNL     1      31.760 -23.311 -14.487  0.00  0.00    +0.031 C 
ATOM     23  C   UNL     1      30.987 -25.407 -13.518  0.00  0.00    +0.017 C 
ATOM     24  C   UNL     1      29.820 -25.380 -14.293  0.00  0.00    +0.017 C 
ATOM     25  C   UNL     1      28.901 -22.908 -16.620  0.00  0.00    +0.182 C 
ATOM     26  H   UNL     1      30.539 -21.596 -16.481  0.00  0.00    +0.148 HD
ATOM     27  H   UNL     1      27.774 -24.583 -16.177  0.00  0.00    +0.148 HD
ENDBRANCH   5  20
BRANCH   7  28
ATOM     28  C   UNL     1      35.344 -20.976 -20.284  0.00  0.00    +0.037 C 
ATOM     29  C   UNL     1      36.015 -19.647 -20.469  0.00  0.00    +0.006 C 
ATOM     30  C   UNL     1      34.526 -19.763 -20.621  0.00  0.00    +0.006 C 
ENDBRANCH   7  28
TORSDOF 2
ENDMDL
MODEL 5
REMARK VINA RESULT:     -10.8      1.902      7.032
REMARK  Name = 42627755
REMARK  2 active torsions:
REMARK  status: ('A' for Active; 'I' for Inactive)
REMARK    1  A    between atoms: N_5  and  C_20
REMARK    2  A    between atoms: C_7  and  C_28
REMARK                            x       y       z     vdW  Elec       q    Type
REMARK                         _______ _______ _______ _____ _____    ______ ____
ROOT
ATOM      1  N   UNL     1      34.268 -20.755 -19.679  0.00  0.00    -0.239 N 
ATOM      2  N   UNL     1      34.655 -21.362 -18.546  0.00  0.00    -0.166 NA
ATOM      3  N   UNL     1      36.878 -21.707 -17.596  0.00  0.00    -0.271 N 
ATOM      4  N   UNL     1      35.426 -22.728 -16.009  0.00  0.00    -0.322 NA
ATOM      5  N   UNL     1      34.036 -23.745 -14.422  0.00  0.00    -0.247 N 
ATOM      6  N   UNL     1      36.346 -23.763 -14.036  0.00  0.00    -0.170 NA
ATOM      7  C   UNL     1      35.300 -20.251 -20.415  0.00  0.00    +0.045 C 
ATOM      8  C   UNL     1      36.442 -20.550 -19.712  0.00  0.00    +0.048 C 
ATOM      9  C   UNL     1      35.985 -21.234 -18.571  0.00  0.00    +0.152 C 
ATOM     10  C   UNL     1      36.683 -22.410 -16.382  0.00  0.00    +0.199 C 
ATOM     11  C   UNL     1      37.805 -22.728 -15.645  0.00  0.00    +0.070 C 
ATOM     12  C   UNL     1      35.332 -23.395 -14.842  0.00  0.00    +0.150 C 
ATOM     13  C   UNL     1      37.575 -23.413 -14.470  0.00  0.00    +0.116 C 
ATOM     14  H   UNL     1      33.325 -20.680 -19.954  0.00  0.00    +0.174 HD
ATOM     15  H   UNL     1      37.822 -21.512 -17.794  0.00  0.00    +0.156 HD
ATOM     16  H   UNL     1      34.015 -24.230 -13.565  0.00  0.00    +0.165 HD
ENDROOT
BRANCH   5  20
ATOM     17  N   UNL     1      29.111 -24.117 -14.579  0.00  0.00    -0.315 N 
ATOM     18  N   UNL     1      28.927 -23.017 -16.501  0.00  0.00    -0.315 N 
ATOM     19  C   UNL     1      30.393 -23.789 -14.936  0.00  0.00    +0.060 C 
ATOM     20  C   UNL     1      32.758 -23.535 -14.989  0.00  0.00    +0.059 C 
ATOM     21  C   UNL     1      30.252 -23.103 -16.138  0.00  0.00    +0.059 C 
ATOM     22  C   UNL     1      31.626 -24.026 -14.329  0.00  0.00    +0.031 C 
ATOM     23  C   UNL     1      32.649 -22.842 -16.196  0.00  0.00    +0.017 C 
ATOM     24  C   UNL     1      31.400 -22.616 -16.788  0.00  0.00    +0.017 C 
ATOM     25  C   UNL     1      28.272 -23.635 -15.545  0.00  0.00    +0.182 C 
ATOM     26  H   UNL     1      28.842 -24.613 -13.772  0.00  0.00    +0.148 HD
ATOM     27  H   UNL     1      28.552 -22.585 -17.302  0.00  0.00    +0.148 HD
ENDBRANCH   5  20
BRANCH   7  28
ATOM     28  C   UNL     1      35.197 -19.511 -21.742  0.00  0.00    +0.037 C 
ATOM     29  C   UNL     1      36.360 -18.680 -22.197  0.00  0.00    +0.006 C 
ATOM     30  C   UNL     1      35.101 -18.014 -21.726  0.00  0.00    +0.006 C 
ENDBRANCH   7  28
TORSDOF 2
ENDMDL
MODEL 6
REMARK VINA RESULT:     -10.8      1.632      5.698
REMARK  Name = 42627755
REMARK  2 active torsions:
REMARK  status: ('A' for Active; 'I' for Inactive)
REMARK    1  A    between atoms: N_5  and  C_20
REMARK    2  A    between atoms: C_7  and  C_28
REMARK                            x       y       z     vdW  Elec       q    Type
REMARK                         _______ _______ _______ _____ _____    ______ ____
ROOT
ATOM      1  N   UNL     1      30.835 -22.956 -16.331  0.00  0.00    -0.239 N 
ATOM      2  N   UNL     1      32.152 -23.035 -16.078  0.00  0.00    -0.166 NA
ATOM      3  N   UNL     1      33.366 -24.088 -14.241  0.00  0.00    -0.271 N 
ATOM      4  N   UNL     1      35.092 -23.162 -15.594  0.00  0.00    -0.322 NA
ATOM      5  N   UNL     1      36.822 -22.268 -16.895  0.00  0.00    -0.247 N 
ATOM      6  N   UNL     1      37.397 -23.428 -14.944  0.00  0.00    -0.170 NA
ATOM      7  C   UNL     1      30.055 -23.571 -15.396  0.00  0.00    +0.045 C 
ATOM      8  C   UNL     1      30.925 -24.089 -14.467  0.00  0.00    +0.048 C 
ATOM      9  C   UNL     1      32.201 -23.728 -14.937  0.00  0.00    +0.152 C 
ATOM     10  C   UNL     1      34.740 -23.856 -14.492  0.00  0.00    +0.199 C 
ATOM     11  C   UNL     1      35.646 -24.360 -13.582  0.00  0.00    +0.070 C 
ATOM     12  C   UNL     1      36.418 -22.987 -15.756  0.00  0.00    +0.150 C 
ATOM     13  C   UNL     1      36.974 -24.113 -13.861  0.00  0.00    +0.116 C 
ATOM     14  H   UNL     1      30.465 -22.496 -17.120  0.00  0.00    +0.174 HD
ATOM     15  H   UNL     1      33.194 -24.601 -13.419  0.00  0.00    +0.156 HD
ATOM     16  H   UNL     1      37.798 -22.165 -16.973  0.00  0.00    +0.165 HD
ENDROOT
BRANCH   5  20
ATOM     17  N   UNL     1      32.729 -21.148 -19.428  0.00  0.00    -0.315 N 
ATOM     18  N   UNL     1      33.812 -19.970 -20.971  0.00  0.00    -0.315 N 
ATOM     19  C   UNL     1      34.051 -21.203 -19.070  0.00  0.00    +0.060 C 
ATOM     20  C   UNL     1      36.099 -21.664 -17.950  0.00  0.00    +0.059 C 
ATOM     21  C   UNL     1      34.707 -20.461 -20.048  0.00  0.00    +0.059 C 
ATOM     22  C   UNL     1      34.710 -21.821 -18.006  0.00  0.00    +0.031 C 
ATOM     23  C   UNL     1      36.785 -20.926 -18.916  0.00  0.00    +0.017 C 
ATOM     24  C   UNL     1      36.103 -20.314 -19.976  0.00  0.00    +0.017 C 
ATOM     25  C   UNL     1      32.637 -20.401 -20.570  0.00  0.00    +0.182 C 
ATOM     26  H   UNL     1      31.980 -21.570 -18.950  0.00  0.00    +0.148 HD
ATOM     27  H   UNL     1      34.010 -19.416 -21.761  0.00  0.00    +0.148 HD
ENDBRANCH   5  20
BRANCH   7  28
ATOM     28  C   UNL     1      28.536 -23.660 -15.392  0.00  0.00    +0.037 C 
ATOM     29  C   UNL     1      27.778 -23.110 -16.564  0.00  0.00    +0.006 C 
ATOM     30  C   UNL     1      27.741 -22.395 -15.244  0.00  0.00    +0.006 C 
ENDBRANCH   7  28
TORSDOF 2
ENDMDL
MODEL 7
REMARK VINA RESULT:     -10.3      1.534      5.361
REMARK  Name = 42627755
REMARK  2 active torsions:
REMARK  status: ('A' for Active; 'I' for Inactive)
REMARK    1  A    between atoms: N_5  and  C_20
REMARK    2  A    between atoms: C_7  and  C_28
REMARK                            x       y       z     vdW  Elec       q    Type
REMARK                         _______ _______ _______ _____ _____    ______ ____
ROOT
ATOM      1  N   UNL     1      36.293 -24.113 -13.898  0.00  0.00    -0.239 N 
ATOM      2  N   UNL     1      35.707 -23.538 -14.961  0.00  0.00    -0.166 NA
ATOM      3  N   UNL     1      36.669 -22.411 -16.902  0.00  0.00    -0.271 N 
ATOM      4  N   UNL     1      34.323 -22.286 -17.288  0.00  0.00    -0.322 NA
ATOM      5  N   UNL     1      32.023 -22.140 -17.708  0.00  0.00    -0.247 N 
ATOM      6  N   UNL     1      33.491 -21.204 -19.274  0.00  0.00    -0.170 NA
ATOM      7  C   UNL     1      37.655 -24.048 -13.917  0.00  0.00    +0.045 C 
ATOM      8  C   UNL     1      37.982 -23.385 -15.075  0.00  0.00    +0.048 C 
ATOM      9  C   UNL     1      36.744 -23.094 -15.677  0.00  0.00    +0.152 C 
ATOM     10  C   UNL     1      35.575 -22.003 -17.703  0.00  0.00    +0.199 C 
ATOM     11  C   UNL     1      35.860 -21.334 -18.875  0.00  0.00    +0.070 C 
ATOM     12  C   UNL     1      33.342 -21.863 -18.110  0.00  0.00    +0.150 C 
ATOM     13  C   UNL     1      34.769 -20.954 -19.628  0.00  0.00    +0.116 C 
ATOM     14  H   UNL     1      35.786 -24.543 -13.171  0.00  0.00    +0.174 HD
ATOM     15  H   UNL     1      37.546 -22.168 -17.274  0.00  0.00    +0.156 HD
ATOM     16  H   UNL     1      31.341 -21.814 -18.338  0.00  0.00    +0.165 HD
ENDROOT
BRANCH   5  20
ATOM     17  N   UNL     1      32.295 -24.768 -13.532  0.00  0.00    -0.315 N 
ATOM     18  N   UNL     1      30.096 -24.776 -13.204  0.00  0.00    -0.315 N 
ATOM     19  C   UNL     1      31.766 -24.065 -14.583  0.00  0.00    +0.060 C 
ATOM     20  C   UNL     1      31.487 -22.797 -16.577  0.00  0.00    +0.059 C 
ATOM     21  C   UNL     1      30.392 -24.084 -14.356  0.00  0.00    +0.059 C 
ATOM     22  C   UNL     1      32.352 -23.434 -15.680  0.00  0.00    +0.031 C 
ATOM     23  C   UNL     1      30.105 -22.799 -16.376  0.00  0.00    +0.017 C 
ATOM     24  C   UNL     1      29.538 -23.439 -15.267  0.00  0.00    +0.017 C 
ATOM     25  C   UNL     1      31.258 -25.172 -12.736  0.00  0.00    +0.182 C 
ATOM     26  H   UNL     1      33.250 -24.950 -13.377  0.00  0.00    +0.148 HD
ATOM     27  H   UNL     1      29.207 -24.939 -12.814  0.00  0.00    +0.148 HD
ENDBRANCH   5  20
BRANCH   7  28
ATOM     28  C   UNL     1      38.609 -24.600 -12.866  0.00  0.00    +0.037 C 
ATOM     29  C   UNL     1      39.865 -25.282 -13.320  0.00  0.00    +0.006 C 
ATOM     30  C   UNL     1      38.746 -26.089 -12.729  0.00  0.00    +0.006 C 
ENDBRANCH   7  28
TORSDOF 2
ENDMDL
MODEL 8
REMARK VINA RESULT:     -10.1      1.911      7.577
REMARK  Name = 42627755
REMARK  2 active torsions:
REMARK  status: ('A' for Active; 'I' for Inactive)
REMARK    1  A    between atoms: N_5  and  C_20
REMARK    2  A    between atoms: C_7  and  C_28
REMARK                            x       y       z     vdW  Elec       q    Type
REMARK                         _______ _______ _______ _____ _____    ______ ____
ROOT
ATOM      1  N   UNL     1      31.807 -23.898 -14.760  0.00  0.00    -0.239 N 
ATOM      2  N   UNL     1      32.892 -23.447 -15.410  0.00  0.00    -0.166 NA
ATOM      3  N   UNL     1      33.111 -22.322 -17.565  0.00  0.00    -0.271 N 
ATOM      4  N   UNL     1      35.355 -22.474 -16.782  0.00  0.00    -0.322 NA
ATOM      5  N   UNL     1      37.576 -22.602 -16.052  0.00  0.00    -0.247 N 
ATOM      6  N   UNL     1      37.154 -21.591 -18.121  0.00  0.00    -0.170 NA
ATOM      7  C   UNL     1      30.636 -23.688 -15.428  0.00  0.00    +0.045 C 
ATOM      8  C   UNL     1      30.981 -23.053 -16.596  0.00  0.00    +0.048 C 
ATOM      9  C   UNL     1      32.382 -22.932 -16.532  0.00  0.00    +0.152 C 
ATOM     10  C   UNL     1      34.495 -22.078 -17.744  0.00  0.00    +0.199 C 
ATOM     11  C   UNL     1      34.883 -21.442 -18.904  0.00  0.00    +0.070 C 
ATOM     12  C   UNL     1      36.651 -22.203 -17.032  0.00  0.00    +0.150 C 
ATOM     13  C   UNL     1      36.238 -21.223 -19.042  0.00  0.00    +0.116 C 
ATOM     14  H   UNL     1      31.851 -24.341 -13.881  0.00  0.00    +0.174 HD
ATOM     15  H   UNL     1      32.553 -22.002 -18.309  0.00  0.00    +0.156 HD
ATOM     16  H   UNL     1      38.509 -22.383 -16.276  0.00  0.00    +0.165 HD
ENDROOT
BRANCH   5  20
ATOM     17  N   UNL     1      35.463 -23.388 -11.654  0.00  0.00    -0.315 N 
ATOM     18  N   UNL     1      36.838 -25.047 -11.109  0.00  0.00    -0.315 N 
ATOM     19  C   UNL     1      36.315 -23.522 -12.719  0.00  0.00    +0.060 C 
ATOM     20  C   UNL     1      37.427 -23.254 -14.806  0.00  0.00    +0.059 C 
ATOM     21  C   UNL     1      37.163 -24.563 -12.356  0.00  0.00    +0.059 C 
ATOM     22  C   UNL     1      36.414 -22.842 -13.934  0.00  0.00    +0.031 C 
ATOM     23  C   UNL     1      38.294 -24.296 -14.469  0.00  0.00    +0.017 C 
ATOM     24  C   UNL     1      38.176 -24.964 -13.244  0.00  0.00    +0.017 C 
ATOM     25  C   UNL     1      35.816 -24.320 -10.718  0.00  0.00    +0.182 C 
ATOM     26  H   UNL     1      34.729 -22.737 -11.576  0.00  0.00    +0.148 HD
ATOM     27  H   UNL     1      37.276 -25.779 -10.618  0.00  0.00    +0.148 HD
ENDBRANCH   5  20
BRANCH   7  28
ATOM     28  C   UNL     1      29.240 -24.079 -14.965  0.00  0.00    +0.037 C 
ATOM     29  C   UNL     1      28.152 -24.213 -15.989  0.00  0.00    +0.006 C 
ATOM     30  C   UNL     1      28.144 -23.055 -15.035  0.00  0.00    +0.006 C 
ENDBRANCH   7  28
TORSDOF 2
ENDMDL
MODEL 9
REMARK VINA RESULT:      -9.5      1.507      2.143
REMARK  Name = 42627755
REMARK  2 active torsions:
REMARK  status: ('A' for Active; 'I' for Inactive)
REMARK    1  A    between atoms: N_5  and  C_20
REMARK    2  A    between atoms: C_7  and  C_28
REMARK                            x       y       z     vdW  Elec       q    Type
REMARK                         _______ _______ _______ _____ _____    ______ ____
ROOT
ATOM      1  N   UNL     1      36.081 -23.286 -13.734  0.00  0.00    -0.239 N 
ATOM      2  N   UNL     1      34.823 -23.285 -14.204  0.00  0.00    -0.166 NA
ATOM      3  N   UNL     1      32.741 -24.072 -13.201  0.00  0.00    -0.271 N 
ATOM      4  N   UNL     1      32.059 -23.242 -15.326  0.00  0.00    -0.322 NA
ATOM      5  N   UNL     1      31.345 -22.439 -17.407  0.00  0.00    -0.247 N 
ATOM      6  N   UNL     1      29.737 -23.342 -15.963  0.00  0.00    -0.170 NA
ATOM      7  C   UNL     1      36.203 -23.820 -12.485  0.00  0.00    +0.045 C 
ATOM      8  C   UNL     1      34.934 -24.194 -12.112  0.00  0.00    +0.048 C 
ATOM      9  C   UNL     1      34.126 -23.842 -13.209  0.00  0.00    +0.152 C 
ATOM     10  C   UNL     1      31.724 -23.818 -14.153  0.00  0.00    +0.199 C 
ATOM     11  C   UNL     1      30.435 -24.178 -13.817  0.00  0.00    +0.070 C 
ATOM     12  C   UNL     1      31.031 -23.036 -16.173  0.00  0.00    +0.150 C 
ATOM     13  C   UNL     1      29.473 -23.915 -14.770  0.00  0.00    +0.116 C 
ATOM     14  H   UNL     1      36.846 -22.933 -14.244  0.00  0.00    +0.174 HD
ATOM     15  H   UNL     1      32.414 -24.491 -12.373  0.00  0.00    +0.156 HD
ATOM     16  H   UNL     1      30.564 -22.307 -17.992  0.00  0.00    +0.165 HD
ENDROOT
BRANCH   5  20
ATOM     17  N   UNL     1      36.262 -22.010 -17.636  0.00  0.00    -0.315 N 
ATOM     18  N   UNL     1      36.230 -20.762 -19.474  0.00  0.00    -0.315 N 
ATOM     19  C   UNL     1      34.938 -21.866 -17.956  0.00  0.00    +0.060 C 
ATOM     20  C   UNL     1      32.562 -21.989 -17.970  0.00  0.00    +0.059 C 
ATOM     21  C   UNL     1      34.943 -21.083 -19.107  0.00  0.00    +0.059 C 
ATOM     22  C   UNL     1      33.770 -22.338 -17.357  0.00  0.00    +0.031 C 
ATOM     23  C   UNL     1      32.535 -21.206 -19.124  0.00  0.00    +0.017 C 
ATOM     24  C   UNL     1      33.720 -20.743 -19.710  0.00  0.00    +0.017 C 
ATOM     25  C   UNL     1      36.995 -21.333 -18.571  0.00  0.00    +0.182 C 
ATOM     26  H   UNL     1      36.623 -22.511 -16.869  0.00  0.00    +0.148 HD
ATOM     27  H   UNL     1      36.515 -20.222 -20.247  0.00  0.00    +0.148 HD
ENDBRANCH   5  20
BRANCH   7  28
ATOM     28  C   UNL     1      37.485 -23.968 -11.678  0.00  0.00    +0.037 C 
ATOM     29  C   UNL     1      38.634 -24.722 -12.280  0.00  0.00    +0.006 C 
ATOM     30  C   UNL     1      37.852 -25.324 -11.149  0.00  0.00    +0.006 C 
ENDBRANCH   7  28
TORSDOF 2
ENDMDL
