MODEL 1
REMARK VINA RESULT:     -12.2      0.000      0.000
REMARK  Name = 5289109
REMARK  6 active torsions:
REMARK  status: ('A' for Active; 'I' for Inactive)
REMARK    1  A    between atoms: C_3  and  C_9
REMARK    2  A    between atoms: C_4  and  C_21
REMARK    3  A    between atoms: N_8  and  C_11
REMARK    4  A    between atoms: C_11  and  C_12
REMARK    5  A    between atoms: N_20  and  C_23
REMARK    6  A    between atoms: C_23  and  C_24
REMARK                            x       y       z     vdW  Elec       q    Type
REMARK                         _______ _______ _______ _____ _____    ______ ____
ROOT
ATOM      1  N   UNL     1      34.695 -19.418 -23.176  0.00  0.00    -0.244 NA
ATOM      2  N   UNL     1      33.937 -17.742 -24.732  0.00  0.00    -0.244 NA
ATOM      3  C   UNL     1      35.118 -18.424 -22.368  0.00  0.00    +0.115 C 
ATOM      4  C   UNL     1      34.387 -16.830 -23.868  0.00  0.00    +0.115 C 
ATOM      5  C   UNL     1      34.988 -17.083 -22.670  0.00  0.00    +0.100 C 
ATOM      6  C   UNL     1      34.121 -19.012 -24.325  0.00  0.00    +0.250 C 
ENDROOT
BRANCH   3   9
ATOM      7  O   UNL     1      36.322 -18.014 -20.398  0.00  0.00    -0.269 OA
ATOM      8  N   UNL     1      35.631 -20.194 -20.780  0.00  0.00    -0.296 N 
ATOM      9  C   UNL     1      35.740 -18.841 -21.123  0.00  0.00    +0.260 C 
ATOM     10  H   UNL     1      35.158 -20.796 -21.399  0.00  0.00    +0.150 HD
BRANCH   8  11
ATOM     11  C   UNL     1      36.175 -20.757 -19.565  0.00  0.00    +0.117 C 
BRANCH  11  12
ATOM     12  C   UNL     1      35.119 -21.429 -18.735  0.00  0.00    -0.003 C 
ATOM     13  C   UNL     1      35.482 -22.099 -17.573  0.00  0.00    -0.007 C 
ATOM     14  C   UNL     1      34.501 -22.721 -16.801  0.00  0.00    -0.022 C 
ATOM     15  C   UNL     1      33.789 -21.373 -19.137  0.00  0.00    -0.003 C 
ATOM     16  C   UNL     1      33.164 -22.670 -17.197  0.00  0.00    -0.004 C 
ATOM     17  C   UNL     1      32.809 -21.995 -18.365  0.00  0.00    -0.001 C 
ATOM     18  C   UNL     1      34.881 -23.445 -15.553  0.00  0.00    +0.031 C 
ENDBRANCH  11  12
ENDBRANCH   8  11
ENDBRANCH   3   9
BRANCH   4  21
ATOM     19  O   UNL     1      33.941 -15.184 -25.477  0.00  0.00    -0.269 OA
ATOM     20  N   UNL     1      34.294 -14.462 -23.301  0.00  0.00    -0.296 N 
ATOM     21  C   UNL     1      34.194 -15.422 -24.298  0.00  0.00    +0.260 C 
ATOM     22  H   UNL     1      34.501 -14.752 -22.384  0.00  0.00    +0.150 HD
BRANCH  20  23
ATOM     23  C   UNL     1      34.106 -13.056 -23.557  0.00  0.00    +0.117 C 
BRANCH  23  24
ATOM     24  C   UNL     1      33.214 -12.411 -22.551  0.00  0.00    -0.003 C 
ATOM     25  C   UNL     1      32.818 -11.085 -22.720  0.00  0.00    -0.007 C 
ATOM     26  C   UNL     1      31.982 -10.480 -21.779  0.00  0.00    -0.022 C 
ATOM     27  C   UNL     1      32.776 -13.133 -21.441  0.00  0.00    -0.003 C 
ATOM     28  C   UNL     1      31.545 -11.204 -20.670  0.00  0.00    -0.004 C 
ATOM     29  C   UNL     1      31.941 -12.530 -20.500  0.00  0.00    -0.001 C 
ATOM     30  C   UNL     1      31.559  -9.062 -21.959  0.00  0.00    +0.031 C 
ENDBRANCH  23  24
ENDBRANCH  20  23
ENDBRANCH   4  21
TORSDOF 6
ENDMDL
MODEL 2
REMARK VINA RESULT:     -12.2      0.114      9.292
REMARK  Name = 5289109
REMARK  6 active torsions:
REMARK  status: ('A' for Active; 'I' for Inactive)
REMARK    1  A    between atoms: C_3  and  C_9
REMARK    2  A    between atoms: C_4  and  C_21
REMARK    3  A    between atoms: N_8  and  C_11
REMARK    4  A    between atoms: C_11  and  C_12
REMARK    5  A    between atoms: N_20  and  C_23
REMARK    6  A    between atoms: C_23  and  C_24
REMARK                            x       y       z     vdW  Elec       q    Type
REMARK                         _______ _______ _______ _____ _____    ______ ____
ROOT
ATOM      1  N   UNL     1      33.826 -17.664 -24.749  0.00  0.00    -0.244 NA
ATOM      2  N   UNL     1      34.598 -19.346 -23.208  0.00  0.00    -0.244 NA
ATOM      3  C   UNL     1      34.313 -16.725 -23.911  0.00  0.00    +0.115 C 
ATOM      4  C   UNL     1      35.046 -18.348 -22.444  0.00  0.00    +0.115 C 
ATOM      5  C   UNL     1      34.945 -17.016 -22.719  0.00  0.00    +0.100 C 
ATOM      6  C   UNL     1      34.001 -18.935 -24.342  0.00  0.00    +0.250 C 
ENDROOT
BRANCH   3   9
ATOM      7  O   UNL     1      33.889 -15.074 -25.521  0.00  0.00    -0.269 OA
ATOM      8  N   UNL     1      34.230 -14.361 -23.341  0.00  0.00    -0.296 N 
ATOM      9  C   UNL     1      34.135 -15.346 -24.332  0.00  0.00    +0.260 C 
ATOM     10  H   UNL     1      34.427 -14.645 -22.419  0.00  0.00    +0.150 HD
BRANCH   8  11
ATOM     11  C   UNL     1      34.054 -12.950 -23.597  0.00  0.00    +0.117 C 
BRANCH  11  12
ATOM     12  C   UNL     1      33.174 -12.297 -22.570  0.00  0.00    -0.003 C 
ATOM     13  C   UNL     1      32.804 -10.968 -22.727  0.00  0.00    -0.007 C 
ATOM     14  C   UNL     1      31.985 -10.362 -21.774  0.00  0.00    -0.022 C 
ATOM     15  C   UNL     1      32.738 -13.031 -21.472  0.00  0.00    -0.003 C 
ATOM     16  C   UNL     1      31.543 -11.091 -20.669  0.00  0.00    -0.004 C 
ATOM     17  C   UNL     1      31.919 -12.426 -20.519  0.00  0.00    -0.001 C 
ATOM     18  C   UNL     1      31.583  -8.934 -21.933  0.00  0.00    +0.031 C 
ENDBRANCH  11  12
ENDBRANCH   8  11
ENDBRANCH   3   9
BRANCH   4  21
ATOM     19  O   UNL     1      36.311 -17.951 -20.510  0.00  0.00    -0.269 OA
ATOM     20  N   UNL     1      35.568 -20.121 -20.856  0.00  0.00    -0.296 N 
ATOM     21  C   UNL     1      35.708 -18.780 -21.187  0.00  0.00    +0.260 C 
ATOM     22  H   UNL     1      35.065 -20.709 -21.465  0.00  0.00    +0.150 HD
BRANCH  20  23
ATOM     23  C   UNL     1      36.131 -20.686 -19.656  0.00  0.00    +0.117 C 
BRANCH  23  24
ATOM     24  C   UNL     1      35.104 -21.367 -18.815  0.00  0.00    -0.003 C 
ATOM     25  C   UNL     1      35.487 -22.031 -17.649  0.00  0.00    -0.007 C 
ATOM     26  C   UNL     1      34.527 -22.668 -16.861  0.00  0.00    -0.022 C 
ATOM     27  C   UNL     1      33.762 -21.341 -19.193  0.00  0.00    -0.003 C 
ATOM     28  C   UNL     1      33.185 -22.640 -17.240  0.00  0.00    -0.004 C 
ATOM     29  C   UNL     1      32.802 -21.977 -18.406  0.00  0.00    -0.001 C 
ATOM     30  C   UNL     1      34.936 -23.378 -15.615  0.00  0.00    +0.031 C 
ENDBRANCH  23  24
ENDBRANCH  20  23
ENDBRANCH   4  21
TORSDOF 6
ENDMDL
MODEL 3
REMARK VINA RESULT:     -11.7      2.104      9.946
REMARK  Name = 5289109
REMARK  6 active torsions:
REMARK  status: ('A' for Active; 'I' for Inactive)
REMARK    1  A    between atoms: C_3  and  C_9
REMARK    2  A    between atoms: C_4  and  C_21
REMARK    3  A    between atoms: N_8  and  C_11
REMARK    4  A    between atoms: C_11  and  C_12
REMARK    5  A    between atoms: N_20  and  C_23
REMARK    6  A    between atoms: C_23  and  C_24
REMARK                            x       y       z     vdW  Elec       q    Type
REMARK                         _______ _______ _______ _____ _____    ______ ____
ROOT
ATOM      1  N   UNL     1      33.042 -12.871 -23.905  0.00  0.00    -0.244 NA
ATOM      2  N   UNL     1      34.037 -14.755 -25.031  0.00  0.00    -0.244 NA
ATOM      3  C   UNL     1      33.195 -13.535 -22.740  0.00  0.00    +0.115 C 
ATOM      4  C   UNL     1      34.145 -15.331 -23.831  0.00  0.00    +0.115 C 
ATOM      5  C   UNL     1      33.751 -14.795 -22.641  0.00  0.00    +0.100 C 
ATOM      6  C   UNL     1      33.480 -13.531 -24.995  0.00  0.00    +0.250 C 
ENDROOT
BRANCH   3   9
ATOM      7  O   UNL     1      32.997 -13.279 -20.417  0.00  0.00    -0.269 OA
ATOM      8  N   UNL     1      31.999 -11.662 -21.747  0.00  0.00    -0.296 N 
ATOM      9  C   UNL     1      32.730 -12.841 -21.551  0.00  0.00    +0.260 C 
ATOM     10  H   UNL     1      31.822 -11.372 -22.671  0.00  0.00    +0.150 HD
BRANCH   8  11
ATOM     11  C   UNL     1      31.490 -10.848 -20.667  0.00  0.00    +0.117 C 
BRANCH  11  12
ATOM     12  C   UNL     1      31.772  -9.389 -20.882  0.00  0.00    -0.003 C 
ATOM     13  C   UNL     1      31.567  -8.827 -22.135  0.00  0.00    -0.007 C 
ATOM     14  C   UNL     1      31.826  -7.471 -22.334  0.00  0.00    -0.022 C 
ATOM     15  C   UNL     1      32.235  -8.616 -19.823  0.00  0.00    -0.003 C 
ATOM     16  C   UNL     1      32.292  -6.687 -21.278  0.00  0.00    -0.004 C 
ATOM     17  C   UNL     1      32.495  -7.260 -20.022  0.00  0.00    -0.001 C 
ATOM     18  C   UNL     1      31.610  -6.858 -23.677  0.00  0.00    +0.031 C 
ENDBRANCH  11  12
ENDBRANCH   8  11
ENDBRANCH   3   9
BRANCH   4  21
ATOM     19  O   UNL     1      34.686 -17.363 -24.871  0.00  0.00    -0.269 OA
ATOM     20  N   UNL     1      35.400 -17.076 -22.683  0.00  0.00    -0.296 N 
ATOM     21  C   UNL     1      34.757 -16.684 -23.849  0.00  0.00    +0.260 C 
ATOM     22  H   UNL     1      35.404 -16.460 -21.914  0.00  0.00    +0.150 HD
BRANCH  20  23
ATOM     23  C   UNL     1      36.064 -18.349 -22.553  0.00  0.00    +0.117 C 
BRANCH  23  24
ATOM     24  C   UNL     1      35.423 -19.219 -21.525  0.00  0.00    -0.003 C 
ATOM     25  C   UNL     1      36.209 -19.864 -20.571  0.00  0.00    -0.007 C 
ATOM     26  C   UNL     1      35.610 -20.679 -19.608  0.00  0.00    -0.022 C 
ATOM     27  C   UNL     1      34.039 -19.387 -21.517  0.00  0.00    -0.003 C 
ATOM     28  C   UNL     1      34.226 -20.846 -19.601  0.00  0.00    -0.004 C 
ATOM     29  C   UNL     1      33.439 -20.200 -20.555  0.00  0.00    -0.001 C 
ATOM     30  C   UNL     1      36.450 -21.370 -18.588  0.00  0.00    +0.031 C 
ENDBRANCH  23  24
ENDBRANCH  20  23
ENDBRANCH   4  21
TORSDOF 6
ENDMDL
MODEL 4
REMARK VINA RESULT:     -11.6      2.096      4.038
REMARK  Name = 5289109
REMARK  6 active torsions:
REMARK  status: ('A' for Active; 'I' for Inactive)
REMARK    1  A    between atoms: C_3  and  C_9
REMARK    2  A    between atoms: C_4  and  C_21
REMARK    3  A    between atoms: N_8  and  C_11
REMARK    4  A    between atoms: C_11  and  C_12
REMARK    5  A    between atoms: N_20  and  C_23
REMARK    6  A    between atoms: C_23  and  C_24
REMARK                            x       y       z     vdW  Elec       q    Type
REMARK                         _______ _______ _______ _____ _____    ______ ____
ROOT
ATOM      1  N   UNL     1      34.016 -14.742 -24.995  0.00  0.00    -0.244 NA
ATOM      2  N   UNL     1      33.011 -12.864 -23.869  0.00  0.00    -0.244 NA
ATOM      3  C   UNL     1      34.166 -15.335 -23.792  0.00  0.00    +0.115 C 
ATOM      4  C   UNL     1      33.202 -13.529 -22.728  0.00  0.00    +0.115 C 
ATOM      5  C   UNL     1      33.770 -14.763 -22.600  0.00  0.00    +0.100 C 
ATOM      6  C   UNL     1      33.439 -13.526 -24.960  0.00  0.00    +0.250 C 
ENDROOT
BRANCH   3   9
ATOM      7  O   UNL     1      34.758 -17.351 -24.834  0.00  0.00    -0.269 OA
ATOM      8  N   UNL     1      35.426 -17.063 -22.631  0.00  0.00    -0.296 N 
ATOM      9  C   UNL     1      34.786 -16.649 -23.807  0.00  0.00    +0.260 C 
ATOM     10  H   UNL     1      35.410 -16.459 -21.854  0.00  0.00    +0.150 HD
BRANCH   8  11
ATOM     11  C   UNL     1      36.108 -18.331 -22.497  0.00  0.00    +0.117 C 
BRANCH  11  12
ATOM     12  C   UNL     1      35.448 -19.219 -21.483  0.00  0.00    -0.003 C 
ATOM     13  C   UNL     1      36.221 -19.857 -20.521  0.00  0.00    -0.007 C 
ATOM     14  C   UNL     1      35.607 -20.681 -19.577  0.00  0.00    -0.022 C 
ATOM     15  C   UNL     1      34.069 -19.394 -21.516  0.00  0.00    -0.003 C 
ATOM     16  C   UNL     1      34.224 -20.863 -19.604  0.00  0.00    -0.004 C 
ATOM     17  C   UNL     1      33.455 -20.218 -20.573  0.00  0.00    -0.001 C 
ATOM     18  C   UNL     1      36.429 -21.372 -18.542  0.00  0.00    +0.031 C 
ENDBRANCH  11  12
ENDBRANCH   8  11
ENDBRANCH   3   9
BRANCH   4  21
ATOM     19  O   UNL     1      33.025 -13.266 -20.405  0.00  0.00    -0.269 OA
ATOM     20  N   UNL     1      32.014 -11.651 -21.728  0.00  0.00    -0.296 N 
ATOM     21  C   UNL     1      32.737 -12.816 -21.511  0.00  0.00    +0.260 C 
ATOM     22  H   UNL     1      31.833 -11.372 -22.655  0.00  0.00    +0.150 HD
BRANCH  20  23
ATOM     23  C   UNL     1      31.516 -10.835 -20.650  0.00  0.00    +0.117 C 
BRANCH  23  24
ATOM     24  C   UNL     1      31.777  -9.383 -20.871  0.00  0.00    -0.003 C 
ATOM     25  C   UNL     1      31.534  -8.815 -22.121  0.00  0.00    -0.007 C 
ATOM     26  C   UNL     1      31.777  -7.456 -22.329  0.00  0.00    -0.022 C 
ATOM     27  C   UNL     1      32.263  -8.594 -19.829  0.00  0.00    -0.003 C 
ATOM     28  C   UNL     1      32.263  -6.668 -21.286  0.00  0.00    -0.004 C 
ATOM     29  C   UNL     1      32.506  -7.237 -20.036  0.00  0.00    -0.001 C 
ATOM     30  C   UNL     1      31.519  -6.847 -23.666  0.00  0.00    +0.031 C 
ENDBRANCH  23  24
ENDBRANCH  20  23
ENDBRANCH   4  21
TORSDOF 6
ENDMDL
MODEL 5
REMARK VINA RESULT:     -11.5      2.706      5.499
REMARK  Name = 5289109
REMARK  6 active torsions:
REMARK  status: ('A' for Active; 'I' for Inactive)
REMARK    1  A    between atoms: C_3  and  C_9
REMARK    2  A    between atoms: C_4  and  C_21
REMARK    3  A    between atoms: N_8  and  C_11
REMARK    4  A    between atoms: C_11  and  C_12
REMARK    5  A    between atoms: N_20  and  C_23
REMARK    6  A    between atoms: C_23  and  C_24
REMARK                            x       y       z     vdW  Elec       q    Type
REMARK                         _______ _______ _______ _____ _____    ______ ____
ROOT
ATOM      1  N   UNL     1      32.963 -13.906 -22.466  0.00  0.00    -0.244 NA
ATOM      2  N   UNL     1      33.133 -11.503 -22.528  0.00  0.00    -0.244 NA
ATOM      3  C   UNL     1      33.760 -13.953 -23.554  0.00  0.00    +0.115 C 
ATOM      4  C   UNL     1      33.913 -11.652 -23.600  0.00  0.00    +0.115 C 
ATOM      5  C   UNL     1      34.275 -12.834 -24.176  0.00  0.00    +0.100 C 
ATOM      6  C   UNL     1      32.694 -12.667 -22.012  0.00  0.00    +0.250 C 
ENDROOT
BRANCH   3   9
ATOM      7  O   UNL     1      33.872 -15.561 -25.257  0.00  0.00    -0.269 OA
ATOM      8  N   UNL     1      34.592 -16.204 -23.148  0.00  0.00    -0.296 N 
ATOM      9  C   UNL     1      34.063 -15.281 -24.060  0.00  0.00    +0.260 C 
ATOM     10  H   UNL     1      34.717 -15.917 -22.215  0.00  0.00    +0.150 HD
BRANCH   8  11
ATOM     11  C   UNL     1      34.966 -17.554 -23.504  0.00  0.00    +0.117 C 
BRANCH  11  12
ATOM     12  C   UNL     1      35.328 -18.372 -22.298  0.00  0.00    -0.003 C 
ATOM     13  C   UNL     1      34.355 -19.142 -21.673  0.00  0.00    -0.007 C 
ATOM     14  C   UNL     1      34.692 -19.905 -20.554  0.00  0.00    -0.022 C 
ATOM     15  C   UNL     1      36.633 -18.352 -21.820  0.00  0.00    -0.003 C 
ATOM     16  C   UNL     1      35.999 -19.890 -20.068  0.00  0.00    -0.004 C 
ATOM     17  C   UNL     1      36.970 -19.114 -20.702  0.00  0.00    -0.001 C 
ATOM     18  C   UNL     1      33.654 -20.733 -19.876  0.00  0.00    +0.031 C 
ENDBRANCH  11  12
ENDBRANCH   8  11
ENDBRANCH   3   9
BRANCH   4  21
ATOM     19  O   UNL     1      34.888 -10.385 -25.316  0.00  0.00    -0.269 OA
ATOM     20  N   UNL     1      34.262  -9.249 -23.394  0.00  0.00    -0.296 N 
ATOM     21  C   UNL     1      34.408 -10.380 -24.185  0.00  0.00    +0.260 C 
ATOM     22  H   UNL     1      33.865  -9.346 -22.498  0.00  0.00    +0.150 HD
BRANCH  20  23
ATOM     23  C   UNL     1      34.671  -7.938 -23.831  0.00  0.00    +0.117 C 
BRANCH  23  24
ATOM     24  C   UNL     1      33.837  -6.856 -23.232  0.00  0.00    -0.003 C 
ATOM     25  C   UNL     1      33.334  -6.999 -21.939  0.00  0.00    -0.007 C 
ATOM     26  C   UNL     1      32.554  -5.986 -21.378  0.00  0.00    -0.022 C 
ATOM     27  C   UNL     1      33.561  -5.701 -23.964  0.00  0.00    -0.003 C 
ATOM     28  C   UNL     1      32.280  -4.832 -22.110  0.00  0.00    -0.004 C 
ATOM     29  C   UNL     1      32.783  -4.688 -23.403  0.00  0.00    -0.001 C 
ATOM     30  C   UNL     1      32.015  -6.139 -19.996  0.00  0.00    +0.031 C 
ENDBRANCH  23  24
ENDBRANCH  20  23
ENDBRANCH   4  21
TORSDOF 6
ENDMDL
MODEL 6
REMARK VINA RESULT:     -11.5      2.670     10.856
REMARK  Name = 5289109
REMARK  6 active torsions:
REMARK  status: ('A' for Active; 'I' for Inactive)
REMARK    1  A    between atoms: C_3  and  C_9
REMARK    2  A    between atoms: C_4  and  C_21
REMARK    3  A    between atoms: N_8  and  C_11
REMARK    4  A    between atoms: C_11  and  C_12
REMARK    5  A    between atoms: N_20  and  C_23
REMARK    6  A    between atoms: C_23  and  C_24
REMARK                            x       y       z     vdW  Elec       q    Type
REMARK                         _______ _______ _______ _____ _____    ______ ____
ROOT
ATOM      1  N   UNL     1      33.155 -11.594 -22.500  0.00  0.00    -0.244 NA
ATOM      2  N   UNL     1      33.031 -13.999 -22.424  0.00  0.00    -0.244 NA
ATOM      3  C   UNL     1      33.920 -11.706 -23.606  0.00  0.00    +0.115 C 
ATOM      4  C   UNL     1      33.792 -14.008 -23.520  0.00  0.00    +0.115 C 
ATOM      5  C   UNL     1      34.278 -12.913 -24.172  0.00  0.00    +0.100 C 
ATOM      6  C   UNL     1      32.751 -12.764 -21.969  0.00  0.00    +0.250 C 
ENDROOT
BRANCH   3   9
ATOM      7  O   UNL     1      34.712 -10.407 -25.391  0.00  0.00    -0.269 OA
ATOM      8  N   UNL     1      34.366  -9.326 -23.368  0.00  0.00    -0.296 N 
ATOM      9  C   UNL     1      34.367 -10.456 -24.196  0.00  0.00    +0.260 C 
ATOM     10  H   UNL     1      34.081  -9.434 -22.432  0.00  0.00    +0.150 HD
BRANCH   8  11
ATOM     11  C   UNL     1      34.759  -8.008 -23.814  0.00  0.00    +0.117 C 
BRANCH  11  12
ATOM     12  C   UNL     1      33.921  -6.930 -23.190  0.00  0.00    -0.003 C 
ATOM     13  C   UNL     1      33.387  -7.122 -21.922  0.00  0.00    -0.007 C 
ATOM     14  C   UNL     1      32.609  -6.120 -21.342  0.00  0.00    -0.022 C 
ATOM     15  C   UNL     1      33.687  -5.751 -23.888  0.00  0.00    -0.003 C 
ATOM     16  C   UNL     1      32.370  -4.933 -22.035  0.00  0.00    -0.004 C 
ATOM     17  C   UNL     1      32.909  -4.749 -23.308  0.00  0.00    -0.001 C 
ATOM     18  C   UNL     1      32.031  -6.317 -19.981  0.00  0.00    +0.031 C 
ENDBRANCH  11  12
ENDBRANCH   8  11
ENDBRANCH   3   9
BRANCH   4  21
ATOM     19  O   UNL     1      33.943 -15.605 -25.231  0.00  0.00    -0.269 OA
ATOM     20  N   UNL     1      34.618 -16.264 -23.112  0.00  0.00    -0.296 N 
ATOM     21  C   UNL     1      34.114 -15.362 -24.038  0.00  0.00    +0.260 C 
ATOM     22  H   UNL     1      34.719 -15.975 -22.176  0.00  0.00    +0.150 HD
BRANCH  20  23
ATOM     23  C   UNL     1      35.000 -17.608 -23.466  0.00  0.00    +0.117 C 
BRANCH  23  24
ATOM     24  C   UNL     1      35.332 -18.436 -22.271  0.00  0.00    -0.003 C 
ATOM     25  C   UNL     1      34.334 -19.176 -21.637  0.00  0.00    -0.007 C 
ATOM     26  C   UNL     1      34.644 -19.952 -20.519  0.00  0.00    -0.022 C 
ATOM     27  C   UNL     1      36.640 -18.471 -21.787  0.00  0.00    -0.003 C 
ATOM     28  C   UNL     1      35.952 -19.987 -20.036  0.00  0.00    -0.004 C 
ATOM     29  C   UNL     1      36.950 -19.246 -20.670  0.00  0.00    -0.001 C 
ATOM     30  C   UNL     1      33.578 -20.743 -19.840  0.00  0.00    +0.031 C 
ENDBRANCH  23  24
ENDBRANCH  20  23
ENDBRANCH   4  21
TORSDOF 6
ENDMDL
MODEL 7
REMARK VINA RESULT:     -11.4      6.010      9.956
REMARK  Name = 5289109
REMARK  6 active torsions:
REMARK  status: ('A' for Active; 'I' for Inactive)
REMARK    1  A    between atoms: C_3  and  C_9
REMARK    2  A    between atoms: C_4  and  C_21
REMARK    3  A    between atoms: N_8  and  C_11
REMARK    4  A    between atoms: C_11  and  C_12
REMARK    5  A    between atoms: N_20  and  C_23
REMARK    6  A    between atoms: C_23  and  C_24
REMARK                            x       y       z     vdW  Elec       q    Type
REMARK                         _______ _______ _______ _____ _____    ______ ____
ROOT
ATOM      1  N   UNL     1      32.967 -24.541 -12.667  0.00  0.00    -0.244 NA
ATOM      2  N   UNL     1      31.354 -24.013 -14.377  0.00  0.00    -0.244 NA
ATOM      3  C   UNL     1      33.913 -23.955 -13.432  0.00  0.00    +0.115 C 
ATOM      4  C   UNL     1      32.356 -23.456 -15.060  0.00  0.00    +0.115 C 
ATOM      5  C   UNL     1      33.659 -23.385 -14.663  0.00  0.00    +0.100 C 
ATOM      6  C   UNL     1      31.728 -24.533 -13.193  0.00  0.00    +0.250 C 
ENDROOT
BRANCH   3   9
ATOM      7  O   UNL     1      36.037 -23.011 -13.121  0.00  0.00    -0.269 OA
ATOM      8  N   UNL     1      35.615 -25.033 -12.067  0.00  0.00    -0.296 N 
ATOM      9  C   UNL     1      35.258 -23.951 -12.883  0.00  0.00    +0.260 C 
ATOM     10  H   UNL     1      34.951 -25.744 -11.919  0.00  0.00    +0.150 HD
BRANCH   8  11
ATOM     11  C   UNL     1      36.906 -25.161 -11.429  0.00  0.00    +0.117 C 
BRANCH  11  12
ATOM     12  C   UNL     1      37.925 -25.779 -12.342  0.00  0.00    -0.003 C 
ATOM     13  C   UNL     1      37.788 -27.107 -12.727  0.00  0.00    -0.007 C 
ATOM     14  C   UNL     1      38.733 -27.680 -13.578  0.00  0.00    -0.022 C 
ATOM     15  C   UNL     1      38.995 -25.015 -12.795  0.00  0.00    -0.003 C 
ATOM     16  C   UNL     1      39.810 -26.921 -14.036  0.00  0.00    -0.004 C 
ATOM     17  C   UNL     1      39.941 -25.588 -13.644  0.00  0.00    -0.001 C 
ATOM     18  C   UNL     1      38.595 -29.105 -13.995  0.00  0.00    +0.031 C 
ENDBRANCH  11  12
ENDBRANCH   8  11
ENDBRANCH   3   9
BRANCH   4  21
ATOM     19  O   UNL     1      30.774 -22.696 -16.615  0.00  0.00    -0.269 OA
ATOM     20  N   UNL     1      33.007 -22.552 -17.227  0.00  0.00    -0.296 N 
ATOM     21  C   UNL     1      31.965 -22.876 -16.369  0.00  0.00    +0.260 C 
ATOM     22  H   UNL     1      33.931 -22.735 -16.940  0.00  0.00    +0.150 HD
BRANCH  20  23
ATOM     23  C   UNL     1      32.789 -21.959 -18.522  0.00  0.00    +0.117 C 
BRANCH  23  24
ATOM     24  C   UNL     1      34.029 -21.345 -19.079  0.00  0.00    -0.003 C 
ATOM     25  C   UNL     1      33.939 -20.391 -20.093  0.00  0.00    -0.007 C 
ATOM     26  C   UNL     1      35.099 -19.815 -20.615  0.00  0.00    -0.022 C 
ATOM     27  C   UNL     1      35.278 -21.723 -18.587  0.00  0.00    -0.003 C 
ATOM     28  C   UNL     1      36.347 -20.194 -20.121  0.00  0.00    -0.004 C 
ATOM     29  C   UNL     1      36.437 -21.148 -19.108  0.00  0.00    -0.001 C 
ATOM     30  C   UNL     1      35.003 -18.796 -21.699  0.00  0.00    +0.031 C 
ENDBRANCH  23  24
ENDBRANCH  20  23
ENDBRANCH   4  21
TORSDOF 6
ENDMDL
MODEL 8
REMARK VINA RESULT:     -11.4      5.955     12.724
REMARK  Name = 5289109
REMARK  6 active torsions:
REMARK  status: ('A' for Active; 'I' for Inactive)
REMARK    1  A    between atoms: C_3  and  C_9
REMARK    2  A    between atoms: C_4  and  C_21
REMARK    3  A    between atoms: N_8  and  C_11
REMARK    4  A    between atoms: C_11  and  C_12
REMARK    5  A    between atoms: N_20  and  C_23
REMARK    6  A    between atoms: C_23  and  C_24
REMARK                            x       y       z     vdW  Elec       q    Type
REMARK                         _______ _______ _______ _____ _____    ______ ____
ROOT
ATOM      1  N   UNL     1      31.246 -24.032 -14.563  0.00  0.00    -0.244 NA
ATOM      2  N   UNL     1      32.827 -24.601 -12.837  0.00  0.00    -0.244 NA
ATOM      3  C   UNL     1      32.245 -23.405 -15.219  0.00  0.00    +0.115 C 
ATOM      4  C   UNL     1      33.747 -23.956 -13.558  0.00  0.00    +0.115 C 
ATOM      5  C   UNL     1      33.542 -23.332 -14.753  0.00  0.00    +0.100 C 
ATOM      6  C   UNL     1      31.603 -24.601 -13.396  0.00  0.00    +0.250 C 
ENDROOT
BRANCH   3   9
ATOM      7  O   UNL     1      30.691 -22.540 -16.748  0.00  0.00    -0.269 OA
ATOM      8  N   UNL     1      32.927 -22.461 -17.356  0.00  0.00    -0.296 N 
ATOM      9  C   UNL     1      31.881 -22.784 -16.482  0.00  0.00    +0.260 C 
ATOM     10  H   UNL     1      33.847 -22.682 -17.084  0.00  0.00    +0.150 HD
BRANCH   8  11
ATOM     11  C   UNL     1      32.730 -21.820 -18.636  0.00  0.00    +0.117 C 
BRANCH  11  12
ATOM     12  C   UNL     1      34.005 -21.243 -19.178  0.00  0.00    -0.003 C 
ATOM     13  C   UNL     1      33.954 -20.293 -20.191  0.00  0.00    -0.007 C 
ATOM     14  C   UNL     1      35.139 -19.755 -20.693  0.00  0.00    -0.022 C 
ATOM     15  C   UNL     1      35.225 -21.664 -18.661  0.00  0.00    -0.003 C 
ATOM     16  C   UNL     1      36.367 -20.172 -20.180  0.00  0.00    -0.004 C 
ATOM     17  C   UNL     1      36.410 -21.127 -19.163  0.00  0.00    -0.001 C 
ATOM     18  C   UNL     1      35.094 -18.735 -21.781  0.00  0.00    +0.031 C 
ENDBRANCH  11  12
ENDBRANCH   8  11
ENDBRANCH   3   9
BRANCH   4  21
ATOM     19  O   UNL     1      35.882 -23.037 -13.248  0.00  0.00    -0.269 OA
ATOM     20  N   UNL     1      35.389 -24.974 -12.072  0.00  0.00    -0.296 N 
ATOM     21  C   UNL     1      35.105 -23.944 -12.958  0.00  0.00    +0.260 C 
ATOM     22  H   UNL     1      34.699 -25.656 -11.903  0.00  0.00    +0.150 HD
BRANCH  20  23
ATOM     23  C   UNL     1      36.653 -25.086 -11.390  0.00  0.00    +0.117 C 
BRANCH  23  24
ATOM     24  C   UNL     1      37.712 -25.686 -12.253  0.00  0.00    -0.003 C 
ATOM     25  C   UNL     1      37.603 -27.013 -12.668  0.00  0.00    -0.007 C 
ATOM     26  C   UNL     1      38.592 -27.575 -13.477  0.00  0.00    -0.022 C 
ATOM     27  C   UNL     1      38.809 -24.920 -12.646  0.00  0.00    -0.003 C 
ATOM     28  C   UNL     1      39.689 -26.808 -13.869  0.00  0.00    -0.004 C 
ATOM     29  C   UNL     1      39.798 -25.481 -13.454  0.00  0.00    -0.001 C 
ATOM     30  C   UNL     1      38.477 -28.994 -13.920  0.00  0.00    +0.031 C 
ENDBRANCH  23  24
ENDBRANCH  20  23
ENDBRANCH   4  21
TORSDOF 6
ENDMDL
MODEL 9
REMARK VINA RESULT:     -11.4      5.792      9.298
REMARK  Name = 5289109
REMARK  6 active torsions:
REMARK  status: ('A' for Active; 'I' for Inactive)
REMARK    1  A    between atoms: C_3  and  C_9
REMARK    2  A    between atoms: C_4  and  C_21
REMARK    3  A    between atoms: N_8  and  C_11
REMARK    4  A    between atoms: C_11  and  C_12
REMARK    5  A    between atoms: N_20  and  C_23
REMARK    6  A    between atoms: C_23  and  C_24
REMARK                            x       y       z     vdW  Elec       q    Type
REMARK                         _______ _______ _______ _____ _____    ______ ____
ROOT
ATOM      1  N   UNL     1      36.589 -24.464 -13.260  0.00  0.00    -0.244 NA
ATOM      2  N   UNL     1      37.961 -23.449 -14.960  0.00  0.00    -0.244 NA
ATOM      3  C   UNL     1      35.591 -23.632 -13.621  0.00  0.00    +0.115 C 
ATOM      4  C   UNL     1      36.916 -22.669 -15.245  0.00  0.00    +0.115 C 
ATOM      5  C   UNL     1      35.701 -22.694 -14.628  0.00  0.00    +0.100 C 
ATOM      6  C   UNL     1      37.730 -24.321 -13.961  0.00  0.00    +0.250 C 
ENDROOT
BRANCH   3   9
ATOM      7  O   UNL     1      34.319 -24.415 -11.813  0.00  0.00    -0.269 OA
ATOM      8  N   UNL     1      33.220 -23.130 -13.400  0.00  0.00    -0.296 N 
ATOM      9  C   UNL     1      34.351 -23.770 -12.877  0.00  0.00    +0.260 C 
ATOM     10  H   UNL     1      33.314 -22.636 -14.246  0.00  0.00    +0.150 HD
BRANCH   8  11
ATOM     11  C   UNL     1      31.922 -23.154 -12.765  0.00  0.00    +0.117 C 
BRANCH  11  12
ATOM     12  C   UNL     1      30.865 -23.719 -13.669  0.00  0.00    -0.003 C 
ATOM     13  C   UNL     1      30.063 -22.860 -14.409  0.00  0.00    -0.007 C 
ATOM     14  C   UNL     1      29.082 -23.385 -15.251  0.00  0.00    -0.022 C 
ATOM     15  C   UNL     1      30.699 -25.097 -13.756  0.00  0.00    -0.003 C 
ATOM     16  C   UNL     1      28.908 -24.766 -15.344  0.00  0.00    -0.004 C 
ATOM     17  C   UNL     1      29.718 -25.622 -14.597  0.00  0.00    -0.001 C 
ATOM     18  C   UNL     1      28.215 -22.469 -16.049  0.00  0.00    +0.031 C 
ENDBRANCH  11  12
ENDBRANCH   8  11
ENDBRANCH   3   9
BRANCH   4  21
ATOM     19  O   UNL     1      37.841 -20.705 -16.132  0.00  0.00    -0.269 OA
ATOM     20  N   UNL     1      36.575 -22.014 -17.568  0.00  0.00    -0.296 N 
ATOM     21  C   UNL     1      37.151 -21.699 -16.345  0.00  0.00    +0.260 C 
ATOM     22  H   UNL     1      36.037 -22.836 -17.640  0.00  0.00    +0.150 HD
BRANCH  20  23
ATOM     23  C   UNL     1      36.733 -21.186 -18.736  0.00  0.00    +0.117 C 
BRANCH  23  24
ATOM     24  C   UNL     1      35.429 -20.877 -19.392  0.00  0.00    -0.003 C 
ATOM     25  C   UNL     1      35.402 -20.137 -20.574  0.00  0.00    -0.007 C 
ATOM     26  C   UNL     1      34.183 -19.847 -21.188  0.00  0.00    -0.022 C 
ATOM     27  C   UNL     1      34.238 -21.327 -18.824  0.00  0.00    -0.003 C 
ATOM     28  C   UNL     1      32.992 -20.299 -20.620  0.00  0.00    -0.004 C 
ATOM     29  C   UNL     1      33.019 -21.039 -19.438  0.00  0.00    -0.001 C 
ATOM     30  C   UNL     1      34.153 -19.056 -22.452  0.00  0.00    +0.031 C 
ENDBRANCH  23  24
ENDBRANCH  20  23
ENDBRANCH   4  21
TORSDOF 6
ENDMDL
