MODEL 1
REMARK VINA RESULT:     -12.4      0.000      0.000
REMARK  Name = 17748441
REMARK  5 active torsions:
REMARK  status: ('A' for Active; 'I' for Inactive)
REMARK    1  A    between atoms: C_2  and  N_10
REMARK    2  A    between atoms: C_3  and  O_24
REMARK    3  A    between atoms: C_12  and  C_16
REMARK    4  A    between atoms: C_16  and  C_18
REMARK    5  A    between atoms: O_24  and  C_27
REMARK                            x       y       z     vdW  Elec       q    Type
REMARK                         _______ _______ _______ _____ _____    ______ ____
ROOT
ATOM      1  F   UNL     1      33.625 -11.155 -24.019  0.00  0.00    -0.201 F 
ATOM      2  C   UNL     1      33.706 -13.762 -21.484  0.00  0.00    +0.054 C 
ATOM      3  C   UNL     1      32.318 -11.411 -22.056  0.00  0.00    +0.173 C 
ATOM      4  C   UNL     1      34.017 -13.029 -22.630  0.00  0.00    +0.047 C 
ATOM      5  C   UNL     1      32.701 -13.318 -20.625  0.00  0.00    +0.018 C 
ATOM      6  C   UNL     1      33.322 -11.854 -22.916  0.00  0.00    +0.176 C 
ATOM      7  C   UNL     1      32.007 -12.142 -20.911  0.00  0.00    +0.041 C 
ENDROOT
BRANCH   2  10
ATOM      8  O   UNL     1      35.906 -18.449 -23.153  0.00  0.00    -0.274 OA
ATOM      9  O   UNL     1      34.559 -16.006 -23.289  0.00  0.00    -0.252 OA
ATOM     10  N   UNL     1      34.410 -14.954 -21.193  0.00  0.00    -0.268 N 
ATOM     11  N   UNL     1      35.470 -16.986 -21.390  0.00  0.00    -0.239 N 
ATOM     12  C   UNL     1      35.984 -18.152 -21.964  0.00  0.00    +0.234 C 
ATOM     13  C   UNL     1      34.781 -15.969 -22.081  0.00  0.00    +0.310 C 
ATOM     14  H   UNL     1      34.668 -15.085 -20.252  0.00  0.00    +0.156 HD
ATOM     15  H   UNL     1      35.598 -16.865 -20.421  0.00  0.00    +0.159 HD
BRANCH  12  16
ATOM     16  C   UNL     1      36.663 -19.024 -20.925  0.00  0.00    +0.112 C 
BRANCH  16  18
ATOM     17  F   UNL     1      33.110 -22.486 -18.253  0.00  0.00    -0.204 F 
ATOM     18  C   UNL     1      35.713 -19.948 -20.210  0.00  0.00    -0.013 C 
ATOM     19  C   UNL     1      36.205 -20.896 -19.314  0.00  0.00    -0.001 C 
ATOM     20  C   UNL     1      34.341 -19.858 -20.446  0.00  0.00    -0.001 C 
ATOM     21  C   UNL     1      35.326 -21.753 -18.652  0.00  0.00    +0.029 C 
ATOM     22  C   UNL     1      33.462 -20.716 -19.785  0.00  0.00    +0.029 C 
ATOM     23  C   UNL     1      33.954 -21.663 -18.888  0.00  0.00    +0.140 C 
ENDBRANCH  16  18
ENDBRANCH  12  16
ENDBRANCH   2  10
BRANCH   3  24
ATOM     24  O   UNL     1      31.642 -10.262 -22.334  0.00  0.00    -0.451 OA
BRANCH  24  27
ATOM     25  N   UNL     1      33.501  -6.639 -21.392  0.00  0.00    -0.229 NA
ATOM     26  N   UNL     1      33.048  -7.024 -19.085  0.00  0.00    -0.343 N 
ATOM     27  C   UNL     1      32.257  -9.062 -22.022  0.00  0.00    +0.150 C 
ATOM     28  C   UNL     1      32.343  -8.644 -20.698  0.00  0.00    +0.071 C 
ATOM     29  C   UNL     1      32.793  -8.269 -23.030  0.00  0.00    +0.058 C 
ATOM     30  C   UNL     1      32.969  -7.435 -20.439  0.00  0.00    +0.128 C 
ATOM     31  C   UNL     1      33.399  -7.077 -22.667  0.00  0.00    +0.103 C 
ATOM     32  H   UNL     1      33.485  -6.172 -18.854  0.00  0.00    +0.144 HD
ATOM     33  H   UNL     1      32.667  -7.590 -18.375  0.00  0.00    +0.144 HD
ENDBRANCH  24  27
ENDBRANCH   3  24
TORSDOF 5
ENDMDL
MODEL 2
REMARK VINA RESULT:     -12.1      0.974      1.967
REMARK  Name = 17748441
REMARK  5 active torsions:
REMARK  status: ('A' for Active; 'I' for Inactive)
REMARK    1  A    between atoms: C_2  and  N_10
REMARK    2  A    between atoms: C_3  and  O_24
REMARK    3  A    between atoms: C_12  and  C_16
REMARK    4  A    between atoms: C_16  and  C_18
REMARK    5  A    between atoms: O_24  and  C_27
REMARK                            x       y       z     vdW  Elec       q    Type
REMARK                         _______ _______ _______ _____ _____    ______ ____
ROOT
ATOM      1  F   UNL     1      31.100 -11.643 -20.618  0.00  0.00    -0.201 F 
ATOM      2  C   UNL     1      33.865 -13.720 -21.746  0.00  0.00    +0.054 C 
ATOM      3  C   UNL     1      32.597 -11.331 -22.432  0.00  0.00    +0.173 C 
ATOM      4  C   UNL     1      32.777 -13.267 -20.999  0.00  0.00    +0.047 C 
ATOM      5  C   UNL     1      34.318 -12.977 -22.837  0.00  0.00    +0.018 C 
ATOM      6  C   UNL     1      32.144 -12.073 -21.342  0.00  0.00    +0.176 C 
ATOM      7  C   UNL     1      33.684 -11.783 -23.180  0.00  0.00    +0.041 C 
ENDROOT
BRANCH   2  10
ATOM      8  O   UNL     1      35.701 -18.641 -23.163  0.00  0.00    -0.274 OA
ATOM      9  O   UNL     1      34.499 -16.132 -23.418  0.00  0.00    -0.252 OA
ATOM     10  N   UNL     1      34.508 -14.931 -21.399  0.00  0.00    -0.268 N 
ATOM     11  N   UNL     1      35.434 -17.035 -21.493  0.00  0.00    -0.239 N 
ATOM     12  C   UNL     1      35.850 -18.267 -22.002  0.00  0.00    +0.234 C 
ATOM     13  C   UNL     1      34.777 -16.026 -22.226  0.00  0.00    +0.310 C 
ATOM     14  H   UNL     1      34.800 -15.012 -20.462  0.00  0.00    +0.156 HD
ATOM     15  H   UNL     1      35.613 -16.856 -20.541  0.00  0.00    +0.159 HD
BRANCH  12  16
ATOM     16  C   UNL     1      36.521 -19.107 -20.931  0.00  0.00    +0.112 C 
BRANCH  16  18
ATOM     17  F   UNL     1      32.962 -22.541 -18.232  0.00  0.00    -0.204 F 
ATOM     18  C   UNL     1      35.570 -20.025 -20.210  0.00  0.00    -0.013 C 
ATOM     19  C   UNL     1      34.195 -19.885 -20.391  0.00  0.00    -0.001 C 
ATOM     20  C   UNL     1      36.064 -21.015 -19.361  0.00  0.00    -0.001 C 
ATOM     21  C   UNL     1      33.313 -20.735 -19.723  0.00  0.00    +0.029 C 
ATOM     22  C   UNL     1      35.184 -21.865 -18.692  0.00  0.00    +0.029 C 
ATOM     23  C   UNL     1      33.808 -21.726 -18.873  0.00  0.00    +0.140 C 
ENDBRANCH  16  18
ENDBRANCH  12  16
ENDBRANCH   2  10
BRANCH   3  24
ATOM     24  O   UNL     1      31.977 -10.167 -22.769  0.00  0.00    -0.451 OA
BRANCH  24  27
ATOM     25  N   UNL     1      33.702  -6.596 -21.447  0.00  0.00    -0.229 NA
ATOM     26  N   UNL     1      34.788  -6.358 -23.555  0.00  0.00    -0.343 N 
ATOM     27  C   UNL     1      32.550  -8.984 -22.331  0.00  0.00    +0.150 C 
ATOM     28  C   UNL     1      33.388  -8.261 -23.172  0.00  0.00    +0.071 C 
ATOM     29  C   UNL     1      32.287  -8.514 -21.049  0.00  0.00    +0.058 C 
ATOM     30  C   UNL     1      33.935  -7.083 -22.686  0.00  0.00    +0.128 C 
ATOM     31  C   UNL     1      32.882  -7.326 -20.658  0.00  0.00    +0.103 C 
ATOM     32  H   UNL     1      35.198  -5.516 -23.252  0.00  0.00    +0.144 HD
ATOM     33  H   UNL     1      34.969  -6.696 -24.462  0.00  0.00    +0.144 HD
ENDBRANCH  24  27
ENDBRANCH   3  24
TORSDOF 5
ENDMDL
MODEL 3
REMARK VINA RESULT:     -12.0      4.098     10.828
REMARK  Name = 17748441
REMARK  5 active torsions:
REMARK  status: ('A' for Active; 'I' for Inactive)
REMARK    1  A    between atoms: C_2  and  N_10
REMARK    2  A    between atoms: C_3  and  O_24
REMARK    3  A    between atoms: C_12  and  C_16
REMARK    4  A    between atoms: C_16  and  C_18
REMARK    5  A    between atoms: O_24  and  C_27
REMARK                            x       y       z     vdW  Elec       q    Type
REMARK                         _______ _______ _______ _____ _____    ______ ____
ROOT
ATOM      1  F   UNL     1      36.477 -22.215 -18.196  0.00  0.00    -0.201 F 
ATOM      2  C   UNL     1      34.506 -19.904 -20.196  0.00  0.00    +0.054 C 
ATOM      3  C   UNL     1      34.170 -22.263 -18.746  0.00  0.00    +0.173 C 
ATOM      4  C   UNL     1      35.595 -20.484 -19.546  0.00  0.00    +0.047 C 
ATOM      5  C   UNL     1      33.249 -20.504 -20.121  0.00  0.00    +0.018 C 
ATOM      6  C   UNL     1      35.427 -21.664 -18.820  0.00  0.00    +0.176 C 
ATOM      7  C   UNL     1      33.081 -21.684 -19.396  0.00  0.00    +0.041 C 
ENDROOT
BRANCH   2  10
ATOM      8  O   UNL     1      34.615 -17.298 -24.970  0.00  0.00    -0.274 OA
ATOM      9  O   UNL     1      34.356 -19.404 -23.153  0.00  0.00    -0.252 OA
ATOM     10  N   UNL     1      34.676 -18.708 -20.932  0.00  0.00    -0.268 N 
ATOM     11  N   UNL     1      34.827 -17.186 -22.650  0.00  0.00    -0.239 N 
ATOM     12  C   UNL     1      34.824 -16.657 -23.943  0.00  0.00    +0.234 C 
ATOM     13  C   UNL     1      34.594 -18.535 -22.317  0.00  0.00    +0.310 C 
ATOM     14  H   UNL     1      34.876 -17.901 -20.405  0.00  0.00    +0.156 HD
ATOM     15  H   UNL     1      35.009 -16.563 -21.908  0.00  0.00    +0.159 HD
BRANCH  12  16
ATOM     16  C   UNL     1      35.114 -15.168 -23.929  0.00  0.00    +0.112 C 
BRANCH  16  18
ATOM     17  F   UNL     1      31.968 -12.314 -20.227  0.00  0.00    -0.204 F 
ATOM     18  C   UNL     1      34.273 -14.405 -22.940  0.00  0.00    -0.013 C 
ATOM     19  C   UNL     1      33.254 -13.567 -23.391  0.00  0.00    -0.001 C 
ATOM     20  C   UNL     1      34.513 -14.537 -21.572  0.00  0.00    -0.001 C 
ATOM     21  C   UNL     1      32.475 -12.861 -22.474  0.00  0.00    +0.029 C 
ATOM     22  C   UNL     1      33.735 -13.830 -20.656  0.00  0.00    +0.029 C 
ATOM     23  C   UNL     1      32.715 -12.992 -21.106  0.00  0.00    +0.140 C 
ENDBRANCH  16  18
ENDBRANCH  12  16
ENDBRANCH   2  10
BRANCH   3  24
ATOM     24  O   UNL     1      34.006 -23.416 -18.039  0.00  0.00    -0.451 OA
BRANCH  24  27
ATOM     25  N   UNL     1      32.628 -23.101 -14.106  0.00  0.00    -0.229 NA
ATOM     26  N   UNL     1      34.873 -23.260 -13.323  0.00  0.00    -0.343 N 
ATOM     27  C   UNL     1      33.550 -23.312 -16.736  0.00  0.00    +0.150 C 
ATOM     28  C   UNL     1      34.450 -23.339 -15.677  0.00  0.00    +0.071 C 
ATOM     29  C   UNL     1      32.190 -23.180 -16.481  0.00  0.00    +0.058 C 
ATOM     30  C   UNL     1      33.942 -23.231 -14.392  0.00  0.00    +0.128 C 
ATOM     31  C   UNL     1      31.783 -23.079 -15.161  0.00  0.00    +0.103 C 
ATOM     32  H   UNL     1      34.557 -23.186 -12.394  0.00  0.00    +0.144 HD
ATOM     33  H   UNL     1      35.835 -23.353 -13.510  0.00  0.00    +0.144 HD
ENDBRANCH  24  27
ENDBRANCH   3  24
TORSDOF 5
ENDMDL
MODEL 4
REMARK VINA RESULT:     -12.0      1.520      2.123
REMARK  Name = 17748441
REMARK  5 active torsions:
REMARK  status: ('A' for Active; 'I' for Inactive)
REMARK    1  A    between atoms: C_2  and  N_10
REMARK    2  A    between atoms: C_3  and  O_24
REMARK    3  A    between atoms: C_12  and  C_16
REMARK    4  A    between atoms: C_16  and  C_18
REMARK    5  A    between atoms: O_24  and  C_27
REMARK                            x       y       z     vdW  Elec       q    Type
REMARK                         _______ _______ _______ _____ _____    ______ ____
ROOT
ATOM      1  F   UNL     1      30.577 -11.126 -21.056  0.00  0.00    -0.201 F 
ATOM      2  C   UNL     1      33.529 -12.776 -22.394  0.00  0.00    +0.054 C 
ATOM      3  C   UNL     1      32.212 -10.324 -22.577  0.00  0.00    +0.173 C 
ATOM      4  C   UNL     1      32.359 -12.557 -21.667  0.00  0.00    +0.047 C 
ATOM      5  C   UNL     1      34.040 -11.769 -23.213  0.00  0.00    +0.018 C 
ATOM      6  C   UNL     1      31.700 -11.331 -21.759  0.00  0.00    +0.176 C 
ATOM      7  C   UNL     1      33.381 -10.543 -23.305  0.00  0.00    +0.041 C 
ENDROOT
BRANCH   2  10
ATOM      8  O   UNL     1      34.535 -17.732 -24.398  0.00  0.00    -0.274 OA
ATOM      9  O   UNL     1      33.434 -15.173 -24.200  0.00  0.00    -0.252 OA
ATOM     10  N   UNL     1      34.197 -14.020 -22.302  0.00  0.00    -0.268 N 
ATOM     11  N   UNL     1      34.937 -16.155 -22.728  0.00  0.00    -0.239 N 
ATOM     12  C   UNL     1      35.095 -17.392 -23.360  0.00  0.00    +0.234 C 
ATOM     13  C   UNL     1      34.113 -15.105 -23.179  0.00  0.00    +0.310 C 
ATOM     14  H   UNL     1      34.793 -14.134 -21.525  0.00  0.00    +0.156 HD
ATOM     15  H   UNL     1      35.444 -16.006 -21.896  0.00  0.00    +0.159 HD
BRANCH  12  16
ATOM     16  C   UNL     1      36.057 -18.281 -22.596  0.00  0.00    +0.112 C 
BRANCH  16  18
ATOM     17  F   UNL     1      33.520 -21.554 -18.775  0.00  0.00    -0.204 F 
ATOM     18  C   UNL     1      35.379 -19.156 -21.575  0.00  0.00    -0.013 C 
ATOM     19  C   UNL     1      36.130 -19.763 -20.569  0.00  0.00    -0.001 C 
ATOM     20  C   UNL     1      34.000 -19.359 -21.635  0.00  0.00    -0.001 C 
ATOM     21  C   UNL     1      35.502 -20.573 -19.622  0.00  0.00    +0.029 C 
ATOM     22  C   UNL     1      33.372 -20.169 -20.690  0.00  0.00    +0.029 C 
ATOM     23  C   UNL     1      34.123 -20.776 -19.683  0.00  0.00    +0.140 C 
ENDBRANCH  16  18
ENDBRANCH  12  16
ENDBRANCH   2  10
BRANCH   3  24
ATOM     24  O   UNL     1      31.568  -9.128 -22.668  0.00  0.00    -0.451 OA
BRANCH  24  27
ATOM     25  N   UNL     1      32.523  -6.189 -19.854  0.00  0.00    -0.229 NA
ATOM     26  N   UNL     1      32.040  -4.506 -21.469  0.00  0.00    -0.343 N 
ATOM     27  C   UNL     1      31.885  -8.154 -21.736  0.00  0.00    +0.150 C 
ATOM     28  C   UNL     1      31.802  -6.808 -22.076  0.00  0.00    +0.071 C 
ATOM     29  C   UNL     1      32.286  -8.518 -20.456  0.00  0.00    +0.058 C 
ATOM     30  C   UNL     1      32.129  -5.873 -21.107  0.00  0.00    +0.128 C 
ATOM     31  C   UNL     1      32.592  -7.507 -19.559  0.00  0.00    +0.103 C 
ATOM     32  H   UNL     1      32.262  -3.808 -20.813  0.00  0.00    +0.144 HD
ATOM     33  H   UNL     1      31.754  -4.255 -22.378  0.00  0.00    +0.144 HD
ENDBRANCH  24  27
ENDBRANCH   3  24
TORSDOF 5
ENDMDL
MODEL 5
REMARK VINA RESULT:     -11.8      2.897     10.885
REMARK  Name = 17748441
REMARK  5 active torsions:
REMARK  status: ('A' for Active; 'I' for Inactive)
REMARK    1  A    between atoms: C_2  and  N_10
REMARK    2  A    between atoms: C_3  and  O_24
REMARK    3  A    between atoms: C_12  and  C_16
REMARK    4  A    between atoms: C_16  and  C_18
REMARK    5  A    between atoms: O_24  and  C_27
REMARK                            x       y       z     vdW  Elec       q    Type
REMARK                         _______ _______ _______ _____ _____    ______ ____
ROOT
ATOM      1  F   UNL     1      34.951 -19.699 -23.738  0.00  0.00    -0.201 F 
ATOM      2  C   UNL     1      35.069 -16.265 -22.545  0.00  0.00    +0.054 C 
ATOM      3  C   UNL     1      35.435 -18.855 -21.574  0.00  0.00    +0.173 C 
ATOM      4  C   UNL     1      34.915 -17.359 -23.398  0.00  0.00    +0.047 C 
ATOM      5  C   UNL     1      35.406 -16.468 -21.207  0.00  0.00    +0.018 C 
ATOM      6  C   UNL     1      35.099 -18.653 -22.912  0.00  0.00    +0.176 C 
ATOM      7  C   UNL     1      35.588 -17.763 -20.721  0.00  0.00    +0.041 C 
ENDROOT
BRANCH   2  10
ATOM      8  O   UNL     1      32.679 -11.394 -22.154  0.00  0.00    -0.274 OA
ATOM      9  O   UNL     1      33.334 -14.036 -21.527  0.00  0.00    -0.252 OA
ATOM     10  N   UNL     1      34.883 -14.952 -23.037  0.00  0.00    -0.268 N 
ATOM     11  N   UNL     1      34.158 -12.786 -23.302  0.00  0.00    -0.239 N 
ATOM     12  C   UNL     1      33.468 -11.591 -23.074  0.00  0.00    +0.234 C 
ATOM     13  C   UNL     1      34.056 -13.951 -22.517  0.00  0.00    +0.310 C 
ATOM     14  H   UNL     1      35.397 -14.715 -23.843  0.00  0.00    +0.156 HD
ATOM     15  H   UNL     1      34.764 -12.815 -24.078  0.00  0.00    +0.159 HD
BRANCH  12  16
ATOM     16  C   UNL     1      33.818 -10.546 -24.117  0.00  0.00    +0.112 C 
BRANCH  16  18
ATOM     17  F   UNL     1      33.288  -5.260 -22.241  0.00  0.00    -0.204 F 
ATOM     18  C   UNL     1      33.676  -9.133 -23.616  0.00  0.00    -0.013 C 
ATOM     19  C   UNL     1      34.808  -8.338 -23.444  0.00  0.00    -0.001 C 
ATOM     20  C   UNL     1      32.413  -8.620 -23.323  0.00  0.00    -0.001 C 
ATOM     21  C   UNL     1      34.678  -7.029 -22.979  0.00  0.00    +0.029 C 
ATOM     22  C   UNL     1      32.282  -7.312 -22.858  0.00  0.00    +0.029 C 
ATOM     23  C   UNL     1      33.414  -6.516 -22.687  0.00  0.00    +0.140 C 
ENDBRANCH  16  18
ENDBRANCH  12  16
ENDBRANCH   2  10
BRANCH   3  24
ATOM     24  O   UNL     1      35.612 -20.119 -21.100  0.00  0.00    -0.451 OA
BRANCH  24  27
ATOM     25  N   UNL     1      32.751 -21.612 -18.444  0.00  0.00    -0.229 NA
ATOM     26  N   UNL     1      34.477 -22.716 -17.228  0.00  0.00    -0.343 N 
ATOM     27  C   UNL     1      34.664 -20.614 -20.220  0.00  0.00    +0.150 C 
ATOM     28  C   UNL     1      35.052 -21.423 -19.158  0.00  0.00    +0.071 C 
ATOM     29  C   UNL     1      33.321 -20.304 -20.394  0.00  0.00    +0.058 C 
ATOM     30  C   UNL     1      34.066 -21.893 -18.306  0.00  0.00    +0.128 C 
ATOM     31  C   UNL     1      32.411 -20.823 -19.487  0.00  0.00    +0.103 C 
ATOM     32  H   UNL     1      33.810 -23.072 -16.598  0.00  0.00    +0.144 HD
ATOM     33  H   UNL     1      35.431 -22.932 -17.110  0.00  0.00    +0.144 HD
ENDBRANCH  24  27
ENDBRANCH   3  24
TORSDOF 5
ENDMDL
MODEL 6
REMARK VINA RESULT:     -11.8      5.938      9.491
REMARK  Name = 17748441
REMARK  5 active torsions:
REMARK  status: ('A' for Active; 'I' for Inactive)
REMARK    1  A    between atoms: C_2  and  N_10
REMARK    2  A    between atoms: C_3  and  O_24
REMARK    3  A    between atoms: C_12  and  C_16
REMARK    4  A    between atoms: C_16  and  C_18
REMARK    5  A    between atoms: O_24  and  C_27
REMARK                            x       y       z     vdW  Elec       q    Type
REMARK                         _______ _______ _______ _____ _____    ______ ____
ROOT
ATOM      1  F   UNL     1      36.923 -21.312 -19.576  0.00  0.00    -0.201 F 
ATOM      2  C   UNL     1      33.386 -21.593 -18.780  0.00  0.00    +0.054 C 
ATOM      3  C   UNL     1      35.064 -20.138 -20.467  0.00  0.00    +0.173 C 
ATOM      4  C   UNL     1      34.762 -21.817 -18.757  0.00  0.00    +0.047 C 
ATOM      5  C   UNL     1      32.849 -20.640 -19.646  0.00  0.00    +0.018 C 
ATOM      6  C   UNL     1      35.601 -21.090 -19.601  0.00  0.00    +0.176 C 
ATOM      7  C   UNL     1      33.689 -19.912 -20.489  0.00  0.00    +0.041 C 
ENDROOT
BRANCH   2  10
ATOM      8  O   UNL     1      32.600 -24.320 -14.139  0.00  0.00    -0.274 OA
ATOM      9  O   UNL     1      33.924 -22.836 -16.100  0.00  0.00    -0.252 OA
ATOM     10  N   UNL     1      32.534 -22.330 -17.924  0.00  0.00    -0.268 N 
ATOM     11  N   UNL     1      31.713 -23.544 -16.151  0.00  0.00    -0.239 N 
ATOM     12  C   UNL     1      31.663 -24.213 -14.925  0.00  0.00    +0.234 C 
ATOM     13  C   UNL     1      32.843 -22.888 -16.680  0.00  0.00    +0.310 C 
ATOM     14  H   UNL     1      31.612 -22.466 -18.245  0.00  0.00    +0.156 HD
ATOM     15  H   UNL     1      30.889 -23.530 -16.692  0.00  0.00    +0.159 HD
BRANCH  12  16
ATOM     16  C   UNL     1      30.288 -24.803 -14.676  0.00  0.00    +0.112 C 
BRANCH  16  18
ATOM     17  F   UNL     1      26.100 -21.645 -16.736  0.00  0.00    -0.204 F 
ATOM     18  C   UNL     1      29.168 -23.960 -15.226  0.00  0.00    -0.013 C 
ATOM     19  C   UNL     1      28.566 -24.304 -16.436  0.00  0.00    -0.001 C 
ATOM     20  C   UNL     1      28.734 -22.833 -14.527  0.00  0.00    -0.001 C 
ATOM     21  C   UNL     1      27.529 -23.522 -16.946  0.00  0.00    +0.029 C 
ATOM     22  C   UNL     1      27.699 -22.051 -15.037  0.00  0.00    +0.029 C 
ATOM     23  C   UNL     1      27.095 -22.396 -16.246  0.00  0.00    +0.140 C 
ENDBRANCH  16  18
ENDBRANCH  12  16
ENDBRANCH   2  10
BRANCH   3  24
ATOM     24  O   UNL     1      35.884 -19.426 -21.289  0.00  0.00    -0.451 OA
BRANCH  24  27
ATOM     25  N   UNL     1      34.116 -17.276 -24.406  0.00  0.00    -0.229 NA
ATOM     26  N   UNL     1      34.851 -15.244 -23.401  0.00  0.00    -0.343 N 
ATOM     27  C   UNL     1      35.298 -18.713 -22.321  0.00  0.00    +0.150 C 
ATOM     28  C   UNL     1      35.370 -17.325 -22.340  0.00  0.00    +0.071 C 
ATOM     29  C   UNL     1      34.636 -19.383 -23.344  0.00  0.00    +0.058 C 
ATOM     30  C   UNL     1      34.768 -16.659 -23.396  0.00  0.00    +0.128 C 
ATOM     31  C   UNL     1      34.067 -18.625 -24.354  0.00  0.00    +0.103 C 
ATOM     32  H   UNL     1      34.438 -14.730 -24.131  0.00  0.00    +0.144 HD
ATOM     33  H   UNL     1      35.321 -14.776 -22.674  0.00  0.00    +0.144 HD
ENDBRANCH  24  27
ENDBRANCH   3  24
TORSDOF 5
ENDMDL
MODEL 7
REMARK VINA RESULT:     -11.4      2.797     10.869
REMARK  Name = 17748441
REMARK  5 active torsions:
REMARK  status: ('A' for Active; 'I' for Inactive)
REMARK    1  A    between atoms: C_2  and  N_10
REMARK    2  A    between atoms: C_3  and  O_24
REMARK    3  A    between atoms: C_12  and  C_16
REMARK    4  A    between atoms: C_16  and  C_18
REMARK    5  A    between atoms: O_24  and  C_27
REMARK                            x       y       z     vdW  Elec       q    Type
REMARK                         _______ _______ _______ _____ _____    ______ ____
ROOT
ATOM      1  F   UNL     1      35.694 -17.296 -20.262  0.00  0.00    -0.201 F 
ATOM      2  C   UNL     1      34.566 -15.059 -22.899  0.00  0.00    +0.054 C 
ATOM      3  C   UNL     1      35.179 -17.755 -22.532  0.00  0.00    +0.173 C 
ATOM      4  C   UNL     1      34.986 -15.515 -21.649  0.00  0.00    +0.047 C 
ATOM      5  C   UNL     1      34.453 -15.952 -23.964  0.00  0.00    +0.018 C 
ATOM      6  C   UNL     1      35.292 -16.864 -21.466  0.00  0.00    +0.176 C 
ATOM      7  C   UNL     1      34.760 -17.300 -23.781  0.00  0.00    +0.041 C 
ENDROOT
BRANCH   2  10
ATOM      8  O   UNL     1      31.504 -10.726 -21.697  0.00  0.00    -0.274 OA
ATOM      9  O   UNL     1      32.443 -13.356 -21.630  0.00  0.00    -0.252 OA
ATOM     10  N   UNL     1      34.256 -13.692 -23.086  0.00  0.00    -0.268 N 
ATOM     11  N   UNL     1      33.273 -11.618 -22.927  0.00  0.00    -0.239 N 
ATOM     12  C   UNL     1      32.407 -10.600 -22.520  0.00  0.00    +0.234 C 
ATOM     13  C   UNL     1      33.249 -12.948 -22.462  0.00  0.00    +0.310 C 
ATOM     14  H   UNL     1      34.816 -13.206 -23.734  0.00  0.00    +0.156 HD
ATOM     15  H   UNL     1      33.958 -11.386 -23.597  0.00  0.00    +0.159 HD
BRANCH  12  16
ATOM     16  C   UNL     1      32.720  -9.295 -23.227  0.00  0.00    +0.112 C 
BRANCH  16  18
ATOM     17  F   UNL     1      31.014  -4.747 -20.370  0.00  0.00    -0.204 F 
ATOM     18  C   UNL     1      32.264  -8.079 -22.464  0.00  0.00    -0.013 C 
ATOM     19  C   UNL     1      32.853  -7.763 -21.240  0.00  0.00    -0.001 C 
ATOM     20  C   UNL     1      31.252  -7.269 -22.980  0.00  0.00    -0.001 C 
ATOM     21  C   UNL     1      32.431  -6.637 -20.533  0.00  0.00    +0.029 C 
ATOM     22  C   UNL     1      30.829  -6.145 -22.273  0.00  0.00    +0.029 C 
ATOM     23  C   UNL     1      31.419  -5.827 -21.049  0.00  0.00    +0.140 C 
ENDBRANCH  16  18
ENDBRANCH  12  16
ENDBRANCH   2  10
BRANCH   3  24
ATOM     24  O   UNL     1      35.480 -19.071 -22.353  0.00  0.00    -0.451 OA
BRANCH  24  27
ATOM     25  N   UNL     1      33.623 -21.075 -19.190  0.00  0.00    -0.229 NA
ATOM     26  N   UNL     1      35.764 -21.688 -18.342  0.00  0.00    -0.343 N 
ATOM     27  C   UNL     1      34.865 -19.736 -21.305  0.00  0.00    +0.150 C 
ATOM     28  C   UNL     1      35.632 -20.383 -20.343  0.00  0.00    +0.071 C 
ATOM     29  C   UNL     1      33.479 -19.757 -21.210  0.00  0.00    +0.058 C 
ATOM     30  C   UNL     1      34.968 -21.033 -19.315  0.00  0.00    +0.128 C 
ATOM     31  C   UNL     1      32.911 -20.434 -20.143  0.00  0.00    +0.103 C 
ATOM     32  H   UNL     1      35.335 -22.162 -17.593  0.00  0.00    +0.144 HD
ATOM     33  H   UNL     1      36.745 -21.669 -18.415  0.00  0.00    +0.144 HD
ENDBRANCH  24  27
ENDBRANCH   3  24
TORSDOF 5
ENDMDL
MODEL 8
REMARK VINA RESULT:     -11.3      2.898     10.785
REMARK  Name = 17748441
REMARK  5 active torsions:
REMARK  status: ('A' for Active; 'I' for Inactive)
REMARK    1  A    between atoms: C_2  and  N_10
REMARK    2  A    between atoms: C_3  and  O_24
REMARK    3  A    between atoms: C_12  and  C_16
REMARK    4  A    between atoms: C_16  and  C_18
REMARK    5  A    between atoms: O_24  and  C_27
REMARK                            x       y       z     vdW  Elec       q    Type
REMARK                         _______ _______ _______ _____ _____    ______ ____
ROOT
ATOM      1  F   UNL     1      34.095 -18.180 -25.029  0.00  0.00    -0.201 F 
ATOM      2  C   UNL     1      34.525 -15.113 -23.122  0.00  0.00    +0.054 C 
ATOM      3  C   UNL     1      35.024 -17.846 -22.871  0.00  0.00    +0.173 C 
ATOM      4  C   UNL     1      34.179 -15.983 -24.156  0.00  0.00    +0.047 C 
ATOM      5  C   UNL     1      35.121 -15.611 -21.962  0.00  0.00    +0.018 C 
ATOM      6  C   UNL     1      34.429 -17.350 -24.030  0.00  0.00    +0.176 C 
ATOM      7  C   UNL     1      35.370 -16.977 -21.837  0.00  0.00    +0.041 C 
ENDROOT
BRANCH   2  10
ATOM      8  O   UNL     1      31.620 -10.722 -21.756  0.00  0.00    -0.274 OA
ATOM      9  O   UNL     1      32.453 -13.387 -21.801  0.00  0.00    -0.252 OA
ATOM     10  N   UNL     1      34.272 -13.727 -23.248  0.00  0.00    -0.268 N 
ATOM     11  N   UNL     1      33.371 -11.625 -23.004  0.00  0.00    -0.239 N 
ATOM     12  C   UNL     1      32.539 -10.593 -22.559  0.00  0.00    +0.234 C 
ATOM     13  C   UNL     1      33.286 -12.974 -22.603  0.00  0.00    +0.310 C 
ATOM     14  H   UNL     1      34.861 -13.235 -23.865  0.00  0.00    +0.156 HD
ATOM     15  H   UNL     1      34.074 -11.390 -23.653  0.00  0.00    +0.159 HD
BRANCH  12  16
ATOM     16  C   UNL     1      32.914  -9.270 -23.200  0.00  0.00    +0.112 C 
BRANCH  16  18
ATOM     17  F   UNL     1      30.937  -4.799 -20.399  0.00  0.00    -0.204 F 
ATOM     18  C   UNL     1      32.386  -8.075 -22.452  0.00  0.00    -0.013 C 
ATOM     19  C   UNL     1      32.978  -7.687 -21.250  0.00  0.00    -0.001 C 
ATOM     20  C   UNL     1      31.304  -7.355 -22.960  0.00  0.00    -0.001 C 
ATOM     21  C   UNL     1      32.488  -6.580 -20.557  0.00  0.00    +0.029 C 
ATOM     22  C   UNL     1      30.814  -6.249 -22.266  0.00  0.00    +0.029 C 
ATOM     23  C   UNL     1      31.406  -5.861 -21.065  0.00  0.00    +0.140 C 
ENDBRANCH  16  18
ENDBRANCH  12  16
ENDBRANCH   2  10
BRANCH   3  24
ATOM     24  O   UNL     1      35.266 -19.181 -22.748  0.00  0.00    -0.451 OA
BRANCH  24  27
ATOM     25  N   UNL     1      34.772 -20.905 -18.973  0.00  0.00    -0.229 NA
ATOM     26  N   UNL     1      32.409 -20.856 -19.277  0.00  0.00    -0.343 N 
ATOM     27  C   UNL     1      35.102 -19.751 -21.497  0.00  0.00    +0.150 C 
ATOM     28  C   UNL     1      33.826 -20.018 -21.013  0.00  0.00    +0.071 C 
ATOM     29  C   UNL     1      36.212 -20.061 -20.720  0.00  0.00    +0.058 C 
ATOM     30  C   UNL     1      33.716 -20.591 -19.756  0.00  0.00    +0.128 C 
ATOM     31  C   UNL     1      35.996 -20.631 -19.476  0.00  0.00    +0.103 C 
ATOM     32  H   UNL     1      32.283 -21.262 -18.389  0.00  0.00    +0.144 HD
ATOM     33  H   UNL     1      31.626 -20.635 -19.832  0.00  0.00    +0.144 HD
ENDBRANCH  24  27
ENDBRANCH   3  24
TORSDOF 5
ENDMDL
MODEL 9
REMARK VINA RESULT:     -11.0      1.669      2.269
REMARK  Name = 17748441
REMARK  5 active torsions:
REMARK  status: ('A' for Active; 'I' for Inactive)
REMARK    1  A    between atoms: C_2  and  N_10
REMARK    2  A    between atoms: C_3  and  O_24
REMARK    3  A    between atoms: C_12  and  C_16
REMARK    4  A    between atoms: C_16  and  C_18
REMARK    5  A    between atoms: O_24  and  C_27
REMARK                            x       y       z     vdW  Elec       q    Type
REMARK                         _______ _______ _______ _____ _____    ______ ____
ROOT
ATOM      1  F   UNL     1      34.473  -9.408 -24.765  0.00  0.00    -0.201 F 
ATOM      2  C   UNL     1      33.549 -12.432 -22.968  0.00  0.00    +0.054 C 
ATOM      3  C   UNL     1      32.733  -9.775 -23.194  0.00  0.00    +0.173 C 
ATOM      4  C   UNL     1      34.227 -11.565 -23.825  0.00  0.00    +0.047 C 
ATOM      5  C   UNL     1      32.463 -11.970 -22.225  0.00  0.00    +0.018 C 
ATOM      6  C   UNL     1      33.818 -10.236 -23.938  0.00  0.00    +0.176 C 
ATOM      7  C   UNL     1      32.056 -10.641 -22.337  0.00  0.00    +0.041 C 
ENDROOT
BRANCH   2  10
ATOM      8  O   UNL     1      35.251 -16.580 -19.887  0.00  0.00    -0.274 OA
ATOM      9  O   UNL     1      34.389 -14.008 -20.554  0.00  0.00    -0.252 OA
ATOM     10  N   UNL     1      33.963 -13.780 -22.853  0.00  0.00    -0.268 N 
ATOM     11  N   UNL     1      34.686 -15.794 -22.009  0.00  0.00    -0.239 N 
ATOM     12  C   UNL     1      35.114 -16.760 -21.094  0.00  0.00    +0.234 C 
ATOM     13  C   UNL     1      34.344 -14.464 -21.694  0.00  0.00    +0.310 C 
ATOM     14  H   UNL     1      33.985 -14.299 -23.690  0.00  0.00    +0.156 HD
ATOM     15  H   UNL     1      34.618 -16.066 -22.954  0.00  0.00    +0.159 HD
BRANCH  12  16
ATOM     16  C   UNL     1      35.396 -18.082 -21.782  0.00  0.00    +0.112 C 
BRANCH  16  18
ATOM     17  F   UNL     1      34.880 -22.529 -18.359  0.00  0.00    -0.204 F 
ATOM     18  C   UNL     1      35.258 -19.271 -20.867  0.00  0.00    -0.013 C 
ATOM     19  C   UNL     1      33.996 -19.791 -20.586  0.00  0.00    -0.001 C 
ATOM     20  C   UNL     1      36.393 -19.852 -20.301  0.00  0.00    -0.001 C 
ATOM     21  C   UNL     1      33.867 -20.892 -19.739  0.00  0.00    +0.029 C 
ATOM     22  C   UNL     1      36.265 -20.951 -19.453  0.00  0.00    +0.029 C 
ATOM     23  C   UNL     1      35.003 -21.473 -19.173  0.00  0.00    +0.140 C 
ENDBRANCH  16  18
ENDBRANCH  12  16
ENDBRANCH   2  10
BRANCH   3  24
ATOM     24  O   UNL     1      32.336  -8.477 -23.303  0.00  0.00    -0.451 OA
BRANCH  24  27
ATOM     25  N   UNL     1      32.244  -6.176 -19.814  0.00  0.00    -0.229 NA
ATOM     26  N   UNL     1      30.870  -4.576 -20.923  0.00  0.00    -0.343 N 
ATOM     27  C   UNL     1      32.306  -7.714 -22.147  0.00  0.00    +0.150 C 
ATOM     28  C   UNL     1      31.597  -6.519 -22.118  0.00  0.00    +0.071 C 
ATOM     29  C   UNL     1      32.984  -8.142 -21.012  0.00  0.00    +0.058 C 
ATOM     30  C   UNL     1      31.597  -5.793 -20.937  0.00  0.00    +0.128 C 
ATOM     31  C   UNL     1      32.923  -7.344 -19.880  0.00  0.00    +0.103 C 
ATOM     32  H   UNL     1      30.843  -4.029 -20.106  0.00  0.00    +0.144 HD
ATOM     33  H   UNL     1      30.392  -4.280 -21.731  0.00  0.00    +0.144 HD
ENDBRANCH  24  27
ENDBRANCH   3  24
TORSDOF 5
ENDMDL
