MODEL 1
REMARK VINA RESULT:     -11.3      0.000      0.000
REMARK  Name = 10361208
REMARK  3 active torsions:
REMARK  status: ('A' for Active; 'I' for Inactive)
REMARK    1  A    between atoms: N_1  and  C_12
REMARK    2  A    between atoms: C_10  and  C_18
REMARK    3  A    between atoms: C_21  and  C_27
REMARK                            x       y       z     vdW  Elec       q    Type
REMARK                         _______ _______ _______ _____ _____    ______ ____
ROOT
ATOM      1  N   UNL     1      35.185 -24.339 -14.042  0.00  0.00    -0.318 N 
ATOM      2  N   UNL     1      34.253 -23.247 -15.835  0.00  0.00    -0.147 NA
ATOM      3  N   UNL     1      33.094 -22.896 -16.446  0.00  0.00    -0.190 N 
ATOM      4  N   UNL     1      30.958 -22.669 -16.903  0.00  0.00    -0.127 NA
ATOM      5  N   UNL     1      31.686 -22.034 -17.889  0.00  0.00    -0.127 NA
ATOM      6  C   UNL     1      34.103 -23.939 -14.729  0.00  0.00    +0.149 C 
ATOM      7  C   UNL     1      32.749 -24.312 -14.188  0.00  0.00    +0.039 C 
ATOM      8  C   UNL     1      31.812 -23.182 -16.043  0.00  0.00    +0.187 A 
ATOM      9  C   UNL     1      31.658 -23.925 -14.858  0.00  0.00    +0.044 C 
ATOM     10  C   UNL     1      32.960 -22.181 -17.600  0.00  0.00    +0.187 A 
ATOM     11  H   UNL     1      35.052 -24.872 -13.224  0.00  0.00    +0.148 HD
ENDROOT
BRANCH   1  12
ATOM     12  C   UNL     1      36.540 -24.023 -14.452  0.00  0.00    +0.070 C 
ATOM     13  C   UNL     1      37.112 -22.913 -13.565  0.00  0.00    +0.020 C 
ATOM     14  C   UNL     1      37.410 -25.283 -14.409  0.00  0.00    +0.020 C 
ATOM     15  C   UNL     1      37.410 -23.387 -12.142  0.00  0.00    +0.002 C 
ATOM     16  C   UNL     1      37.706 -25.749 -12.983  0.00  0.00    +0.002 C 
ATOM     17  C   UNL     1      38.298 -24.626 -12.135  0.00  0.00    +0.000 C 
ENDBRANCH   1  12
BRANCH  10  18
ATOM     18  C   UNL     1      34.072 -21.672 -18.368  0.00  0.00    +0.038 C 
ATOM     19  C   UNL     1      33.840 -20.866 -19.481  0.00  0.00    +0.007 C 
ATOM     20  C   UNL     1      35.377 -21.989 -17.995  0.00  0.00    +0.003 C 
ATOM     21  C   UNL     1      34.914 -20.375 -20.222  0.00  0.00    +0.072 C 
ATOM     22  C   UNL     1      36.453 -21.499 -18.736  0.00  0.00    +0.000 C 
ATOM     23  C   UNL     1      36.221 -20.692 -19.851  0.00  0.00    +0.004 C 
BRANCH  21  27
ATOM     24  F   UNL     1      35.443 -19.831 -22.491  0.00  0.00    -0.166 F 
ATOM     25  F   UNL     1      33.382 -19.562 -21.869  0.00  0.00    -0.166 F 
ATOM     26  F   UNL     1      34.915 -18.191 -21.163  0.00  0.00    -0.166 F 
ATOM     27  C   UNL     1      34.668 -19.511 -21.413  0.00  0.00    +0.419 C 
ENDBRANCH  21  27
ENDBRANCH  10  18
TORSDOF 3
ENDMDL
MODEL 2
REMARK VINA RESULT:     -10.8      3.433      5.469
REMARK  Name = 10361208
REMARK  3 active torsions:
REMARK  status: ('A' for Active; 'I' for Inactive)
REMARK    1  A    between atoms: N_1  and  C_12
REMARK    2  A    between atoms: C_10  and  C_18
REMARK    3  A    between atoms: C_21  and  C_27
REMARK                            x       y       z     vdW  Elec       q    Type
REMARK                         _______ _______ _______ _____ _____    ______ ____
ROOT
ATOM      1  N   UNL     1      36.902 -22.809 -14.191  0.00  0.00    -0.318 N 
ATOM      2  N   UNL     1      34.964 -22.794 -15.424  0.00  0.00    -0.147 NA
ATOM      3  N   UNL     1      34.418 -22.535 -16.639  0.00  0.00    -0.190 N 
ATOM      4  N   UNL     1      34.183 -21.957 -18.744  0.00  0.00    -0.127 NA
ATOM      5  N   UNL     1      32.948 -22.325 -18.251  0.00  0.00    -0.127 NA
ATOM      6  C   UNL     1      36.258 -22.585 -15.348  0.00  0.00    +0.149 C 
ATOM      7  C   UNL     1      37.067 -22.095 -16.519  0.00  0.00    +0.039 C 
ATOM      8  C   UNL     1      35.058 -22.088 -17.769  0.00  0.00    +0.187 A 
ATOM      9  C   UNL     1      36.445 -21.864 -17.681  0.00  0.00    +0.044 C 
ATOM     10  C   UNL     1      33.107 -22.666 -16.992  0.00  0.00    +0.187 A 
ATOM     11  H   UNL     1      37.870 -22.630 -14.150  0.00  0.00    +0.148 HD
ENDROOT
BRANCH   1  12
ATOM     12  C   UNL     1      36.235 -23.302 -13.001  0.00  0.00    +0.070 C 
ATOM     13  C   UNL     1      35.849 -24.773 -13.186  0.00  0.00    +0.020 C 
ATOM     14  C   UNL     1      37.133 -23.104 -11.775  0.00  0.00    +0.020 C 
ATOM     15  C   UNL     1      37.060 -25.708 -13.172  0.00  0.00    +0.002 C 
ATOM     16  C   UNL     1      38.338 -24.045 -11.767  0.00  0.00    +0.002 C 
ATOM     17  C   UNL     1      37.916 -25.503 -11.927  0.00  0.00    +0.000 C 
ENDBRANCH   1  12
BRANCH  10  18
ATOM     18  C   UNL     1      32.070 -23.118 -16.095  0.00  0.00    +0.038 C 
ATOM     19  C   UNL     1      30.731 -23.014 -16.467  0.00  0.00    +0.007 C 
ATOM     20  C   UNL     1      32.410 -23.657 -14.855  0.00  0.00    +0.003 C 
ATOM     21  C   UNL     1      29.730 -23.450 -15.599  0.00  0.00    +0.072 C 
ATOM     22  C   UNL     1      31.410 -24.093 -13.985  0.00  0.00    +0.000 C 
ATOM     23  C   UNL     1      30.069 -23.989 -14.359  0.00  0.00    +0.004 C 
BRANCH  21  27
ATOM     24  F   UNL     1      27.458 -23.074 -14.953  0.00  0.00    -0.166 F 
ATOM     25  F   UNL     1      28.055 -22.355 -16.910  0.00  0.00    -0.166 F 
ATOM     26  F   UNL     1      27.821 -24.489 -16.564  0.00  0.00    -0.166 F 
ATOM     27  C   UNL     1      28.296 -23.342 -15.997  0.00  0.00    +0.419 C 
ENDBRANCH  21  27
ENDBRANCH  10  18
TORSDOF 3
ENDMDL
MODEL 3
REMARK VINA RESULT:     -10.5      2.630      3.141
REMARK  Name = 10361208
REMARK  3 active torsions:
REMARK  status: ('A' for Active; 'I' for Inactive)
REMARK    1  A    between atoms: N_1  and  C_12
REMARK    2  A    between atoms: C_10  and  C_18
REMARK    3  A    between atoms: C_21  and  C_27
REMARK                            x       y       z     vdW  Elec       q    Type
REMARK                         _______ _______ _______ _____ _____    ______ ____
ROOT
ATOM      1  N   UNL     1      34.428 -24.005 -12.575  0.00  0.00    -0.318 N 
ATOM      2  N   UNL     1      33.853 -23.348 -14.700  0.00  0.00    -0.147 NA
ATOM      3  N   UNL     1      32.839 -23.229 -15.593  0.00  0.00    -0.190 N 
ATOM      4  N   UNL     1      30.848 -23.299 -16.516  0.00  0.00    -0.127 NA
ATOM      5  N   UNL     1      31.737 -22.782 -17.435  0.00  0.00    -0.127 NA
ATOM      6  C   UNL     1      33.504 -23.843 -13.535  0.00  0.00    +0.149 C 
ATOM      7  C   UNL     1      32.087 -24.246 -13.222  0.00  0.00    +0.039 C 
ATOM      8  C   UNL     1      31.519 -23.563 -15.414  0.00  0.00    +0.187 A 
ATOM      9  C   UNL     1      31.150 -24.094 -14.164  0.00  0.00    +0.044 C 
ATOM     10  C   UNL     1      32.922 -22.748 -16.867  0.00  0.00    +0.187 A 
ATOM     11  H   UNL     1      34.149 -24.394 -11.714  0.00  0.00    +0.148 HD
ENDROOT
BRANCH   1  12
ATOM     12  C   UNL     1      35.819 -23.634 -12.751  0.00  0.00    +0.070 C 
ATOM     13  C   UNL     1      36.456 -23.322 -11.394  0.00  0.00    +0.020 C 
ATOM     14  C   UNL     1      36.572 -24.750 -13.483  0.00  0.00    +0.020 C 
ATOM     15  C   UNL     1      36.660 -24.570 -10.535  0.00  0.00    +0.002 C 
ATOM     16  C   UNL     1      36.776 -25.993 -12.616  0.00  0.00    +0.002 C 
ATOM     17  C   UNL     1      37.435 -25.649 -11.284  0.00  0.00    +0.000 C 
ENDBRANCH   1  12
BRANCH  10  18
ATOM     18  C   UNL     1      34.144 -22.276 -17.474  0.00  0.00    +0.038 C 
ATOM     19  C   UNL     1      35.290 -22.110 -16.697  0.00  0.00    +0.007 C 
ATOM     20  C   UNL     1      34.177 -21.987 -18.837  0.00  0.00    +0.003 C 
ATOM     21  C   UNL     1      36.470 -21.653 -17.283  0.00  0.00    +0.072 C 
ATOM     22  C   UNL     1      35.357 -21.529 -19.425  0.00  0.00    +0.000 C 
ATOM     23  C   UNL     1      36.504 -21.363 -18.647  0.00  0.00    +0.004 C 
BRANCH  21  27
ATOM     24  F   UNL     1      38.607 -22.483 -16.602  0.00  0.00    -0.166 F 
ATOM     25  F   UNL     1      38.385 -20.330 -16.733  0.00  0.00    -0.166 F 
ATOM     26  F   UNL     1      37.423 -21.422 -15.118  0.00  0.00    -0.166 F 
ATOM     27  C   UNL     1      37.697 -21.476 -16.454  0.00  0.00    +0.419 C 
ENDBRANCH  21  27
ENDBRANCH  10  18
TORSDOF 3
ENDMDL
MODEL 4
REMARK VINA RESULT:     -10.1      4.609      7.660
REMARK  Name = 10361208
REMARK  3 active torsions:
REMARK  status: ('A' for Active; 'I' for Inactive)
REMARK    1  A    between atoms: N_1  and  C_12
REMARK    2  A    between atoms: C_10  and  C_18
REMARK    3  A    between atoms: C_21  and  C_27
REMARK                            x       y       z     vdW  Elec       q    Type
REMARK                         _______ _______ _______ _____ _____    ______ ____
ROOT
ATOM      1  N   UNL     1      31.473 -23.217 -16.465  0.00  0.00    -0.318 N 
ATOM      2  N   UNL     1      33.696 -23.214 -15.886  0.00  0.00    -0.147 NA
ATOM      3  N   UNL     1      34.946 -22.847 -16.266  0.00  0.00    -0.190 N 
ATOM      4  N   UNL     1      36.621 -22.020 -17.419  0.00  0.00    -0.127 NA
ATOM      5  N   UNL     1      37.119 -22.558 -16.250  0.00  0.00    -0.127 NA
ATOM      6  C   UNL     1      32.749 -22.900 -16.739  0.00  0.00    +0.149 C 
ATOM      7  C   UNL     1      33.032 -22.188 -18.034  0.00  0.00    +0.039 C 
ATOM      8  C   UNL     1      35.316 -22.197 -17.418  0.00  0.00    +0.187 A 
ATOM      9  C   UNL     1      34.297 -21.863 -18.328  0.00  0.00    +0.044 C 
ATOM     10  C   UNL     1      36.104 -23.049 -15.574  0.00  0.00    +0.187 A 
ATOM     11  H   UNL     1      30.779 -22.987 -17.124  0.00  0.00    +0.148 HD
ENDROOT
BRANCH   1  12
ATOM     12  C   UNL     1      31.073 -23.884 -15.240  0.00  0.00    +0.070 C 
ATOM     13  C   UNL     1      30.579 -22.854 -14.218  0.00  0.00    +0.020 C 
ATOM     14  C   UNL     1      30.003 -24.938 -15.540  0.00  0.00    +0.020 C 
ATOM     15  C   UNL     1      29.228 -22.247 -14.598  0.00  0.00    +0.002 C 
ATOM     16  C   UNL     1      28.655 -24.322 -15.915  0.00  0.00    +0.002 C 
ATOM     17  C   UNL     1      28.181 -23.323 -14.865  0.00  0.00    +0.000 C 
ENDBRANCH   1  12
BRANCH  10  18
ATOM     18  C   UNL     1      36.174 -23.705 -14.290  0.00  0.00    +0.038 C 
ATOM     19  C   UNL     1      36.792 -24.950 -14.175  0.00  0.00    +0.007 C 
ATOM     20  C   UNL     1      35.622 -23.093 -13.166  0.00  0.00    +0.003 C 
ATOM     21  C   UNL     1      36.858 -25.583 -12.935  0.00  0.00    +0.072 C 
ATOM     22  C   UNL     1      35.687 -23.727 -11.924  0.00  0.00    +0.000 C 
ATOM     23  C   UNL     1      36.306 -24.972 -11.809  0.00  0.00    +0.004 C 
BRANCH  21  27
ATOM     24  F   UNL     1      38.837 -26.906 -13.170  0.00  0.00    -0.166 F 
ATOM     25  F   UNL     1      37.501 -27.417 -11.540  0.00  0.00    -0.166 F 
ATOM     26  F   UNL     1      36.932 -27.868 -13.590  0.00  0.00    -0.166 F 
ATOM     27  C   UNL     1      37.520 -26.914 -12.810  0.00  0.00    +0.419 C 
ENDBRANCH  21  27
ENDBRANCH  10  18
TORSDOF 3
ENDMDL
MODEL 5
REMARK VINA RESULT:     -10.1      3.898      5.807
REMARK  Name = 10361208
REMARK  3 active torsions:
REMARK  status: ('A' for Active; 'I' for Inactive)
REMARK    1  A    between atoms: N_1  and  C_12
REMARK    2  A    between atoms: C_10  and  C_18
REMARK    3  A    between atoms: C_21  and  C_27
REMARK                            x       y       z     vdW  Elec       q    Type
REMARK                         _______ _______ _______ _____ _____    ______ ____
ROOT
ATOM      1  N   UNL     1      36.767 -22.841 -14.795  0.00  0.00    -0.318 N 
ATOM      2  N   UNL     1      34.785 -22.663 -15.943  0.00  0.00    -0.147 NA
ATOM      3  N   UNL     1      34.207 -22.331 -17.124  0.00  0.00    -0.190 N 
ATOM      4  N   UNL     1      33.925 -21.672 -19.200  0.00  0.00    -0.127 NA
ATOM      5  N   UNL     1      32.690 -21.976 -18.666  0.00  0.00    -0.127 NA
ATOM      6  C   UNL     1      36.092 -22.540 -15.916  0.00  0.00    +0.149 C 
ATOM      7  C   UNL     1      36.882 -22.066 -17.106  0.00  0.00    +0.039 C 
ATOM      8  C   UNL     1      34.829 -21.890 -18.268  0.00  0.00    +0.187 A 
ATOM      9  C   UNL     1      36.229 -21.759 -18.233  0.00  0.00    +0.044 C 
ATOM     10  C   UNL     1      32.877 -22.366 -17.425  0.00  0.00    +0.187 A 
ATOM     11  H   UNL     1      37.745 -22.727 -14.790  0.00  0.00    +0.148 HD
ENDROOT
BRANCH   1  12
ATOM     12  C   UNL     1      36.118 -23.328 -13.592  0.00  0.00    +0.070 C 
ATOM     13  C   UNL     1      35.596 -24.751 -13.815  0.00  0.00    +0.020 C 
ATOM     14  C   UNL     1      37.089 -23.263 -12.409  0.00  0.00    +0.020 C 
ATOM     15  C   UNL     1      36.719 -25.786 -13.903  0.00  0.00    +0.002 C 
ATOM     16  C   UNL     1      38.206 -24.303 -12.502  0.00  0.00    +0.002 C 
ATOM     17  C   UNL     1      37.650 -25.711 -12.698  0.00  0.00    +0.000 C 
ENDBRANCH   1  12
BRANCH  10  18
ATOM     18  C   UNL     1      31.851 -22.779 -16.497  0.00  0.00    +0.038 C 
ATOM     19  C   UNL     1      32.203 -23.275 -15.242  0.00  0.00    +0.007 C 
ATOM     20  C   UNL     1      30.508 -22.682 -16.858  0.00  0.00    +0.003 C 
ATOM     21  C   UNL     1      31.211 -23.674 -14.347  0.00  0.00    +0.072 C 
ATOM     22  C   UNL     1      29.515 -23.081 -15.963  0.00  0.00    +0.000 C 
ATOM     23  C   UNL     1      29.867 -23.577 -14.707  0.00  0.00    +0.004 C 
BRANCH  21  27
ATOM     24  F   UNL     1      31.863 -25.540 -13.001  0.00  0.00    -0.166 F 
ATOM     25  F   UNL     1      32.693 -23.608 -12.471  0.00  0.00    -0.166 F 
ATOM     26  F   UNL     1      30.596 -24.032 -12.078  0.00  0.00    -0.166 F 
ATOM     27  C   UNL     1      31.585 -24.203 -13.004  0.00  0.00    +0.419 C 
ENDBRANCH  21  27
ENDBRANCH  10  18
TORSDOF 3
ENDMDL
MODEL 6
REMARK VINA RESULT:      -9.9      1.762      4.601
REMARK  Name = 10361208
REMARK  3 active torsions:
REMARK  status: ('A' for Active; 'I' for Inactive)
REMARK    1  A    between atoms: N_1  and  C_12
REMARK    2  A    between atoms: C_10  and  C_18
REMARK    3  A    between atoms: C_21  and  C_27
REMARK                            x       y       z     vdW  Elec       q    Type
REMARK                         _______ _______ _______ _____ _____    ______ ____
ROOT
ATOM      1  N   UNL     1      32.558 -23.865 -14.975  0.00  0.00    -0.318 N 
ATOM      2  N   UNL     1      34.033 -22.796 -16.375  0.00  0.00    -0.147 NA
ATOM      3  N   UNL     1      35.334 -22.474 -16.587  0.00  0.00    -0.190 N 
ATOM      4  N   UNL     1      37.508 -22.297 -16.345  0.00  0.00    -0.127 NA
ATOM      5  N   UNL     1      37.144 -21.648 -17.506  0.00  0.00    -0.127 NA
ATOM      6  C   UNL     1      33.810 -23.491 -15.284  0.00  0.00    +0.149 C 
ATOM      7  C   UNL     1      34.915 -23.897 -14.345  0.00  0.00    +0.039 C 
ATOM      8  C   UNL     1      36.416 -22.790 -15.801  0.00  0.00    +0.187 A 
ATOM      9  C   UNL     1      36.171 -23.535 -14.633  0.00  0.00    +0.044 C 
ATOM     10  C   UNL     1      35.841 -21.763 -17.635  0.00  0.00    +0.187 A 
ATOM     11  H   UNL     1      32.409 -24.372 -14.144  0.00  0.00    +0.148 HD
ENDROOT
BRANCH   1  12
ATOM     12  C   UNL     1      31.415 -23.552 -15.812  0.00  0.00    +0.070 C 
ATOM     13  C   UNL     1      30.570 -24.810 -16.038  0.00  0.00    +0.020 C 
ATOM     14  C   UNL     1      30.591 -22.427 -15.178  0.00  0.00    +0.020 C 
ATOM     15  C   UNL     1      29.818 -25.251 -14.781  0.00  0.00    +0.002 C 
ATOM     16  C   UNL     1      29.840 -22.877 -13.924  0.00  0.00    +0.002 C 
ATOM     17  C   UNL     1      28.989 -24.115 -14.192  0.00  0.00    +0.000 C 
ENDBRANCH   1  12
BRANCH  10  18
ATOM     18  C   UNL     1      35.041 -21.230 -18.712  0.00  0.00    +0.038 C 
ATOM     19  C   UNL     1      35.630 -20.428 -19.688  0.00  0.00    +0.007 C 
ATOM     20  C   UNL     1      33.678 -21.518 -18.773  0.00  0.00    +0.003 C 
ATOM     21  C   UNL     1      34.856 -19.914 -20.728  0.00  0.00    +0.072 C 
ATOM     22  C   UNL     1      32.903 -21.003 -19.813  0.00  0.00    +0.000 C 
ATOM     23  C   UNL     1      33.493 -20.201 -20.791  0.00  0.00    +0.004 C 
BRANCH  21  27
ATOM     24  F   UNL     1      36.849 -19.038 -21.719  0.00  0.00    -0.166 F 
ATOM     25  F   UNL     1      35.185 -19.442 -23.049  0.00  0.00    -0.166 F 
ATOM     26  F   UNL     1      35.097 -17.751 -21.686  0.00  0.00    -0.166 F 
ATOM     27  C   UNL     1      35.485 -19.057 -21.774  0.00  0.00    +0.419 C 
ENDBRANCH  21  27
ENDBRANCH  10  18
TORSDOF 3
ENDMDL
MODEL 7
REMARK VINA RESULT:      -9.8      2.267      5.189
REMARK  Name = 10361208
REMARK  3 active torsions:
REMARK  status: ('A' for Active; 'I' for Inactive)
REMARK    1  A    between atoms: N_1  and  C_12
REMARK    2  A    between atoms: C_10  and  C_18
REMARK    3  A    between atoms: C_21  and  C_27
REMARK                            x       y       z     vdW  Elec       q    Type
REMARK                         _______ _______ _______ _____ _____    ______ ____
ROOT
ATOM      1  N   UNL     1      32.218 -24.349 -13.809  0.00  0.00    -0.318 N 
ATOM      2  N   UNL     1      34.220 -23.468 -14.511  0.00  0.00    -0.147 NA
ATOM      3  N   UNL     1      35.502 -23.196 -14.160  0.00  0.00    -0.190 N 
ATOM      4  N   UNL     1      37.363 -23.034 -13.007  0.00  0.00    -0.127 NA
ATOM      5  N   UNL     1      37.581 -22.509 -14.264  0.00  0.00    -0.127 NA
ATOM      6  C   UNL     1      33.501 -24.035 -13.570  0.00  0.00    +0.149 C 
ATOM      7  C   UNL     1      34.061 -24.356 -12.210  0.00  0.00    +0.039 C 
ATOM      8  C   UNL     1      36.113 -23.444 -12.955  0.00  0.00    +0.187 A 
ATOM      9  C   UNL     1      35.338 -24.051 -11.950  0.00  0.00    +0.044 C 
ATOM     10  C   UNL     1      36.458 -22.614 -14.939  0.00  0.00    +0.187 A 
ATOM     11  H   UNL     1      31.691 -24.759 -13.084  0.00  0.00    +0.148 HD
ENDROOT
BRANCH   1  12
ATOM     12  C   UNL     1      31.573 -24.109 -15.086  0.00  0.00    +0.070 C 
ATOM     13  C   UNL     1      30.504 -25.175 -15.343  0.00  0.00    +0.020 C 
ATOM     14  C   UNL     1      30.980 -22.697 -15.118  0.00  0.00    +0.020 C 
ATOM     15  C   UNL     1      29.281 -25.017 -14.438  0.00  0.00    +0.002 C 
ATOM     16  C   UNL     1      29.756 -22.549 -14.214  0.00  0.00    +0.002 C 
ATOM     17  C   UNL     1      28.701 -23.609 -14.515  0.00  0.00    +0.000 C 
ENDBRANCH   1  12
BRANCH  10  18
ATOM     18  C   UNL     1      36.241 -22.188 -16.301  0.00  0.00    +0.038 C 
ATOM     19  C   UNL     1      35.017 -22.434 -16.923  0.00  0.00    +0.007 C 
ATOM     20  C   UNL     1      37.256 -21.531 -16.995  0.00  0.00    +0.003 C 
ATOM     21  C   UNL     1      34.808 -22.023 -18.238  0.00  0.00    +0.072 C 
ATOM     22  C   UNL     1      37.048 -21.120 -18.312  0.00  0.00    +0.000 C 
ATOM     23  C   UNL     1      35.823 -21.366 -18.934  0.00  0.00    +0.004 C 
BRANCH  21  27
ATOM     24  F   UNL     1      32.443 -22.322 -18.038  0.00  0.00    -0.166 F 
ATOM     25  F   UNL     1      33.162 -21.344 -19.836  0.00  0.00    -0.166 F 
ATOM     26  F   UNL     1      33.475 -23.479 -19.564  0.00  0.00    -0.166 F 
ATOM     27  C   UNL     1      33.498 -22.284 -18.904  0.00  0.00    +0.419 C 
ENDBRANCH  21  27
ENDBRANCH  10  18
TORSDOF 3
ENDMDL
MODEL 8
REMARK VINA RESULT:      -9.3     13.430     17.772
REMARK  Name = 10361208
REMARK  3 active torsions:
REMARK  status: ('A' for Active; 'I' for Inactive)
REMARK    1  A    between atoms: N_1  and  C_12
REMARK    2  A    between atoms: C_10  and  C_18
REMARK    3  A    between atoms: C_21  and  C_27
REMARK                            x       y       z     vdW  Elec       q    Type
REMARK                         _______ _______ _______ _____ _____    ______ ____
ROOT
ATOM      1  N   UNL     1      33.009  -4.287 -24.511  0.00  0.00    -0.318 N 
ATOM      2  N   UNL     1      33.058  -6.322 -23.445  0.00  0.00    -0.147 NA
ATOM      3  N   UNL     1      32.748  -6.991 -22.307  0.00  0.00    -0.190 N 
ATOM      4  N   UNL     1      32.025  -7.453 -20.286  0.00  0.00    -0.127 NA
ATOM      5  N   UNL     1      32.532  -8.609 -20.844  0.00  0.00    -0.127 NA
ATOM      6  C   UNL     1      32.747  -5.046 -23.435  0.00  0.00    +0.149 C 
ATOM      7  C   UNL     1      32.097  -4.383 -22.249  0.00  0.00    +0.039 C 
ATOM      8  C   UNL     1      32.158  -6.489 -21.172  0.00  0.00    +0.187 A 
ATOM      9  C   UNL     1      31.827  -5.121 -21.166  0.00  0.00    +0.044 C 
ATOM     10  C   UNL     1      32.961  -8.314 -22.051  0.00  0.00    +0.187 A 
ATOM     11  H   UNL     1      32.783  -3.328 -24.477  0.00  0.00    +0.148 HD
ENDROOT
BRANCH   1  12
ATOM     12  C   UNL     1      33.612  -4.815 -25.719  0.00  0.00    +0.070 C 
ATOM     13  C   UNL     1      32.718  -4.517 -26.927  0.00  0.00    +0.020 C 
ATOM     14  C   UNL     1      35.018  -4.235 -25.902  0.00  0.00    +0.020 C 
ATOM     15  C   UNL     1      32.711  -3.036 -27.306  0.00  0.00    +0.002 C 
ATOM     16  C   UNL     1      35.002  -2.755 -26.285  0.00  0.00    +0.002 C 
ATOM     17  C   UNL     1      34.124  -2.498 -27.505  0.00  0.00    +0.000 C 
ENDBRANCH   1  12
BRANCH  10  18
ATOM     18  C   UNL     1      33.567  -9.230 -22.987  0.00  0.00    +0.038 C 
ATOM     19  C   UNL     1      33.239 -10.584 -22.950  0.00  0.00    +0.007 C 
ATOM     20  C   UNL     1      34.482  -8.758 -23.928  0.00  0.00    +0.003 C 
ATOM     21  C   UNL     1      33.825 -11.469 -23.855  0.00  0.00    +0.072 C 
ATOM     22  C   UNL     1      35.069  -9.643 -24.833  0.00  0.00    +0.000 C 
ATOM     23  C   UNL     1      34.740 -10.999 -24.796  0.00  0.00    +0.004 C 
BRANCH  21  27
ATOM     24  F   UNL     1      32.414 -13.204 -23.005  0.00  0.00    -0.166 F 
ATOM     25  F   UNL     1      33.136 -13.430 -25.038  0.00  0.00    -0.166 F 
ATOM     26  F   UNL     1      34.502 -13.695 -23.367  0.00  0.00    -0.166 F 
ATOM     27  C   UNL     1      33.474 -12.918 -23.818  0.00  0.00    +0.419 C 
ENDBRANCH  21  27
ENDBRANCH  10  18
TORSDOF 3
ENDMDL
MODEL 9
REMARK VINA RESULT:      -8.6     10.928     14.213
REMARK  Name = 10361208
REMARK  3 active torsions:
REMARK  status: ('A' for Active; 'I' for Inactive)
REMARK    1  A    between atoms: N_1  and  C_12
REMARK    2  A    between atoms: C_10  and  C_18
REMARK    3  A    between atoms: C_21  and  C_27
REMARK                            x       y       z     vdW  Elec       q    Type
REMARK                         _______ _______ _______ _____ _____    ______ ____
ROOT
ATOM      1  N   UNL     1      32.262  -8.174 -22.092  0.00  0.00    -0.318 N 
ATOM      2  N   UNL     1      32.507 -10.451 -21.917  0.00  0.00    -0.147 NA
ATOM      3  N   UNL     1      32.388 -11.525 -21.097  0.00  0.00    -0.190 N 
ATOM      4  N   UNL     1      31.994 -12.775 -19.335  0.00  0.00    -0.127 NA
ATOM      5  N   UNL     1      32.426 -13.590 -20.361  0.00  0.00    -0.127 NA
ATOM      6  C   UNL     1      32.182  -9.303 -21.370  0.00  0.00    +0.149 C 
ATOM      7  C   UNL     1      31.713  -9.192 -19.944  0.00  0.00    +0.039 C 
ATOM      8  C   UNL     1      31.973 -11.539 -19.787  0.00  0.00    +0.187 A 
ATOM      9  C   UNL     1      31.626 -10.305 -19.206  0.00  0.00    +0.044 C 
ATOM     10  C   UNL     1      32.658 -12.826 -21.406  0.00  0.00    +0.187 A 
ATOM     11  H   UNL     1      32.029  -7.321 -21.659  0.00  0.00    +0.148 HD
ENDROOT
BRANCH   1  12
ATOM     12  C   UNL     1      32.679  -8.156 -23.481  0.00  0.00    +0.070 C 
ATOM     13  C   UNL     1      32.141  -6.901 -24.176  0.00  0.00    +0.020 C 
ATOM     14  C   UNL     1      34.206  -8.239 -23.573  0.00  0.00    +0.020 C 
ATOM     15  C   UNL     1      32.840  -5.622 -23.712  0.00  0.00    +0.002 C 
ATOM     16  C   UNL     1      34.897  -6.956 -23.112  0.00  0.00    +0.002 C 
ATOM     17  C   UNL     1      34.355  -5.730 -23.841  0.00  0.00    +0.000 C 
ENDBRANCH   1  12
BRANCH  10  18
ATOM     18  C   UNL     1      33.126 -13.268 -22.697  0.00  0.00    +0.038 C 
ATOM     19  C   UNL     1      33.168 -12.376 -23.768  0.00  0.00    +0.007 C 
ATOM     20  C   UNL     1      33.534 -14.590 -22.874  0.00  0.00    +0.003 C 
ATOM     21  C   UNL     1      33.619 -12.804 -25.015  0.00  0.00    +0.072 C 
ATOM     22  C   UNL     1      33.985 -15.019 -24.122  0.00  0.00    +0.000 C 
ATOM     23  C   UNL     1      34.028 -14.126 -25.194  0.00  0.00    +0.004 C 
BRANCH  21  27
ATOM     24  F   UNL     1      34.306 -12.347 -27.261  0.00  0.00    -0.166 F 
ATOM     25  F   UNL     1      32.433 -11.469 -26.607  0.00  0.00    -0.166 F 
ATOM     26  F   UNL     1      34.318 -10.691 -25.852  0.00  0.00    -0.166 F 
ATOM     27  C   UNL     1      33.667 -11.850 -26.161  0.00  0.00    +0.419 C 
ENDBRANCH  21  27
ENDBRANCH  10  18
TORSDOF 3
ENDMDL
