MODEL 1
REMARK VINA RESULT:     -11.8      0.000      0.000
REMARK  Name = 24882195
REMARK  2 active torsions:
REMARK  status: ('A' for Active; 'I' for Inactive)
REMARK    1  A    between atoms: C_5  and  N_15
REMARK    2  A    between atoms: N_15  and  C_21
REMARK                            x       y       z     vdW  Elec       q    Type
REMARK                         _______ _______ _______ _____ _____    ______ ____
ROOT
ATOM      1  C   UNL     1      34.697 -22.134 -17.655  0.00  0.00    +0.001 C 
ATOM      2  C   UNL     1      33.353 -21.968 -18.056  0.00  0.00    +0.000 C 
ATOM      3  C   UNL     1      35.429 -20.739 -19.531  0.00  0.00    +0.000 C 
ATOM      4  C   UNL     1      34.086 -20.573 -19.933  0.00  0.00    +0.000 C 
ATOM      5  C   UNL     1      33.959 -23.519 -15.795  0.00  0.00    +0.049 C 
ATOM      6  C   UNL     1      35.717 -21.517 -18.398  0.00  0.00    +0.000 C 
ATOM      7  C   UNL     1      34.984 -22.913 -16.522  0.00  0.00    +0.015 C 
ATOM      8  C   UNL     1      33.064 -21.190 -19.190  0.00  0.00    +0.000 C 
ATOM      9  C   UNL     1      32.333 -22.585 -17.313  0.00  0.00    +0.001 C 
ATOM     10  C   UNL     1      32.635 -23.356 -16.190  0.00  0.00    +0.015 C 
ATOM     11  C   UNL     1      36.449 -20.122 -20.274  0.00  0.00    +0.000 C 
ATOM     12  C   UNL     1      33.798 -19.794 -21.066  0.00  0.00    +0.000 C 
ATOM     13  C   UNL     1      36.147 -19.352 -21.397  0.00  0.00    +0.000 C 
ATOM     14  C   UNL     1      34.824 -19.188 -21.792  0.00  0.00    +0.000 C 
ENDROOT
BRANCH   5  15
ATOM     15  N   UNL     1      34.265 -24.298 -14.659  0.00  0.00    -0.299 N 
ATOM     16  H   UNL     1      33.527 -24.845 -14.304  0.00  0.00    +0.153 HD
BRANCH  15  21
ATOM     17  N   UNL     1      36.283 -25.459 -14.315  0.00  0.00    -0.106 N 
ATOM     18  N   UNL     1      37.950 -24.787 -12.717  0.00  0.00    -0.340 NA
ATOM     19  N   UNL     1      36.100 -26.448 -15.228  0.00  0.00    -0.139 NA
ATOM     20  N   UNL     1      38.102 -26.718 -14.177  0.00  0.00    -0.145 NA
ATOM     21  C   UNL     1      35.436 -24.391 -13.991  0.00  0.00    +0.138 C 
ATOM     22  C   UNL     1      35.834 -23.528 -13.044  0.00  0.00    +0.061 C 
ATOM     23  C   UNL     1      37.517 -25.645 -13.684  0.00  0.00    +0.174 C 
ATOM     24  C   UNL     1      37.163 -23.796 -12.417  0.00  0.00    +0.125 C 
ATOM     25  C   UNL     1      37.622 -22.835 -11.350  0.00  0.00    +0.068 C 
ATOM     26  C   UNL     1      37.213 -27.163 -15.101  0.00  0.00    +0.230 C 
ENDBRANCH  15  21
ENDBRANCH   5  15
TORSDOF 2
ENDMDL
MODEL 2
REMARK VINA RESULT:     -11.7      1.167      2.432
REMARK  Name = 24882195
REMARK  2 active torsions:
REMARK  status: ('A' for Active; 'I' for Inactive)
REMARK    1  A    between atoms: C_5  and  N_15
REMARK    2  A    between atoms: N_15  and  C_21
REMARK                            x       y       z     vdW  Elec       q    Type
REMARK                         _______ _______ _______ _____ _____    ______ ____
ROOT
ATOM      1  C   UNL     1      35.114 -22.401 -17.183  0.00  0.00    +0.001 C 
ATOM      2  C   UNL     1      33.728 -22.424 -17.451  0.00  0.00    +0.000 C 
ATOM      3  C   UNL     1      35.469 -20.968 -19.138  0.00  0.00    +0.000 C 
ATOM      4  C   UNL     1      34.083 -20.990 -19.407  0.00  0.00    +0.000 C 
ATOM      5  C   UNL     1      34.752 -23.824 -15.242  0.00  0.00    +0.049 C 
ATOM      6  C   UNL     1      35.966 -21.673 -18.030  0.00  0.00    +0.000 C 
ATOM      7  C   UNL     1      35.611 -23.107 -16.075  0.00  0.00    +0.015 C 
ATOM      8  C   UNL     1      33.230 -21.718 -18.559  0.00  0.00    +0.000 C 
ATOM      9  C   UNL     1      32.876 -23.151 -16.603  0.00  0.00    +0.001 C 
ATOM     10  C   UNL     1      33.386 -23.847 -15.506  0.00  0.00    +0.015 C 
ATOM     11  C   UNL     1      36.320 -20.241 -19.986  0.00  0.00    +0.000 C 
ATOM     12  C   UNL     1      33.585 -20.285 -20.515  0.00  0.00    +0.000 C 
ATOM     13  C   UNL     1      35.811 -19.545 -21.083  0.00  0.00    +0.000 C 
ATOM     14  C   UNL     1      34.445 -19.567 -21.347  0.00  0.00    +0.000 C 
ENDROOT
BRANCH   5  15
ATOM     15  N   UNL     1      35.268 -24.527 -14.133  0.00  0.00    -0.299 N 
ATOM     16  H   UNL     1      34.600 -24.955 -13.551  0.00  0.00    +0.153 HD
BRANCH  15  21
ATOM     17  N   UNL     1      37.008 -23.969 -12.651  0.00  0.00    -0.106 N 
ATOM     18  N   UNL     1      39.230 -24.875 -12.805  0.00  0.00    -0.340 NA
ATOM     19  N   UNL     1      36.323 -23.103 -11.859  0.00  0.00    -0.139 NA
ATOM     20  N   UNL     1      38.473 -23.288 -11.133  0.00  0.00    -0.145 NA
ATOM     21  C   UNL     1      36.557 -24.690 -13.764  0.00  0.00    +0.138 C 
ATOM     22  C   UNL     1      37.426 -25.495 -14.395  0.00  0.00    +0.061 C 
ATOM     23  C   UNL     1      38.323 -24.067 -12.186  0.00  0.00    +0.174 C 
ATOM     24  C   UNL     1      38.811 -25.544 -13.838  0.00  0.00    +0.125 C 
ATOM     25  C   UNL     1      39.798 -26.443 -14.538  0.00  0.00    +0.068 C 
ATOM     26  C   UNL     1      37.245 -22.733 -10.977  0.00  0.00    +0.230 C 
ENDBRANCH  15  21
ENDBRANCH   5  15
TORSDOF 2
ENDMDL
MODEL 3
REMARK VINA RESULT:     -11.5      3.809      5.344
REMARK  Name = 24882195
REMARK  2 active torsions:
REMARK  status: ('A' for Active; 'I' for Inactive)
REMARK    1  A    between atoms: C_5  and  N_15
REMARK    2  A    between atoms: N_15  and  C_21
REMARK                            x       y       z     vdW  Elec       q    Type
REMARK                         _______ _______ _______ _____ _____    ______ ____
ROOT
ATOM      1  C   UNL     1      33.877 -21.043 -19.429  0.00  0.00    +0.001 C 
ATOM      2  C   UNL     1      35.164 -21.248 -18.885  0.00  0.00    +0.000 C 
ATOM      3  C   UNL     1      34.821 -19.501 -21.082  0.00  0.00    +0.000 C 
ATOM      4  C   UNL     1      36.109 -19.706 -20.539  0.00  0.00    +0.000 C 
ATOM      5  C   UNL     1      32.949 -22.575 -17.782  0.00  0.00    +0.049 C 
ATOM      6  C   UNL     1      33.723 -20.171 -20.520  0.00  0.00    +0.000 C 
ATOM      7  C   UNL     1      32.779 -21.713 -18.865  0.00  0.00    +0.015 C 
ATOM      8  C   UNL     1      36.264 -20.577 -19.447  0.00  0.00    +0.000 C 
ATOM      9  C   UNL     1      35.319 -22.119 -17.794  0.00  0.00    +0.001 C 
ATOM     10  C   UNL     1      34.217 -22.778 -17.246  0.00  0.00    +0.015 C 
ATOM     11  C   UNL     1      34.668 -18.629 -22.173  0.00  0.00    +0.000 C 
ATOM     12  C   UNL     1      37.207 -19.035 -21.102  0.00  0.00    +0.000 C 
ATOM     13  C   UNL     1      35.768 -17.971 -22.721  0.00  0.00    +0.000 C 
ATOM     14  C   UNL     1      37.036 -18.173 -22.186  0.00  0.00    +0.000 C 
ENDROOT
BRANCH   5  15
ATOM     15  N   UNL     1      31.835 -23.241 -17.229  0.00  0.00    -0.299 N 
ATOM     16  H   UNL     1      31.371 -23.868 -17.829  0.00  0.00    +0.153 HD
BRANCH  15  21
ATOM     17  N   UNL     1      29.956 -22.840 -15.871  0.00  0.00    -0.106 N 
ATOM     18  N   UNL     1      30.022 -22.857 -13.467  0.00  0.00    -0.340 NA
ATOM     19  N   UNL     1      29.039 -22.642 -16.854  0.00  0.00    -0.139 NA
ATOM     20  N   UNL     1      28.050 -22.433 -14.815  0.00  0.00    -0.145 NA
ATOM     21  C   UNL     1      31.321 -23.133 -15.984  0.00  0.00    +0.138 C 
ATOM     22  C   UNL     1      32.034 -23.287 -14.858  0.00  0.00    +0.061 C 
ATOM     23  C   UNL     1      29.326 -22.707 -14.629  0.00  0.00    +0.174 C 
ATOM     24  C   UNL     1      31.289 -23.129 -13.573  0.00  0.00    +0.125 C 
ATOM     25  C   UNL     1      32.078 -23.299 -12.300  0.00  0.00    +0.068 C 
ATOM     26  C   UNL     1      27.928 -22.405 -16.165  0.00  0.00    +0.230 C 
ENDBRANCH  15  21
ENDBRANCH   5  15
TORSDOF 2
ENDMDL
MODEL 4
REMARK VINA RESULT:     -11.5      2.657      4.609
REMARK  Name = 24882195
REMARK  2 active torsions:
REMARK  status: ('A' for Active; 'I' for Inactive)
REMARK    1  A    between atoms: C_5  and  N_15
REMARK    2  A    between atoms: N_15  and  C_21
REMARK                            x       y       z     vdW  Elec       q    Type
REMARK                         _______ _______ _______ _____ _____    ______ ____
ROOT
ATOM      1  C   UNL     1      34.176 -21.248 -19.386  0.00  0.00    +0.001 C 
ATOM      2  C   UNL     1      35.494 -21.073 -18.910  0.00  0.00    +0.000 C 
ATOM      3  C   UNL     1      34.615 -19.651 -21.191  0.00  0.00    +0.000 C 
ATOM      4  C   UNL     1      35.934 -19.474 -20.715  0.00  0.00    +0.000 C 
ATOM      5  C   UNL     1      33.750 -22.834 -17.590  0.00  0.00    +0.049 C 
ATOM      6  C   UNL     1      33.754 -20.534 -20.520  0.00  0.00    +0.000 C 
ATOM      7  C   UNL     1      33.316 -22.132 -18.715  0.00  0.00    +0.015 C 
ATOM      8  C   UNL     1      36.356 -20.188 -19.581  0.00  0.00    +0.000 C 
ATOM      9  C   UNL     1      35.916 -21.787 -17.777  0.00  0.00    +0.001 C 
ATOM     10  C   UNL     1      35.049 -22.662 -17.121  0.00  0.00    +0.015 C 
ATOM     11  C   UNL     1      34.194 -18.936 -22.324  0.00  0.00    +0.000 C 
ATOM     12  C   UNL     1      36.795 -18.591 -21.386  0.00  0.00    +0.000 C 
ATOM     13  C   UNL     1      35.061 -18.061 -22.979  0.00  0.00    +0.000 C 
ATOM     14  C   UNL     1      36.360 -17.889 -22.511  0.00  0.00    +0.000 C 
ENDROOT
BRANCH   5  15
ATOM     15  N   UNL     1      32.873 -23.719 -16.928  0.00  0.00    -0.299 N 
ATOM     16  H   UNL     1      32.899 -24.654 -17.232  0.00  0.00    +0.153 HD
BRANCH  15  21
ATOM     17  N   UNL     1      32.448 -23.611 -14.616  0.00  0.00    -0.106 N 
ATOM     18  N   UNL     1      30.336 -22.946 -13.679  0.00  0.00    -0.340 NA
ATOM     19  N   UNL     1      33.670 -24.007 -14.172  0.00  0.00    -0.139 NA
ATOM     20  N   UNL     1      32.297 -23.589 -12.404  0.00  0.00    -0.145 NA
ATOM     21  C   UNL     1      31.999 -23.451 -15.933  0.00  0.00    +0.138 C 
ATOM     22  C   UNL     1      30.735 -23.044 -16.129  0.00  0.00    +0.061 C 
ATOM     23  C   UNL     1      31.624 -23.359 -13.515  0.00  0.00    +0.174 C 
ATOM     24  C   UNL     1      29.919 -22.798 -14.902  0.00  0.00    +0.125 C 
ATOM     25  C   UNL     1      28.497 -22.342 -15.108  0.00  0.00    +0.068 C 
ATOM     26  C   UNL     1      33.518 -23.973 -12.852  0.00  0.00    +0.230 C 
ENDBRANCH  15  21
ENDBRANCH   5  15
TORSDOF 2
ENDMDL
MODEL 5
REMARK VINA RESULT:     -11.2      1.846      2.829
REMARK  Name = 24882195
REMARK  2 active torsions:
REMARK  status: ('A' for Active; 'I' for Inactive)
REMARK    1  A    between atoms: C_5  and  N_15
REMARK    2  A    between atoms: N_15  and  C_21
REMARK                            x       y       z     vdW  Elec       q    Type
REMARK                         _______ _______ _______ _____ _____    ______ ____
ROOT
ATOM      1  C   UNL     1      35.608 -21.129 -18.768  0.00  0.00    +0.001 C 
ATOM      2  C   UNL     1      34.250 -21.317 -19.103  0.00  0.00    +0.000 C 
ATOM      3  C   UNL     1      35.889 -19.677 -20.722  0.00  0.00    +0.000 C 
ATOM      4  C   UNL     1      34.530 -19.865 -21.058  0.00  0.00    +0.000 C 
ATOM      5  C   UNL     1      35.319 -22.572 -16.830  0.00  0.00    +0.049 C 
ATOM      6  C   UNL     1      36.410 -20.312 -19.582  0.00  0.00    +0.000 C 
ATOM      7  C   UNL     1      36.129 -21.764 -17.629  0.00  0.00    +0.015 C 
ATOM      8  C   UNL     1      33.727 -20.683 -20.244  0.00  0.00    +0.000 C 
ATOM      9  C   UNL     1      33.448 -22.134 -18.289  0.00  0.00    +0.001 C 
ATOM     10  C   UNL     1      33.980 -22.758 -17.160  0.00  0.00    +0.015 C 
ATOM     11  C   UNL     1      36.690 -18.861 -21.537  0.00  0.00    +0.000 C 
ATOM     12  C   UNL     1      34.009 -19.231 -22.197  0.00  0.00    +0.000 C 
ATOM     13  C   UNL     1      36.158 -18.237 -22.665  0.00  0.00    +0.000 C 
ATOM     14  C   UNL     1      34.819 -18.422 -22.995  0.00  0.00    +0.000 C 
ENDROOT
BRANCH   5  15
ATOM     15  N   UNL     1      35.858 -23.202 -15.688  0.00  0.00    -0.299 N 
ATOM     16  H   UNL     1      36.812 -23.440 -15.742  0.00  0.00    +0.153 HD
BRANCH  15  21
ATOM     17  N   UNL     1      35.976 -23.405 -13.347  0.00  0.00    -0.106 N 
ATOM     18  N   UNL     1      34.140 -24.145 -11.981  0.00  0.00    -0.340 NA
ATOM     19  N   UNL     1      37.262 -23.002 -13.178  0.00  0.00    -0.139 NA
ATOM     20  N   UNL     1      36.334 -23.513 -11.162  0.00  0.00    -0.145 NA
ATOM     21  C   UNL     1      35.238 -23.524 -14.532  0.00  0.00    +0.138 C 
ATOM     22  C   UNL     1      33.968 -23.947 -14.451  0.00  0.00    +0.061 C 
ATOM     23  C   UNL     1      35.427 -23.712 -12.098  0.00  0.00    +0.174 C 
ATOM     24  C   UNL     1      33.456 -24.255 -13.081  0.00  0.00    +0.125 C 
ATOM     25  C   UNL     1      32.030 -24.733 -12.976  0.00  0.00    +0.068 C 
ATOM     26  C   UNL     1      37.416 -23.087 -11.861  0.00  0.00    +0.230 C 
ENDBRANCH  15  21
ENDBRANCH   5  15
TORSDOF 2
ENDMDL
MODEL 6
REMARK VINA RESULT:     -11.1      2.689      4.008
REMARK  Name = 24882195
REMARK  2 active torsions:
REMARK  status: ('A' for Active; 'I' for Inactive)
REMARK    1  A    between atoms: C_5  and  N_15
REMARK    2  A    between atoms: N_15  and  C_21
REMARK                            x       y       z     vdW  Elec       q    Type
REMARK                         _______ _______ _______ _____ _____    ______ ____
ROOT
ATOM      1  C   UNL     1      34.088 -21.206 -19.187  0.00  0.00    +0.001 C 
ATOM      2  C   UNL     1      35.447 -21.181 -18.806  0.00  0.00    +0.000 C 
ATOM      3  C   UNL     1      34.589 -19.725 -21.073  0.00  0.00    +0.000 C 
ATOM      4  C   UNL     1      35.949 -19.700 -20.693  0.00  0.00    +0.000 C 
ATOM      5  C   UNL     1      33.600 -22.676 -17.310  0.00  0.00    +0.049 C 
ATOM      6  C   UNL     1      33.677 -20.477 -20.315  0.00  0.00    +0.000 C 
ATOM      7  C   UNL     1      33.176 -21.957 -18.428  0.00  0.00    +0.015 C 
ATOM      8  C   UNL     1      36.361 -20.429 -19.564  0.00  0.00    +0.000 C 
ATOM      9  C   UNL     1      35.859 -21.910 -17.678  0.00  0.00    +0.001 C 
ATOM     10  C   UNL     1      34.940 -22.652 -16.934  0.00  0.00    +0.015 C 
ATOM     11  C   UNL     1      34.179 -18.996 -22.201  0.00  0.00    +0.000 C 
ATOM     12  C   UNL     1      36.862 -18.949 -21.452  0.00  0.00    +0.000 C 
ATOM     13  C   UNL     1      35.098 -18.254 -22.944  0.00  0.00    +0.000 C 
ATOM     14  C   UNL     1      36.437 -18.231 -22.570  0.00  0.00    +0.000 C 
ENDROOT
BRANCH   5  15
ATOM     15  N   UNL     1      32.670 -23.426 -16.559  0.00  0.00    -0.299 N 
ATOM     16  H   UNL     1      31.883 -23.750 -17.054  0.00  0.00    +0.153 HD
BRANCH  15  21
ATOM     17  N   UNL     1      31.535 -24.221 -14.657  0.00  0.00    -0.106 N 
ATOM     18  N   UNL     1      32.576 -24.513 -12.510  0.00  0.00    -0.340 NA
ATOM     19  N   UNL     1      30.309 -24.395 -15.217  0.00  0.00    -0.139 NA
ATOM     20  N   UNL     1      30.252 -24.986 -13.019  0.00  0.00    -0.145 NA
ATOM     21  C   UNL     1      32.716 -23.757 -15.250  0.00  0.00    +0.138 C 
ATOM     22  C   UNL     1      33.818 -23.670 -14.489  0.00  0.00    +0.061 C 
ATOM     23  C   UNL     1      31.476 -24.591 -13.310  0.00  0.00    +0.174 C 
ATOM     24  C   UNL     1      33.672 -24.083 -13.060  0.00  0.00    +0.125 C 
ATOM     25  C   UNL     1      34.902 -23.988 -12.193  0.00  0.00    +0.068 C 
ATOM     26  C   UNL     1      29.591 -24.851 -14.196  0.00  0.00    +0.230 C 
ENDBRANCH  15  21
ENDBRANCH   5  15
TORSDOF 2
ENDMDL
MODEL 7
REMARK VINA RESULT:     -11.0      1.152      2.074
REMARK  Name = 24882195
REMARK  2 active torsions:
REMARK  status: ('A' for Active; 'I' for Inactive)
REMARK    1  A    between atoms: C_5  and  N_15
REMARK    2  A    between atoms: N_15  and  C_21
REMARK                            x       y       z     vdW  Elec       q    Type
REMARK                         _______ _______ _______ _____ _____    ______ ____
ROOT
ATOM      1  C   UNL     1      34.879 -21.923 -17.894  0.00  0.00    +0.001 C 
ATOM      2  C   UNL     1      36.232 -21.521 -17.860  0.00  0.00    +0.000 C 
ATOM      3  C   UNL     1      34.543 -20.624 -19.943  0.00  0.00    +0.000 C 
ATOM      4  C   UNL     1      35.896 -20.221 -19.911  0.00  0.00    +0.000 C 
ATOM      5  C   UNL     1      35.223 -23.210 -15.857  0.00  0.00    +0.049 C 
ATOM      6  C   UNL     1      34.052 -21.469 -18.934  0.00  0.00    +0.000 C 
ATOM      7  C   UNL     1      34.389 -22.768 -16.884  0.00  0.00    +0.015 C 
ATOM      8  C   UNL     1      36.724 -20.675 -18.869  0.00  0.00    +0.000 C 
ATOM      9  C   UNL     1      37.059 -21.975 -16.819  0.00  0.00    +0.001 C 
ATOM     10  C   UNL     1      36.557 -22.814 -15.824  0.00  0.00    +0.015 C 
ATOM     11  C   UNL     1      33.717 -20.169 -20.984  0.00  0.00    +0.000 C 
ATOM     12  C   UNL     1      36.387 -19.377 -20.920  0.00  0.00    +0.000 C 
ATOM     13  C   UNL     1      34.219 -19.331 -21.979  0.00  0.00    +0.000 C 
ATOM     14  C   UNL     1      35.552 -18.935 -21.947  0.00  0.00    +0.000 C 
ENDROOT
BRANCH   5  15
ATOM     15  N   UNL     1      34.714 -24.059 -14.851  0.00  0.00    -0.299 N 
ATOM     16  H   UNL     1      33.759 -24.285 -14.925  0.00  0.00    +0.153 HD
BRANCH  15  21
ATOM     17  N   UNL     1      36.139 -25.744 -14.034  0.00  0.00    -0.106 N 
ATOM     18  N   UNL     1      36.819 -25.913 -11.734  0.00  0.00    -0.340 NA
ATOM     19  N   UNL     1      36.344 -26.412 -15.200  0.00  0.00    -0.139 NA
ATOM     20  N   UNL     1      37.489 -27.423 -13.511  0.00  0.00    -0.145 NA
ATOM     21  C   UNL     1      35.364 -24.601 -13.798  0.00  0.00    +0.138 C 
ATOM     22  C   UNL     1      35.312 -24.115 -12.549  0.00  0.00    +0.061 C 
ATOM     23  C   UNL     1      36.852 -26.382 -13.013  0.00  0.00    +0.174 C 
ATOM     24  C   UNL     1      36.100 -24.852 -11.515  0.00  0.00    +0.125 C 
ATOM     25  C   UNL     1      36.050 -24.317 -10.107  0.00  0.00    +0.068 C 
ATOM     26  C   UNL     1      37.153 -27.397 -14.825  0.00  0.00    +0.230 C 
ENDBRANCH  15  21
ENDBRANCH   5  15
TORSDOF 2
ENDMDL
MODEL 8
REMARK VINA RESULT:     -11.0     10.065     14.020
REMARK  Name = 24882195
REMARK  2 active torsions:
REMARK  status: ('A' for Active; 'I' for Inactive)
REMARK    1  A    between atoms: C_5  and  N_15
REMARK    2  A    between atoms: N_15  and  C_21
REMARK                            x       y       z     vdW  Elec       q    Type
REMARK                         _______ _______ _______ _____ _____    ______ ____
ROOT
ATOM      1  C   UNL     1      34.336 -14.332 -23.075  0.00  0.00    +0.001 C 
ATOM      2  C   UNL     1      34.029 -15.003 -24.278  0.00  0.00    +0.000 C 
ATOM      3  C   UNL     1      34.976 -16.463 -22.049  0.00  0.00    +0.000 C 
ATOM      4  C   UNL     1      34.669 -17.135 -23.253  0.00  0.00    +0.000 C 
ATOM      5  C   UNL     1      33.697 -12.220 -24.102  0.00  0.00    +0.049 C 
ATOM      6  C   UNL     1      34.805 -15.071 -21.976  0.00  0.00    +0.000 C 
ATOM      7  C   UNL     1      34.164 -12.940 -23.002  0.00  0.00    +0.015 C 
ATOM      8  C   UNL     1      34.199 -16.396 -24.352  0.00  0.00    +0.000 C 
ATOM      9  C   UNL     1      33.560 -14.265 -25.377  0.00  0.00    +0.001 C 
ATOM     10  C   UNL     1      33.395 -12.882 -25.289  0.00  0.00    +0.015 C 
ATOM     11  C   UNL     1      35.444 -17.203 -20.951  0.00  0.00    +0.000 C 
ATOM     12  C   UNL     1      34.840 -18.527 -23.326  0.00  0.00    +0.000 C 
ATOM     13  C   UNL     1      35.609 -18.585 -21.039  0.00  0.00    +0.000 C 
ATOM     14  C   UNL     1      35.308 -19.246 -22.225  0.00  0.00    +0.000 C 
ENDROOT
BRANCH   5  15
ATOM     15  N   UNL     1      33.531 -10.822 -24.012  0.00  0.00    -0.299 N 
ATOM     16  H   UNL     1      33.738 -10.314 -24.829  0.00  0.00    +0.153 HD
BRANCH  15  21
ATOM     17  N   UNL     1      33.586  -8.767 -22.867  0.00  0.00    -0.106 N 
ATOM     18  N   UNL     1      32.408  -8.357 -20.811  0.00  0.00    -0.340 NA
ATOM     19  N   UNL     1      34.402  -8.089 -23.716  0.00  0.00    -0.139 NA
ATOM     20  N   UNL     1      33.795  -6.747 -21.980  0.00  0.00    -0.145 NA
ATOM     21  C   UNL     1      33.128 -10.088 -22.952  0.00  0.00    +0.138 C 
ATOM     22  C   UNL     1      32.319 -10.545 -21.983  0.00  0.00    +0.061 C 
ATOM     23  C   UNL     1      33.226  -7.924 -21.811  0.00  0.00    +0.174 C 
ATOM     24  C   UNL     1      31.983  -9.583 -20.891  0.00  0.00    +0.125 C 
ATOM     25  C   UNL     1      31.077 -10.084 -19.795  0.00  0.00    +0.068 C 
ATOM     26  C   UNL     1      34.488  -6.896 -23.137  0.00  0.00    +0.230 C 
ENDBRANCH  15  21
ENDBRANCH   5  15
TORSDOF 2
ENDMDL
MODEL 9
REMARK VINA RESULT:     -10.9      6.042     10.381
REMARK  Name = 24882195
REMARK  2 active torsions:
REMARK  status: ('A' for Active; 'I' for Inactive)
REMARK    1  A    between atoms: C_5  and  N_15
REMARK    2  A    between atoms: N_15  and  C_21
REMARK                            x       y       z     vdW  Elec       q    Type
REMARK                         _______ _______ _______ _____ _____    ______ ____
ROOT
ATOM      1  C   UNL     1      34.675 -19.614 -20.804  0.00  0.00    +0.001 C 
ATOM      2  C   UNL     1      35.985 -19.846 -20.330  0.00  0.00    +0.000 C 
ATOM      3  C   UNL     1      33.794 -21.170 -19.130  0.00  0.00    +0.000 C 
ATOM      4  C   UNL     1      35.104 -21.403 -18.655  0.00  0.00    +0.000 C 
ATOM      5  C   UNL     1      35.560 -18.070 -22.464  0.00  0.00    +0.049 C 
ATOM      6  C   UNL     1      33.597 -20.280 -20.198  0.00  0.00    +0.000 C 
ATOM      7  C   UNL     1      34.479 -18.724 -21.872  0.00  0.00    +0.015 C 
ATOM      8  C   UNL     1      36.183 -20.737 -19.262  0.00  0.00    +0.000 C 
ATOM      9  C   UNL     1      37.063 -19.181 -20.937  0.00  0.00    +0.001 C 
ATOM     10  C   UNL     1      36.852 -18.298 -21.997  0.00  0.00    +0.015 C 
ATOM     11  C   UNL     1      32.717 -21.836 -18.523  0.00  0.00    +0.000 C 
ATOM     12  C   UNL     1      35.300 -22.293 -17.587  0.00  0.00    +0.000 C 
ATOM     13  C   UNL     1      32.928 -22.718 -17.463  0.00  0.00    +0.000 C 
ATOM     14  C   UNL     1      34.218 -22.946 -16.996  0.00  0.00    +0.000 C 
ENDROOT
BRANCH   5  15
ATOM     15  N   UNL     1      35.346 -17.179 -23.536  0.00  0.00    -0.299 N 
ATOM     16  H   UNL     1      35.683 -17.475 -24.412  0.00  0.00    +0.153 HD
BRANCH  15  21
ATOM     17  N   UNL     1      34.549 -15.359 -22.274  0.00  0.00    -0.106 N 
ATOM     18  N   UNL     1      33.488 -13.431 -23.242  0.00  0.00    -0.340 NA
ATOM     19  N   UNL     1      34.892 -15.810 -21.039  0.00  0.00    -0.139 NA
ATOM     20  N   UNL     1      33.884 -13.775 -20.873  0.00  0.00    -0.145 NA
ATOM     21  C   UNL     1      34.740 -15.971 -23.519  0.00  0.00    +0.138 C 
ATOM     22  C   UNL     1      34.313 -15.328 -24.617  0.00  0.00    +0.061 C 
ATOM     23  C   UNL     1      33.933 -14.110 -22.147  0.00  0.00    +0.174 C 
ATOM     24  C   UNL     1      33.666 -13.999 -24.397  0.00  0.00    +0.125 C 
ATOM     25  C   UNL     1      33.180 -13.265 -25.622  0.00  0.00    +0.068 C 
ATOM     26  C   UNL     1      34.472 -14.827 -20.250  0.00  0.00    +0.230 C 
ENDBRANCH  15  21
ENDBRANCH   5  15
TORSDOF 2
ENDMDL
