MODEL 1
REMARK VINA RESULT:     -10.9      0.000      0.000
REMARK  Name = 456199
REMARK  5 active torsions:
REMARK  status: ('A' for Active; 'I' for Inactive)
REMARK    1  A    between atoms: O_1  and  C_5
REMARK    2  A    between atoms: O_1  and  C_14
REMARK    3  A    between atoms: C_14  and  C_15
REMARK    4  A    between atoms: C_20  and  O_21
REMARK    5  A    between atoms: O_21  and  C_25
REMARK                            x       y       z     vdW  Elec       q    Type
REMARK                         _______ _______ _______ _____ _____    ______ ____
ROOT
ATOM      1  O   UNL     1      34.997 -22.887 -17.018  0.00  0.00    -0.346 OA
ENDROOT
BRANCH   1   5
ATOM      2  O   UNL     1      33.359 -23.604 -13.795  0.00  0.00    -0.438 OA
ATOM      3  N   UNL     1      35.719 -23.843 -13.565  0.00  0.00    -0.242 N 
ATOM      4  N   UNL     1      34.427 -24.247 -11.808  0.00  0.00    -0.333 NA
ATOM      5  C   UNL     1      34.793 -23.585 -15.799  0.00  0.00    +0.179 C 
ATOM      6  C   UNL     1      36.044 -23.503 -14.930  0.00  0.00    +0.130 C 
ATOM      7  C   UNL     1      33.609 -22.967 -15.054  0.00  0.00    +0.241 C 
ATOM      8  C   UNL     1      34.444 -23.872 -13.068  0.00  0.00    +0.345 C 
ATOM      9  C   UNL     1      36.572 -24.198 -12.566  0.00  0.00    +0.181 C 
ATOM     10  C   UNL     1      35.751 -24.442 -11.487  0.00  0.00    +0.274 C 
ATOM     11  O   UNL     1      37.323 -25.005  -9.903  0.00  0.00    -0.124 OA
ATOM     12  O   UNL     1      35.202 -25.012  -9.326  0.00  0.00    -0.124 OA
ATOM     13  N   UNL     1      36.106 -24.835 -10.190  0.00  0.00    +0.085 N 
ENDBRANCH   1   5
BRANCH   1  14
ATOM     14  C   UNL     1      33.762 -22.550 -17.633  0.00  0.00    +0.169 C 
BRANCH  14  15
ATOM     15  C   UNL     1      34.022 -21.602 -18.766  0.00  0.00    +0.007 C 
ATOM     16  C   UNL     1      32.954 -20.990 -19.411  0.00  0.00    +0.001 C 
ATOM     17  C   UNL     1      35.330 -21.345 -19.161  0.00  0.00    +0.001 C 
ATOM     18  C   UNL     1      33.196 -20.109 -20.465  0.00  0.00    +0.037 C 
ATOM     19  C   UNL     1      35.574 -20.464 -20.215  0.00  0.00    +0.037 C 
ATOM     20  C   UNL     1      34.506 -19.846 -20.866  0.00  0.00    +0.147 C 
BRANCH  20  21
ATOM     21  O   UNL     1      34.742 -18.986 -21.895  0.00  0.00    -0.404 OA
BRANCH  21  25
ATOM     22  F   UNL     1      35.385 -17.359 -20.421  0.00  0.00    -0.133 F 
ATOM     23  F   UNL     1      35.295 -16.899 -22.556  0.00  0.00    -0.133 F 
ATOM     24  F   UNL     1      36.888 -18.197 -21.809  0.00  0.00    -0.133 F 
ATOM     25  C   UNL     1      35.587 -17.866 -21.656  0.00  0.00    +0.575 C 
ENDBRANCH  21  25
ENDBRANCH  20  21
ENDBRANCH  14  15
ENDBRANCH   1  14
TORSDOF 5
ENDMDL
MODEL 2
REMARK VINA RESULT:     -10.8      1.119      1.695
REMARK  Name = 456199
REMARK  5 active torsions:
REMARK  status: ('A' for Active; 'I' for Inactive)
REMARK    1  A    between atoms: O_1  and  C_5
REMARK    2  A    between atoms: O_1  and  C_14
REMARK    3  A    between atoms: C_14  and  C_15
REMARK    4  A    between atoms: C_20  and  O_21
REMARK    5  A    between atoms: O_21  and  C_25
REMARK                            x       y       z     vdW  Elec       q    Type
REMARK                         _______ _______ _______ _____ _____    ______ ____
ROOT
ATOM      1  O   UNL     1      32.994 -22.664 -17.155  0.00  0.00    -0.346 OA
ENDROOT
BRANCH   1   5
ATOM      2  O   UNL     1      32.304 -23.971 -13.778  0.00  0.00    -0.438 OA
ATOM      3  N   UNL     1      34.633 -23.517 -14.001  0.00  0.00    -0.242 N 
ATOM      4  N   UNL     1      33.886 -24.359 -12.091  0.00  0.00    -0.333 NA
ATOM      5  C   UNL     1      33.243 -23.444 -15.996  0.00  0.00    +0.179 C 
ATOM      6  C   UNL     1      34.569 -23.037 -15.362  0.00  0.00    +0.130 C 
ATOM      7  C   UNL     1      32.108 -23.235 -14.992  0.00  0.00    +0.241 C 
ATOM      8  C   UNL     1      33.544 -23.941 -13.289  0.00  0.00    +0.345 C 
ATOM      9  C   UNL     1      35.734 -23.649 -13.213  0.00  0.00    +0.181 C 
ATOM     10  C   UNL     1      35.248 -24.171 -12.034  0.00  0.00    +0.274 C 
ATOM     11  O   UNL     1      37.200 -24.317 -10.823  0.00  0.00    -0.124 OA
ATOM     12  O   UNL     1      35.328 -24.972  -9.878  0.00  0.00    -0.124 OA
ATOM     13  N   UNL     1      35.952 -24.499 -10.869  0.00  0.00    +0.085 N 
ENDBRANCH   1   5
BRANCH   1  14
ATOM     14  C   UNL     1      33.844 -23.046 -18.226  0.00  0.00    +0.169 C 
BRANCH  14  15
ATOM     15  C   UNL     1      34.187 -21.829 -19.036  0.00  0.00    +0.007 C 
ATOM     16  C   UNL     1      35.518 -21.471 -19.209  0.00  0.00    +0.001 C 
ATOM     17  C   UNL     1      33.169 -21.072 -19.603  0.00  0.00    +0.001 C 
ATOM     18  C   UNL     1      35.837 -20.340 -19.962  0.00  0.00    +0.037 C 
ATOM     19  C   UNL     1      33.486 -19.941 -20.356  0.00  0.00    +0.037 C 
ATOM     20  C   UNL     1      34.820 -19.576 -20.535  0.00  0.00    +0.147 C 
BRANCH  20  21
ATOM     21  O   UNL     1      35.132 -18.472 -21.269  0.00  0.00    -0.404 OA
BRANCH  21  25
ATOM     22  F   UNL     1      35.089 -19.801 -23.129  0.00  0.00    -0.133 F 
ATOM     23  F   UNL     1      36.929 -18.743 -22.608  0.00  0.00    -0.133 F 
ATOM     24  F   UNL     1      35.229 -17.611 -23.386  0.00  0.00    -0.133 F 
ATOM     25  C   UNL     1      35.579 -18.658 -22.607  0.00  0.00    +0.575 C 
ENDBRANCH  21  25
ENDBRANCH  20  21
ENDBRANCH  14  15
ENDBRANCH   1  14
TORSDOF 5
ENDMDL
MODEL 3
REMARK VINA RESULT:     -10.8      6.711     11.274
REMARK  Name = 456199
REMARK  5 active torsions:
REMARK  status: ('A' for Active; 'I' for Inactive)
REMARK    1  A    between atoms: O_1  and  C_5
REMARK    2  A    between atoms: O_1  and  C_14
REMARK    3  A    between atoms: C_14  and  C_15
REMARK    4  A    between atoms: C_20  and  O_21
REMARK    5  A    between atoms: O_21  and  C_25
REMARK                            x       y       z     vdW  Elec       q    Type
REMARK                         _______ _______ _______ _____ _____    ______ ____
ROOT
ATOM      1  O   UNL     1      35.369 -19.006 -22.364  0.00  0.00    -0.346 OA
ENDROOT
BRANCH   1   5
ATOM      2  O   UNL     1      33.977 -16.887 -25.040  0.00  0.00    -0.438 OA
ATOM      3  N   UNL     1      34.621 -15.525 -23.193  0.00  0.00    -0.242 N 
ATOM      4  N   UNL     1      33.701 -14.559 -24.965  0.00  0.00    -0.333 NA
ATOM      5  C   UNL     1      34.601 -17.939 -22.901  0.00  0.00    +0.179 C 
ATOM      6  C   UNL     1      35.107 -16.604 -22.365  0.00  0.00    +0.130 C 
ATOM      7  C   UNL     1      34.707 -17.956 -24.426  0.00  0.00    +0.241 C 
ATOM      8  C   UNL     1      34.102 -15.699 -24.448  0.00  0.00    +0.345 C 
ATOM      9  C   UNL     1      34.570 -14.199 -22.893  0.00  0.00    +0.181 C 
ATOM     10  C   UNL     1      33.999 -13.619 -24.004  0.00  0.00    +0.274 C 
ATOM     11  O   UNL     1      34.000 -11.411 -23.354  0.00  0.00    -0.124 OA
ATOM     12  O   UNL     1      33.185 -11.923 -25.330  0.00  0.00    -0.124 OA
ATOM     13  N   UNL     1      33.717 -12.267 -24.237  0.00  0.00    +0.085 N 
ENDBRANCH   1   5
BRANCH   1  14
ATOM     14  C   UNL     1      35.587 -18.836 -20.971  0.00  0.00    +0.169 C 
BRANCH  14  15
ATOM     15  C   UNL     1      35.007 -20.010 -20.239  0.00  0.00    +0.007 C 
ATOM     16  C   UNL     1      35.847 -20.863 -19.533  0.00  0.00    +0.001 C 
ATOM     17  C   UNL     1      33.636 -20.233 -20.273  0.00  0.00    +0.001 C 
ATOM     18  C   UNL     1      35.308 -21.955 -18.852  0.00  0.00    +0.037 C 
ATOM     19  C   UNL     1      33.096 -21.325 -19.593  0.00  0.00    +0.037 C 
ATOM     20  C   UNL     1      33.932 -22.185 -18.882  0.00  0.00    +0.147 C 
BRANCH  20  21
ATOM     21  O   UNL     1      33.407 -23.251 -18.217  0.00  0.00    -0.404 OA
BRANCH  21  25
ATOM     22  F   UNL     1      33.768 -22.635 -16.045  0.00  0.00    -0.133 F 
ATOM     23  F   UNL     1      32.294 -24.186 -16.490  0.00  0.00    -0.133 F 
ATOM     24  F   UNL     1      31.845 -22.108 -16.998  0.00  0.00    -0.133 F 
ATOM     25  C   UNL     1      32.833 -23.028 -16.935  0.00  0.00    +0.575 C 
ENDBRANCH  21  25
ENDBRANCH  20  21
ENDBRANCH  14  15
ENDBRANCH   1  14
TORSDOF 5
ENDMDL
MODEL 4
REMARK VINA RESULT:     -10.3      1.472      2.066
REMARK  Name = 456199
REMARK  5 active torsions:
REMARK  status: ('A' for Active; 'I' for Inactive)
REMARK    1  A    between atoms: O_1  and  C_5
REMARK    2  A    between atoms: O_1  and  C_14
REMARK    3  A    between atoms: C_14  and  C_15
REMARK    4  A    between atoms: C_20  and  O_21
REMARK    5  A    between atoms: O_21  and  C_25
REMARK                            x       y       z     vdW  Elec       q    Type
REMARK                         _______ _______ _______ _____ _____    ______ ____
ROOT
ATOM      1  O   UNL     1      34.392 -23.287 -17.255  0.00  0.00    -0.346 OA
ENDROOT
BRANCH   1   5
ATOM      2  O   UNL     1      36.606 -22.285 -14.483  0.00  0.00    -0.438 OA
ATOM      3  N   UNL     1      35.050 -23.919 -13.715  0.00  0.00    -0.242 N 
ATOM      4  N   UNL     1      36.507 -23.069 -12.275  0.00  0.00    -0.333 NA
ATOM      5  C   UNL     1      34.711 -22.940 -15.915  0.00  0.00    +0.179 C 
ATOM      6  C   UNL     1      34.372 -24.095 -14.978  0.00  0.00    +0.130 C 
ATOM      7  C   UNL     1      36.202 -22.618 -15.816  0.00  0.00    +0.241 C 
ATOM      8  C   UNL     1      36.101 -23.062 -13.525  0.00  0.00    +0.345 C 
ATOM      9  C   UNL     1      34.777 -24.526 -12.528  0.00  0.00    +0.181 C 
ATOM     10  C   UNL     1      35.692 -23.986 -11.651  0.00  0.00    +0.274 C 
ATOM     11  O   UNL     1      35.118 -25.111  -9.726  0.00  0.00    -0.124 OA
ATOM     12  O   UNL     1      36.768 -23.662  -9.642  0.00  0.00    -0.124 OA
ATOM     13  N   UNL     1      35.865 -24.264 -10.289  0.00  0.00    +0.085 N 
ENDBRANCH   1   5
BRANCH   1  14
ATOM     14  C   UNL     1      33.312 -22.507 -17.747  0.00  0.00    +0.169 C 
BRANCH  14  15
ATOM     15  C   UNL     1      33.826 -21.570 -18.800  0.00  0.00    +0.007 C 
ATOM     16  C   UNL     1      35.190 -21.506 -19.058  0.00  0.00    +0.001 C 
ATOM     17  C   UNL     1      32.932 -20.774 -19.507  0.00  0.00    +0.001 C 
ATOM     18  C   UNL     1      35.668 -20.634 -20.037  0.00  0.00    +0.037 C 
ATOM     19  C   UNL     1      33.409 -19.902 -20.486  0.00  0.00    +0.037 C 
ATOM     20  C   UNL     1      34.777 -19.832 -20.751  0.00  0.00    +0.147 C 
BRANCH  20  21
ATOM     21  O   UNL     1      35.243 -18.982 -21.706  0.00  0.00    -0.404 OA
BRANCH  21  25
ATOM     22  F   UNL     1      34.981 -17.991 -23.750  0.00  0.00    -0.133 F 
ATOM     23  F   UNL     1      33.377 -19.240 -22.949  0.00  0.00    -0.133 F 
ATOM     24  F   UNL     1      35.219 -20.185 -23.651  0.00  0.00    -0.133 F 
ATOM     25  C   UNL     1      34.720 -19.098 -23.024  0.00  0.00    +0.575 C 
ENDBRANCH  21  25
ENDBRANCH  20  21
ENDBRANCH  14  15
ENDBRANCH   1  14
TORSDOF 5
ENDMDL
MODEL 5
REMARK VINA RESULT:     -10.2      9.780     13.427
REMARK  Name = 456199
REMARK  5 active torsions:
REMARK  status: ('A' for Active; 'I' for Inactive)
REMARK    1  A    between atoms: O_1  and  C_5
REMARK    2  A    between atoms: O_1  and  C_14
REMARK    3  A    between atoms: C_14  and  C_15
REMARK    4  A    between atoms: C_20  and  O_21
REMARK    5  A    between atoms: O_21  and  C_25
REMARK                            x       y       z     vdW  Elec       q    Type
REMARK                         _______ _______ _______ _____ _____    ______ ____
ROOT
ATOM      1  O   UNL     1      33.426 -11.368 -24.284  0.00  0.00    -0.346 OA
ENDROOT
BRANCH   1   5
ATOM      2  O   UNL     1      33.898 -14.905 -25.210  0.00  0.00    -0.438 OA
ATOM      3  N   UNL     1      34.416 -14.605 -22.903  0.00  0.00    -0.242 N 
ATOM      4  N   UNL     1      34.639 -16.622 -23.795  0.00  0.00    -0.333 NA
ATOM      5  C   UNL     1      34.078 -12.629 -24.281  0.00  0.00    +0.179 C 
ATOM      6  C   UNL     1      34.137 -13.188 -22.863  0.00  0.00    +0.130 C 
ATOM      7  C   UNL     1      33.313 -13.598 -25.184  0.00  0.00    +0.241 C 
ATOM      8  C   UNL     1      34.286 -15.378 -24.025  0.00  0.00    +0.345 C 
ATOM      9  C   UNL     1      34.858 -15.398 -21.890  0.00  0.00    +0.181 C 
ATOM     10  C   UNL     1      34.988 -16.643 -22.464  0.00  0.00    +0.274 C 
ATOM     11  O   UNL     1      35.715 -17.852 -20.645  0.00  0.00    -0.124 OA
ATOM     12  O   UNL     1      35.460 -18.894 -22.563  0.00  0.00    -0.124 OA
ATOM     13  N   UNL     1      35.404 -17.841 -21.868  0.00  0.00    +0.085 N 
ENDBRANCH   1   5
BRANCH   1  14
ATOM     14  C   UNL     1      34.362 -10.303 -24.218  0.00  0.00    +0.169 C 
BRANCH  14  15
ATOM     15  C   UNL     1      33.836  -9.247 -23.291  0.00  0.00    +0.007 C 
ATOM     16  C   UNL     1      32.713  -9.509 -22.516  0.00  0.00    +0.001 C 
ATOM     17  C   UNL     1      34.478  -8.016 -23.216  0.00  0.00    +0.001 C 
ATOM     18  C   UNL     1      32.224  -8.527 -21.654  0.00  0.00    +0.037 C 
ATOM     19  C   UNL     1      33.990  -7.033 -22.354  0.00  0.00    +0.037 C 
ATOM     20  C   UNL     1      32.863  -7.289 -21.573  0.00  0.00    +0.147 C 
BRANCH  20  21
ATOM     21  O   UNL     1      32.386  -6.332 -20.732  0.00  0.00    -0.404 OA
BRANCH  21  25
ATOM     22  F   UNL     1      30.801  -5.854 -22.310  0.00  0.00    -0.133 F 
ATOM     23  F   UNL     1      32.199  -4.294 -21.686  0.00  0.00    -0.133 F 
ATOM     24  F   UNL     1      30.626  -4.933 -20.309  0.00  0.00    -0.133 F 
ATOM     25  C   UNL     1      31.487  -5.362 -21.257  0.00  0.00    +0.575 C 
ENDBRANCH  21  25
ENDBRANCH  20  21
ENDBRANCH  14  15
ENDBRANCH   1  14
TORSDOF 5
ENDMDL
MODEL 6
REMARK VINA RESULT:     -10.2      9.782     13.445
REMARK  Name = 456199
REMARK  5 active torsions:
REMARK  status: ('A' for Active; 'I' for Inactive)
REMARK    1  A    between atoms: O_1  and  C_5
REMARK    2  A    between atoms: O_1  and  C_14
REMARK    3  A    between atoms: C_14  and  C_15
REMARK    4  A    between atoms: C_20  and  O_21
REMARK    5  A    between atoms: O_21  and  C_25
REMARK                            x       y       z     vdW  Elec       q    Type
REMARK                         _______ _______ _______ _____ _____    ______ ____
ROOT
ATOM      1  O   UNL     1      33.394 -11.385 -24.252  0.00  0.00    -0.346 OA
ENDROOT
BRANCH   1   5
ATOM      2  O   UNL     1      33.914 -14.910 -25.196  0.00  0.00    -0.438 OA
ATOM      3  N   UNL     1      34.421 -14.616 -22.886  0.00  0.00    -0.242 N 
ATOM      4  N   UNL     1      34.673 -16.626 -23.789  0.00  0.00    -0.333 NA
ATOM      5  C   UNL     1      34.062 -12.637 -24.253  0.00  0.00    +0.179 C 
ATOM      6  C   UNL     1      34.123 -13.204 -22.839  0.00  0.00    +0.130 C 
ATOM      7  C   UNL     1      33.312 -13.610 -25.165  0.00  0.00    +0.241 C 
ATOM      8  C   UNL     1      34.304 -15.384 -24.013  0.00  0.00    +0.345 C 
ATOM      9  C   UNL     1      34.870 -15.410 -21.876  0.00  0.00    +0.181 C 
ATOM     10  C   UNL     1      35.018 -16.650 -22.457  0.00  0.00    +0.274 C 
ATOM     11  O   UNL     1      35.755 -17.860 -20.643  0.00  0.00    -0.124 OA
ATOM     12  O   UNL     1      35.519 -18.894 -22.568  0.00  0.00    -0.124 OA
ATOM     13  N   UNL     1      35.447 -17.846 -21.867  0.00  0.00    +0.085 N 
ENDBRANCH   1   5
BRANCH   1  14
ATOM     14  C   UNL     1      34.317 -10.307 -24.222  0.00  0.00    +0.169 C 
BRANCH  14  15
ATOM     15  C   UNL     1      33.802  -9.246 -23.295  0.00  0.00    +0.007 C 
ATOM     16  C   UNL     1      34.461  -8.026 -23.211  0.00  0.00    +0.001 C 
ATOM     17  C   UNL     1      32.670  -9.495 -22.527  0.00  0.00    +0.001 C 
ATOM     18  C   UNL     1      33.982  -7.039 -22.348  0.00  0.00    +0.037 C 
ATOM     19  C   UNL     1      32.189  -8.509 -21.664  0.00  0.00    +0.037 C 
ATOM     20  C   UNL     1      32.846  -7.281 -21.576  0.00  0.00    +0.147 C 
BRANCH  20  21
ATOM     21  O   UNL     1      32.379  -6.319 -20.734  0.00  0.00    -0.404 OA
BRANCH  21  25
ATOM     22  F   UNL     1      32.202  -4.242 -21.674  0.00  0.00    -0.133 F 
ATOM     23  F   UNL     1      30.654  -4.930 -20.294  0.00  0.00    -0.133 F 
ATOM     24  F   UNL     1      30.778  -5.816 -22.288  0.00  0.00    -0.133 F 
ATOM     25  C   UNL     1      31.510  -5.325 -21.264  0.00  0.00    +0.575 C 
ENDBRANCH  21  25
ENDBRANCH  20  21
ENDBRANCH  14  15
ENDBRANCH   1  14
TORSDOF 5
ENDMDL
MODEL 7
REMARK VINA RESULT:      -9.9      6.754     11.069
REMARK  Name = 456199
REMARK  5 active torsions:
REMARK  status: ('A' for Active; 'I' for Inactive)
REMARK    1  A    between atoms: O_1  and  C_5
REMARK    2  A    between atoms: O_1  and  C_14
REMARK    3  A    between atoms: C_14  and  C_15
REMARK    4  A    between atoms: C_20  and  O_21
REMARK    5  A    between atoms: O_21  and  C_25
REMARK                            x       y       z     vdW  Elec       q    Type
REMARK                         _______ _______ _______ _____ _____    ______ ____
ROOT
ATOM      1  O   UNL     1      35.586 -18.970 -21.913  0.00  0.00    -0.346 OA
ENDROOT
BRANCH   1   5
ATOM      2  O   UNL     1      34.953 -15.416 -21.164  0.00  0.00    -0.438 OA
ATOM      3  N   UNL     1      34.456 -15.853 -23.453  0.00  0.00    -0.242 N 
ATOM      4  N   UNL     1      34.220 -13.787 -22.684  0.00  0.00    -0.333 NA
ATOM      5  C   UNL     1      35.597 -17.573 -22.167  0.00  0.00    +0.179 C 
ATOM      6  C   UNL     1      34.785 -17.259 -23.419  0.00  0.00    +0.130 C 
ATOM      7  C   UNL     1      35.001 -16.835 -20.969  0.00  0.00    +0.241 C 
ATOM      8  C   UNL     1      34.542 -15.022 -22.369  0.00  0.00    +0.345 C 
ATOM      9  C   UNL     1      34.036 -15.119 -24.519  0.00  0.00    +0.181 C 
ATOM     10  C   UNL     1      33.895 -13.843 -24.020  0.00  0.00    +0.274 C 
ATOM     11  O   UNL     1      33.175 -12.746 -25.911  0.00  0.00    -0.124 OA
ATOM     12  O   UNL     1      33.410 -11.593 -24.055  0.00  0.00    -0.124 OA
ATOM     13  N   UNL     1      33.478 -12.684 -24.687  0.00  0.00    +0.085 N 
ENDBRANCH   1   5
BRANCH   1  14
ATOM     14  C   UNL     1      36.161 -19.269 -20.650  0.00  0.00    +0.169 C 
BRANCH  14  15
ATOM     15  C   UNL     1      35.330 -20.318 -19.971  0.00  0.00    +0.007 C 
ATOM     16  C   UNL     1      35.949 -21.288 -19.191  0.00  0.00    +0.001 C 
ATOM     17  C   UNL     1      33.949 -20.310 -20.128  0.00  0.00    +0.001 C 
ATOM     18  C   UNL     1      35.176 -22.263 -18.560  0.00  0.00    +0.037 C 
ATOM     19  C   UNL     1      33.175 -21.285 -19.498  0.00  0.00    +0.037 C 
ATOM     20  C   UNL     1      33.790 -22.261 -18.713  0.00  0.00    +0.147 C 
BRANCH  20  21
ATOM     21  O   UNL     1      33.037 -23.213 -18.097  0.00  0.00    -0.404 OA
BRANCH  21  25
ATOM     22  F   UNL     1      33.422 -22.419 -15.988  0.00  0.00    -0.133 F 
ATOM     23  F   UNL     1      31.998 -24.051 -16.277  0.00  0.00    -0.133 F 
ATOM     24  F   UNL     1      31.460 -22.036 -16.930  0.00  0.00    -0.133 F 
ATOM     25  C   UNL     1      32.483 -22.912 -16.822  0.00  0.00    +0.575 C 
ENDBRANCH  21  25
ENDBRANCH  20  21
ENDBRANCH  14  15
ENDBRANCH   1  14
TORSDOF 5
ENDMDL
MODEL 8
REMARK VINA RESULT:      -9.9      5.300      8.117
REMARK  Name = 456199
REMARK  5 active torsions:
REMARK  status: ('A' for Active; 'I' for Inactive)
REMARK    1  A    between atoms: O_1  and  C_5
REMARK    2  A    between atoms: O_1  and  C_14
REMARK    3  A    between atoms: C_14  and  C_15
REMARK    4  A    between atoms: C_20  and  O_21
REMARK    5  A    between atoms: O_21  and  C_25
REMARK                            x       y       z     vdW  Elec       q    Type
REMARK                         _______ _______ _______ _____ _____    ______ ____
ROOT
ATOM      1  O   UNL     1      35.974 -17.236 -22.839  0.00  0.00    -0.346 OA
ENDROOT
BRANCH   1   5
ATOM      2  O   UNL     1      37.063 -19.447 -20.098  0.00  0.00    -0.438 OA
ATOM      3  N   UNL     1      34.764 -19.847 -20.585  0.00  0.00    -0.242 N 
ATOM      4  N   UNL     1      35.724 -20.991 -18.946  0.00  0.00    -0.333 NA
ATOM      5  C   UNL     1      35.846 -17.920 -21.602  0.00  0.00    +0.179 C 
ATOM      6  C   UNL     1      34.659 -18.878 -21.651  0.00  0.00    +0.130 C 
ATOM      7  C   UNL     1      37.128 -18.705 -21.322  0.00  0.00    +0.241 C 
ATOM      8  C   UNL     1      35.914 -20.089 -19.883  0.00  0.00    +0.345 C 
ATOM      9  C   UNL     1      33.786 -20.650 -20.087  0.00  0.00    +0.181 C 
ATOM     10  C   UNL     1      34.402 -21.351 -19.074  0.00  0.00    +0.274 C 
ATOM     11  O   UNL     1      32.646 -22.655 -18.358  0.00  0.00    -0.124 OA
ATOM     12  O   UNL     1      34.588 -22.864 -17.350  0.00  0.00    -0.124 OA
ATOM     13  N   UNL     1      33.858 -22.326 -18.229  0.00  0.00    +0.085 N 
ENDBRANCH   1   5
BRANCH   1  14
ATOM     14  C   UNL     1      34.714 -17.073 -23.473  0.00  0.00    +0.169 C 
BRANCH  14  15
ATOM     15  C   UNL     1      34.335 -15.621 -23.441  0.00  0.00    +0.007 C 
ATOM     16  C   UNL     1      33.733 -15.043 -24.552  0.00  0.00    +0.001 C 
ATOM     17  C   UNL     1      34.589 -14.869 -22.300  0.00  0.00    +0.001 C 
ATOM     18  C   UNL     1      33.380 -13.694 -24.522  0.00  0.00    +0.037 C 
ATOM     19  C   UNL     1      34.237 -13.519 -22.269  0.00  0.00    +0.037 C 
ATOM     20  C   UNL     1      33.632 -12.932 -23.381  0.00  0.00    +0.147 C 
BRANCH  20  21
ATOM     21  O   UNL     1      33.287 -11.616 -23.352  0.00  0.00    -0.404 OA
BRANCH  21  25
ATOM     22  F   UNL     1      35.120 -10.954 -24.549  0.00  0.00    -0.133 F 
ATOM     23  F   UNL     1      33.604  -9.478 -24.004  0.00  0.00    -0.133 F 
ATOM     24  F   UNL     1      33.145 -10.964 -25.540  0.00  0.00    -0.133 F 
ATOM     25  C   UNL     1      33.796 -10.765 -24.373  0.00  0.00    +0.575 C 
ENDBRANCH  21  25
ENDBRANCH  20  21
ENDBRANCH  14  15
ENDBRANCH   1  14
TORSDOF 5
ENDMDL
MODEL 9
REMARK VINA RESULT:      -9.7      3.363      5.350
REMARK  Name = 456199
REMARK  5 active torsions:
REMARK  status: ('A' for Active; 'I' for Inactive)
REMARK    1  A    between atoms: O_1  and  C_5
REMARK    2  A    between atoms: O_1  and  C_14
REMARK    3  A    between atoms: C_14  and  C_15
REMARK    4  A    between atoms: C_20  and  O_21
REMARK    5  A    between atoms: O_21  and  C_25
REMARK                            x       y       z     vdW  Elec       q    Type
REMARK                         _______ _______ _______ _____ _____    ______ ____
ROOT
ATOM      1  O   UNL     1      34.011 -20.110 -20.987  0.00  0.00    -0.346 OA
ENDROOT
BRANCH   1   5
ATOM      2  O   UNL     1      35.597 -21.990 -18.242  0.00  0.00    -0.438 OA
ATOM      3  N   UNL     1      33.228 -22.057 -17.994  0.00  0.00    -0.242 N 
ATOM      4  N   UNL     1      34.490 -23.062 -16.474  0.00  0.00    -0.333 NA
ATOM      5  C   UNL     1      34.177 -20.546 -19.647  0.00  0.00    +0.179 C 
ATOM      6  C   UNL     1      32.925 -21.276 -19.171  0.00  0.00    +0.130 C 
ATOM      7  C   UNL     1      35.382 -21.484 -19.565  0.00  0.00    +0.241 C 
ATOM      8  C   UNL     1      34.497 -22.376 -17.595  0.00  0.00    +0.345 C 
ATOM      9  C   UNL     1      32.354 -22.582 -17.093  0.00  0.00    +0.181 C 
ATOM     10  C   UNL     1      33.157 -23.202 -16.161  0.00  0.00    +0.274 C 
ATOM     11  O   UNL     1      31.553 -24.041 -14.740  0.00  0.00    -0.124 OA
ATOM     12  O   UNL     1      33.668 -24.415 -14.273  0.00  0.00    -0.124 OA
ATOM     13  N   UNL     1      32.778 -23.912 -15.015  0.00  0.00    +0.085 N 
ENDBRANCH   1   5
BRANCH   1  14
ATOM     14  C   UNL     1      35.239 -19.661 -21.540  0.00  0.00    +0.169 C 
BRANCH  14  15
ATOM     15  C   UNL     1      34.969 -18.503 -22.456  0.00  0.00    +0.007 C 
ATOM     16  C   UNL     1      34.223 -18.700 -23.612  0.00  0.00    +0.001 C 
ATOM     17  C   UNL     1      35.468 -17.245 -22.140  0.00  0.00    +0.001 C 
ATOM     18  C   UNL     1      33.972 -17.624 -24.464  0.00  0.00    +0.037 C 
ATOM     19  C   UNL     1      35.217 -16.168 -22.990  0.00  0.00    +0.037 C 
ATOM     20  C   UNL     1      34.469 -16.358 -24.152  0.00  0.00    +0.147 C 
BRANCH  20  21
ATOM     21  O   UNL     1      34.224 -15.308 -24.984  0.00  0.00    -0.404 OA
BRANCH  21  25
ATOM     22  F   UNL     1      32.837 -13.529 -25.359  0.00  0.00    -0.133 F 
ATOM     23  F   UNL     1      34.568 -13.283 -24.047  0.00  0.00    -0.133 F 
ATOM     24  F   UNL     1      32.861 -14.459 -23.355  0.00  0.00    -0.133 F 
ATOM     25  C   UNL     1      33.605 -14.149 -24.439  0.00  0.00    +0.575 C 
ENDBRANCH  21  25
ENDBRANCH  20  21
ENDBRANCH  14  15
ENDBRANCH   1  14
TORSDOF 5
ENDMDL
