MODEL 1
REMARK VINA RESULT:     -12.7      0.000      0.000
REMARK  Name = 115237
REMARK  5 active torsions:
REMARK  status: ('A' for Active; 'I' for Inactive)
REMARK    1  A    between atoms: N_1  and  C_18
REMARK    2  A    between atoms: C_2  and  C_11
REMARK    3  A    between atoms: C_18  and  C_19
REMARK    4  A    between atoms: C_19  and  C_23
REMARK    5  A    between atoms: C_25  and  O_32
REMARK                            x       y       z     vdW  Elec       q    Type
REMARK                         _______ _______ _______ _____ _____    ______ ____
ROOT
ATOM      1  N   UNL     1      35.792 -19.634 -19.922  0.00  0.00    +0.387 N 
ATOM      2  C   UNL     1      35.292 -18.400 -22.536  0.00  0.00    +0.039 C 
ATOM      3  C   UNL     1      34.184 -19.089 -21.723  0.00  0.00    -0.017 C 
ATOM      4  C   UNL     1      36.406 -17.914 -21.593  0.00  0.00    -0.017 C 
ATOM      5  C   UNL     1      34.758 -20.178 -20.814  0.00  0.00    -0.077 C 
ATOM      6  C   UNL     1      36.899 -19.045 -20.688  0.00  0.00    -0.077 C 
ATOM      7  H   UNL     1      35.367 -18.892 -19.364  0.00  0.00    -0.080 HD
ENDROOT
BRANCH   2  11
ATOM      8  F   UNL     1      33.487 -11.976 -23.372  0.00  0.00    -0.204 F 
ATOM      9  O   UNL     1      34.015 -16.380 -25.232  0.00  0.00    -0.354 OA
ATOM     10  N   UNL     1      34.463 -17.581 -24.697  0.00  0.00    -0.081 NA
ATOM     11  C   UNL     1      34.763 -17.301 -23.430  0.00  0.00    +0.100 A 
ATOM     12  C   UNL     1      34.533 -15.959 -23.094  0.00  0.00    +0.054 A 
ATOM     13  C   UNL     1      34.058 -15.413 -24.274  0.00  0.00    +0.179 A 
ATOM     14  C   UNL     1      34.662 -15.135 -21.966  0.00  0.00    +0.007 C 
ATOM     15  C   UNL     1      33.690 -14.080 -24.429  0.00  0.00    +0.070 C 
ATOM     16  C   UNL     1      34.299 -13.786 -22.086  0.00  0.00    +0.030 C 
ATOM     17  C   UNL     1      33.823 -13.272 -23.297  0.00  0.00    +0.143 C 
ENDBRANCH   2  11
BRANCH   1  18
ATOM     18  C   UNL     1      36.289 -20.673 -19.021  0.00  0.00    -0.076 C 
BRANCH  18  19
ATOM     19  C   UNL     1      35.438 -21.928 -19.159  0.00  0.00    -0.007 C 
BRANCH  19  23
ATOM     20  O   UNL     1      32.691 -22.224 -18.822  0.00  0.00    -0.274 OA
ATOM     21  N   UNL     1      32.821 -22.931 -16.606  0.00  0.00    -0.235 N 
ATOM     22  N   UNL     1      34.922 -22.935 -15.516  0.00  0.00    -0.397 NA
ATOM     23  C   UNL     1      34.840 -22.317 -17.838  0.00  0.00    +0.123 C 
ATOM     24  C   UNL     1      31.365 -23.070 -16.536  0.00  0.00    +0.100 C 
ATOM     25  C   UNL     1      33.013 -23.603 -14.199  0.00  0.00    +0.177 C 
ATOM     26  C   UNL     1      30.871 -23.934 -15.391  0.00  0.00    +0.025 C 
ATOM     27  C   UNL     1      31.508 -23.445 -14.108  0.00  0.00    +0.040 C 
ATOM     28  C   UNL     1      33.636 -23.108 -15.500  0.00  0.00    +0.192 C 
ATOM     29  C   UNL     1      33.354 -22.486 -17.819  0.00  0.00    +0.237 C 
ATOM     30  C   UNL     1      35.511 -22.540 -16.691  0.00  0.00    +0.097 C 
ATOM     31  C   UNL     1      37.001 -22.360 -16.566  0.00  0.00    +0.062 C 
BRANCH  25  32
ATOM     32  O   UNL     1      33.613 -22.899 -13.121  0.00  0.00    -0.376 OA
ATOM     33  H   UNL     1      34.312 -23.444 -12.729  0.00  0.00    +0.211 HD
ENDBRANCH  25  32
ENDBRANCH  19  23
ENDBRANCH  18  19
ENDBRANCH   1  18
TORSDOF 5
ENDMDL
MODEL 2
REMARK VINA RESULT:     -12.0      6.067     12.690
REMARK  Name = 115237
REMARK  5 active torsions:
REMARK  status: ('A' for Active; 'I' for Inactive)
REMARK    1  A    between atoms: N_1  and  C_18
REMARK    2  A    between atoms: C_2  and  C_11
REMARK    3  A    between atoms: C_18  and  C_19
REMARK    4  A    between atoms: C_19  and  C_23
REMARK    5  A    between atoms: C_25  and  O_32
REMARK                            x       y       z     vdW  Elec       q    Type
REMARK                         _______ _______ _______ _____ _____    ______ ____
ROOT
ATOM      1  N   UNL     1      33.307 -12.012 -24.154  0.00  0.00    +0.387 N 
ATOM      2  C   UNL     1      34.445 -14.716 -24.153  0.00  0.00    +0.039 C 
ATOM      3  C   UNL     1      34.085 -13.972 -22.857  0.00  0.00    -0.017 C 
ATOM      4  C   UNL     1      33.596 -14.177 -25.317  0.00  0.00    -0.017 C 
ATOM      5  C   UNL     1      34.167 -12.455 -23.047  0.00  0.00    -0.077 C 
ATOM      6  C   UNL     1      33.695 -12.654 -25.418  0.00  0.00    -0.077 C 
ATOM      7  H   UNL     1      32.350 -12.293 -23.940  0.00  0.00    -0.080 HD
ENDROOT
BRANCH   2  11
ATOM      8  F   UNL     1      35.708 -20.284 -20.601  0.00  0.00    -0.204 F 
ATOM      9  O   UNL     1      33.840 -18.247 -24.537  0.00  0.00    -0.354 OA
ATOM     10  N   UNL     1      33.760 -16.928 -24.968  0.00  0.00    -0.081 NA
ATOM     11  C   UNL     1      34.353 -16.218 -24.010  0.00  0.00    +0.100 A 
ATOM     12  C   UNL     1      34.827 -17.009 -22.953  0.00  0.00    +0.054 A 
ATOM     13  C   UNL     1      34.478 -18.293 -23.335  0.00  0.00    +0.179 A 
ATOM     14  C   UNL     1      35.498 -16.819 -21.736  0.00  0.00    +0.007 C 
ATOM     15  C   UNL     1      34.746 -19.434 -22.586  0.00  0.00    +0.070 C 
ATOM     16  C   UNL     1      35.786 -17.948 -20.956  0.00  0.00    +0.030 C 
ATOM     17  C   UNL     1      35.415 -19.230 -21.375  0.00  0.00    +0.143 C 
ENDBRANCH   2  11
BRANCH   1  18
ATOM     18  C   UNL     1      33.353 -10.556 -24.285  0.00  0.00    -0.076 C 
BRANCH  18  19
ATOM     19  C   UNL     1      33.950  -9.941 -23.026  0.00  0.00    -0.007 C 
BRANCH  19  23
ATOM     20  O   UNL     1      34.643  -7.487 -24.142  0.00  0.00    -0.274 OA
ATOM     21  N   UNL     1      32.950  -6.285 -23.085  0.00  0.00    -0.235 N 
ATOM     22  N   UNL     1      31.577  -7.377 -21.496  0.00  0.00    -0.397 NA
ATOM     23  C   UNL     1      33.234  -8.674 -22.658  0.00  0.00    +0.123 C 
ATOM     24  C   UNL     1      33.384  -5.047 -23.736  0.00  0.00    +0.100 C 
ATOM     25  C   UNL     1      31.166  -5.026 -21.855  0.00  0.00    +0.177 C 
ATOM     26  C   UNL     1      32.346  -3.942 -23.739  0.00  0.00    +0.025 C 
ATOM     27  C   UNL     1      31.839  -3.751 -22.325  0.00  0.00    +0.040 C 
ATOM     28  C   UNL     1      31.944  -6.308 -22.132  0.00  0.00    +0.192 C 
ATOM     29  C   UNL     1      33.682  -7.440 -23.375  0.00  0.00    +0.237 C 
ATOM     30  C   UNL     1      32.229  -8.553 -21.768  0.00  0.00    +0.097 C 
ATOM     31  C   UNL     1      31.717  -9.709 -20.950  0.00  0.00    +0.062 C 
BRANCH  25  32
ATOM     32  O   UNL     1      30.941  -4.934 -20.455  0.00  0.00    -0.376 OA
ATOM     33  H   UNL     1      31.014  -5.815 -20.058  0.00  0.00    +0.211 HD
ENDBRANCH  25  32
ENDBRANCH  19  23
ENDBRANCH  18  19
ENDBRANCH   1  18
TORSDOF 5
ENDMDL
MODEL 3
REMARK VINA RESULT:     -11.9      3.367     10.300
REMARK  Name = 115237
REMARK  5 active torsions:
REMARK  status: ('A' for Active; 'I' for Inactive)
REMARK    1  A    between atoms: N_1  and  C_18
REMARK    2  A    between atoms: C_2  and  C_11
REMARK    3  A    between atoms: C_18  and  C_19
REMARK    4  A    between atoms: C_19  and  C_23
REMARK    5  A    between atoms: C_25  and  O_32
REMARK                            x       y       z     vdW  Elec       q    Type
REMARK                         _______ _______ _______ _____ _____    ______ ____
ROOT
ATOM      1  N   UNL     1      34.312 -20.300 -20.142  0.00  0.00    +0.387 N 
ATOM      2  C   UNL     1      34.173 -22.404 -18.103  0.00  0.00    +0.039 C 
ATOM      3  C   UNL     1      35.480 -21.670 -18.444  0.00  0.00    -0.017 C 
ATOM      4  C   UNL     1      32.968 -21.515 -18.456  0.00  0.00    -0.017 C 
ATOM      5  C   UNL     1      35.472 -21.166 -19.888  0.00  0.00    -0.077 C 
ATOM      6  C   UNL     1      33.052 -21.016 -19.900  0.00  0.00    -0.077 C 
ATOM      7  H   UNL     1      34.357 -19.515 -19.491  0.00  0.00    -0.080 HD
ENDROOT
BRANCH   2  11
ATOM      8  F   UNL     1      30.618 -24.361 -12.740  0.00  0.00    -0.204 F 
ATOM      9  O   UNL     1      34.904 -23.537 -14.762  0.00  0.00    -0.354 OA
ATOM     10  N   UNL     1      35.281 -23.091 -16.022  0.00  0.00    -0.081 NA
ATOM     11  C   UNL     1      34.135 -22.898 -16.674  0.00  0.00    +0.100 A 
ATOM     12  C   UNL     1      33.005 -23.197 -15.900  0.00  0.00    +0.054 A 
ATOM     13  C   UNL     1      33.546 -23.600 -14.691  0.00  0.00    +0.179 A 
ATOM     14  C   UNL     1      31.611 -23.185 -16.052  0.00  0.00    +0.007 C 
ATOM     15  C   UNL     1      32.794 -24.003 -13.591  0.00  0.00    +0.070 C 
ATOM     16  C   UNL     1      30.822 -23.584 -14.964  0.00  0.00    +0.030 C 
ATOM     17  C   UNL     1      31.406 -23.986 -13.758  0.00  0.00    +0.143 C 
ENDBRANCH   2  11
BRANCH   1  18
ATOM     18  C   UNL     1      34.351 -19.780 -21.508  0.00  0.00    -0.076 C 
BRANCH  18  19
ATOM     19  C   UNL     1      35.472 -18.759 -21.642  0.00  0.00    -0.007 C 
BRANCH  19  23
ATOM     20  O   UNL     1      35.068 -16.362 -20.287  0.00  0.00    -0.274 OA
ATOM     21  N   UNL     1      34.498 -15.135 -22.184  0.00  0.00    -0.235 N 
ATOM     22  N   UNL     1      34.281 -16.252 -24.259  0.00  0.00    -0.397 NA
ATOM     23  C   UNL     1      34.989 -17.523 -22.346  0.00  0.00    +0.123 C 
ATOM     24  C   UNL     1      34.326 -13.922 -21.382  0.00  0.00    +0.100 C 
ATOM     25  C   UNL     1      33.807 -13.886 -24.244  0.00  0.00    +0.177 C 
ATOM     26  C   UNL     1      34.350 -12.633 -22.182  0.00  0.00    +0.025 C 
ATOM     27  C   UNL     1      33.370 -12.758 -23.329  0.00  0.00    +0.040 C 
ATOM     28  C   UNL     1      34.195 -15.179 -23.535  0.00  0.00    +0.192 C 
ATOM     29  C   UNL     1      34.865 -16.297 -21.499  0.00  0.00    +0.237 C 
ATOM     30  C   UNL     1      34.679 -17.417 -23.653  0.00  0.00    +0.097 C 
ATOM     31  C   UNL     1      34.717 -18.586 -24.601  0.00  0.00    +0.062 C 
BRANCH  25  32
ATOM     32  O   UNL     1      32.753 -14.173 -25.151  0.00  0.00    -0.376 OA
ATOM     33  H   UNL     1      32.677 -13.454 -25.797  0.00  0.00    +0.211 HD
ENDBRANCH  25  32
ENDBRANCH  19  23
ENDBRANCH  18  19
ENDBRANCH   1  18
TORSDOF 5
ENDMDL
MODEL 4
REMARK VINA RESULT:     -11.7      2.516      4.330
REMARK  Name = 115237
REMARK  5 active torsions:
REMARK  status: ('A' for Active; 'I' for Inactive)
REMARK    1  A    between atoms: N_1  and  C_18
REMARK    2  A    between atoms: C_2  and  C_11
REMARK    3  A    between atoms: C_18  and  C_19
REMARK    4  A    between atoms: C_19  and  C_23
REMARK    5  A    between atoms: C_25  and  O_32
REMARK                            x       y       z     vdW  Elec       q    Type
REMARK                         _______ _______ _______ _____ _____    ______ ____
ROOT
ATOM      1  N   UNL     1      35.289 -16.979 -23.036  0.00  0.00    +0.387 N 
ATOM      2  C   UNL     1      33.735 -14.491 -23.098  0.00  0.00    +0.039 C 
ATOM      3  C   UNL     1      34.739 -14.810 -21.978  0.00  0.00    -0.017 C 
ATOM      4  C   UNL     1      34.118 -15.258 -24.375  0.00  0.00    -0.017 C 
ATOM      5  C   UNL     1      34.892 -16.319 -21.783  0.00  0.00    -0.077 C 
ATOM      6  C   UNL     1      34.294 -16.752 -24.093  0.00  0.00    -0.077 C 
ATOM      7  H   UNL     1      36.171 -16.568 -23.341  0.00  0.00    -0.080 HD
ENDROOT
BRANCH   2  11
ATOM      8  F   UNL     1      31.335  -8.533 -21.107  0.00  0.00    -0.204 F 
ATOM      9  O   UNL     1      33.795 -11.109 -24.339  0.00  0.00    -0.354 OA
ATOM     10  N   UNL     1      34.117 -12.458 -24.420  0.00  0.00    -0.081 NA
ATOM     11  C   UNL     1      33.575 -13.006 -23.334  0.00  0.00    +0.100 A 
ATOM     12  C   UNL     1      32.902 -12.077 -22.528  0.00  0.00    +0.054 A 
ATOM     13  C   UNL     1      33.070 -10.884 -23.209  0.00  0.00    +0.179 A 
ATOM     14  C   UNL     1      32.181 -12.079 -21.324  0.00  0.00    +0.007 C 
ATOM     15  C   UNL     1      32.567  -9.659 -22.781  0.00  0.00    +0.070 C 
ATOM     16  C   UNL     1      31.658 -10.862 -20.864  0.00  0.00    +0.030 C 
ATOM     17  C   UNL     1      31.850  -9.676 -21.581  0.00  0.00    +0.143 C 
ENDBRANCH   2  11
BRANCH   1  18
ATOM     18  C   UNL     1      35.487 -18.411 -22.818  0.00  0.00    -0.076 C 
BRANCH  18  19
ATOM     19  C   UNL     1      34.293 -18.993 -22.075  0.00  0.00    -0.007 C 
BRANCH  19  23
ATOM     20  O   UNL     1      32.495 -20.412 -20.494  0.00  0.00    -0.274 OA
ATOM     21  N   UNL     1      34.113 -21.296 -19.069  0.00  0.00    -0.235 N 
ATOM     22  N   UNL     1      36.362 -20.598 -19.301  0.00  0.00    -0.397 NA
ATOM     23  C   UNL     1      34.739 -19.762 -20.865  0.00  0.00    +0.123 C 
ATOM     24  C   UNL     1      33.090 -22.018 -18.309  0.00  0.00    +0.100 C 
ATOM     25  C   UNL     1      35.885 -22.147 -17.514  0.00  0.00    +0.177 C 
ATOM     26  C   UNL     1      33.625 -23.151 -17.455  0.00  0.00    +0.025 C 
ATOM     27  C   UNL     1      34.764 -22.623 -16.610  0.00  0.00    +0.040 C 
ATOM     28  C   UNL     1      35.444 -21.274 -18.684  0.00  0.00    +0.192 C 
ATOM     29  C   UNL     1      33.669 -20.517 -20.141  0.00  0.00    +0.237 C 
ATOM     30  C   UNL     1      35.997 -19.846 -20.390  0.00  0.00    +0.097 C 
ATOM     31  C   UNL     1      37.154 -19.099 -21.000  0.00  0.00    +0.062 C 
BRANCH  25  32
ATOM     32  O   UNL     1      36.819 -21.412 -16.736  0.00  0.00    -0.376 OA
ATOM     33  H   UNL     1      36.943 -20.533 -17.125  0.00  0.00    +0.211 HD
ENDBRANCH  25  32
ENDBRANCH  19  23
ENDBRANCH  18  19
ENDBRANCH   1  18
TORSDOF 5
ENDMDL
MODEL 5
REMARK VINA RESULT:     -11.6      1.859      2.468
REMARK  Name = 115237
REMARK  5 active torsions:
REMARK  status: ('A' for Active; 'I' for Inactive)
REMARK    1  A    between atoms: N_1  and  C_18
REMARK    2  A    between atoms: C_2  and  C_11
REMARK    3  A    between atoms: C_18  and  C_19
REMARK    4  A    between atoms: C_19  and  C_23
REMARK    5  A    between atoms: C_25  and  O_32
REMARK                            x       y       z     vdW  Elec       q    Type
REMARK                         _______ _______ _______ _____ _____    ______ ____
ROOT
ATOM      1  N   UNL     1      36.039 -19.949 -19.867  0.00  0.00    +0.387 N 
ATOM      2  C   UNL     1      35.374 -18.738 -22.454  0.00  0.00    +0.039 C 
ATOM      3  C   UNL     1      34.312 -19.374 -21.543  0.00  0.00    -0.017 C 
ATOM      4  C   UNL     1      36.576 -18.279 -21.612  0.00  0.00    -0.017 C 
ATOM      5  C   UNL     1      34.919 -20.469 -20.663  0.00  0.00    -0.077 C 
ATOM      6  C   UNL     1      37.101 -19.413 -20.729  0.00  0.00    -0.077 C 
ATOM      7  H   UNL     1      35.687 -19.184 -19.290  0.00  0.00    -0.080 HD
ENDROOT
BRANCH   2  11
ATOM      8  F   UNL     1      33.591 -12.298 -23.210  0.00  0.00    -0.204 F 
ATOM      9  O   UNL     1      33.990 -16.708 -25.089  0.00  0.00    -0.354 OA
ATOM     10  N   UNL     1      34.452 -17.912 -24.574  0.00  0.00    -0.081 NA
ATOM     11  C   UNL     1      34.814 -17.635 -23.323  0.00  0.00    +0.100 A 
ATOM     12  C   UNL     1      34.613 -16.291 -22.979  0.00  0.00    +0.054 A 
ATOM     13  C   UNL     1      34.087 -15.741 -24.135  0.00  0.00    +0.179 A 
ATOM     14  C   UNL     1      34.802 -15.468 -21.858  0.00  0.00    +0.007 C 
ATOM     15  C   UNL     1      33.725 -14.405 -24.274  0.00  0.00    +0.070 C 
ATOM     16  C   UNL     1      34.446 -14.116 -21.962  0.00  0.00    +0.030 C 
ATOM     17  C   UNL     1      33.918 -13.597 -23.149  0.00  0.00    +0.143 C 
ENDBRANCH   2  11
BRANCH   1  18
ATOM     18  C   UNL     1      36.570 -20.992 -18.989  0.00  0.00    -0.076 C 
BRANCH  18  19
ATOM     19  C   UNL     1      35.457 -21.545 -18.110  0.00  0.00    -0.007 C 
BRANCH  19  23
ATOM     20  O   UNL     1      34.229 -23.607 -16.701  0.00  0.00    -0.274 OA
ATOM     21  N   UNL     1      35.840 -23.710 -15.021  0.00  0.00    -0.235 N 
ATOM     22  N   UNL     1      37.582 -22.109 -14.993  0.00  0.00    -0.397 NA
ATOM     23  C   UNL     1      36.006 -22.050 -16.807  0.00  0.00    +0.123 C 
ATOM     24  C   UNL     1      35.125 -24.805 -14.363  0.00  0.00    +0.100 C 
ATOM     25  C   UNL     1      37.556 -23.718 -13.195  0.00  0.00    +0.177 C 
ATOM     26  C   UNL     1      35.962 -25.600 -13.379  0.00  0.00    +0.025 C 
ATOM     27  C   UNL     1      36.628 -24.634 -12.422  0.00  0.00    +0.040 C 
ATOM     28  C   UNL     1      36.962 -23.117 -14.465  0.00  0.00    +0.192 C 
ATOM     29  C   UNL     1      35.269 -23.195 -16.188  0.00  0.00    +0.237 C 
ATOM     30  C   UNL     1      37.095 -21.584 -16.164  0.00  0.00    +0.097 C 
ATOM     31  C   UNL     1      37.897 -20.409 -16.657  0.00  0.00    +0.062 C 
BRANCH  25  32
ATOM     32  O   UNL     1      37.961 -22.654 -12.345  0.00  0.00    -0.376 OA
ATOM     33  H   UNL     1      37.282 -22.504 -11.670  0.00  0.00    +0.211 HD
ENDBRANCH  25  32
ENDBRANCH  19  23
ENDBRANCH  18  19
ENDBRANCH   1  18
TORSDOF 5
ENDMDL
MODEL 6
REMARK VINA RESULT:     -11.6      1.512      2.502
REMARK  Name = 115237
REMARK  5 active torsions:
REMARK  status: ('A' for Active; 'I' for Inactive)
REMARK    1  A    between atoms: N_1  and  C_18
REMARK    2  A    between atoms: C_2  and  C_11
REMARK    3  A    between atoms: C_18  and  C_19
REMARK    4  A    between atoms: C_19  and  C_23
REMARK    5  A    between atoms: C_25  and  O_32
REMARK                            x       y       z     vdW  Elec       q    Type
REMARK                         _______ _______ _______ _____ _____    ______ ____
ROOT
ATOM      1  N   UNL     1      35.709 -19.762 -19.851  0.00  0.00    +0.387 N 
ATOM      2  C   UNL     1      35.282 -18.504 -22.466  0.00  0.00    +0.039 C 
ATOM      3  C   UNL     1      34.159 -19.226 -21.705  0.00  0.00    -0.017 C 
ATOM      4  C   UNL     1      36.349 -18.009 -21.476  0.00  0.00    -0.017 C 
ATOM      5  C   UNL     1      34.720 -20.315 -20.788  0.00  0.00    -0.077 C 
ATOM      6  C   UNL     1      36.832 -19.142 -20.567  0.00  0.00    -0.077 C 
ATOM      7  H   UNL     1      35.248 -19.036 -19.300  0.00  0.00    -0.080 HD
ENDROOT
BRANCH   2  11
ATOM      8  F   UNL     1      33.563 -12.062 -23.342  0.00  0.00    -0.204 F 
ATOM      9  O   UNL     1      34.023 -16.486 -25.172  0.00  0.00    -0.354 OA
ATOM     10  N   UNL     1      34.456 -17.690 -24.630  0.00  0.00    -0.081 NA
ATOM     11  C   UNL     1      34.765 -17.405 -23.366  0.00  0.00    +0.100 A 
ATOM     12  C   UNL     1      34.555 -16.057 -23.040  0.00  0.00    +0.054 A 
ATOM     13  C   UNL     1      34.083 -15.514 -24.221  0.00  0.00    +0.179 A 
ATOM     14  C   UNL     1      34.700 -15.227 -21.917  0.00  0.00    +0.007 C 
ATOM     15  C   UNL     1      33.733 -14.176 -24.385  0.00  0.00    +0.070 C 
ATOM     16  C   UNL     1      34.355 -13.874 -22.046  0.00  0.00    +0.030 C 
ATOM     17  C   UNL     1      33.882 -13.362 -23.259  0.00  0.00    +0.143 C 
ENDBRANCH   2  11
BRANCH   1  18
ATOM     18  C   UNL     1      36.192 -20.803 -18.944  0.00  0.00    -0.076 C 
BRANCH  18  19
ATOM     19  C   UNL     1      35.156 -21.912 -18.830  0.00  0.00    -0.007 C 
BRANCH  19  23
ATOM     20  O   UNL     1      37.375 -22.117 -17.163  0.00  0.00    -0.274 OA
ATOM     21  N   UNL     1      36.169 -22.768 -15.278  0.00  0.00    -0.235 N 
ATOM     22  N   UNL     1      33.847 -23.178 -15.478  0.00  0.00    -0.397 NA
ATOM     23  C   UNL     1      35.039 -22.391 -17.411  0.00  0.00    +0.123 C 
ATOM     24  C   UNL     1      37.396 -22.830 -14.480  0.00  0.00    +0.100 C 
ATOM     25  C   UNL     1      34.834 -23.549 -13.306  0.00  0.00    +0.177 C 
ATOM     26  C   UNL     1      37.171 -22.809 -12.981  0.00  0.00    +0.025 C 
ATOM     27  C   UNL     1      36.152 -23.871 -12.630  0.00  0.00    +0.040 C 
ATOM     28  C   UNL     1      34.940 -23.166 -14.779  0.00  0.00    +0.192 C 
ATOM     29  C   UNL     1      36.308 -22.402 -16.620  0.00  0.00    +0.237 C 
ATOM     30  C   UNL     1      33.910 -22.788 -16.792  0.00  0.00    +0.097 C 
ATOM     31  C   UNL     1      32.578 -22.866 -17.489  0.00  0.00    +0.062 C 
BRANCH  25  32
ATOM     32  O   UNL     1      33.976 -24.676 -13.199  0.00  0.00    -0.376 OA
ATOM     33  H   UNL     1      34.419 -25.371 -12.689  0.00  0.00    +0.211 HD
ENDBRANCH  25  32
ENDBRANCH  19  23
ENDBRANCH  18  19
ENDBRANCH   1  18
TORSDOF 5
ENDMDL
MODEL 7
REMARK VINA RESULT:     -11.2      3.493     10.249
REMARK  Name = 115237
REMARK  5 active torsions:
REMARK  status: ('A' for Active; 'I' for Inactive)
REMARK    1  A    between atoms: N_1  and  C_18
REMARK    2  A    between atoms: C_2  and  C_11
REMARK    3  A    between atoms: C_18  and  C_19
REMARK    4  A    between atoms: C_19  and  C_23
REMARK    5  A    between atoms: C_25  and  O_32
REMARK                            x       y       z     vdW  Elec       q    Type
REMARK                         _______ _______ _______ _____ _____    ______ ____
ROOT
ATOM      1  N   UNL     1      34.355 -20.387 -20.053  0.00  0.00    +0.387 N 
ATOM      2  C   UNL     1      34.223 -22.452 -17.974  0.00  0.00    +0.039 C 
ATOM      3  C   UNL     1      35.520 -21.695 -18.304  0.00  0.00    -0.017 C 
ATOM      4  C   UNL     1      33.006 -21.599 -18.369  0.00  0.00    -0.017 C 
ATOM      5  C   UNL     1      35.530 -21.220 -19.759  0.00  0.00    -0.077 C 
ATOM      6  C   UNL     1      33.107 -21.127 -19.821  0.00  0.00    -0.077 C 
ATOM      7  H   UNL     1      34.369 -19.588 -19.418  0.00  0.00    -0.080 HD
ENDROOT
BRANCH   2  11
ATOM      8  F   UNL     1      37.360 -23.652 -12.148  0.00  0.00    -0.204 F 
ATOM      9  O   UNL     1      33.291 -23.669 -14.713  0.00  0.00    -0.354 OA
ATOM     10  N   UNL     1      33.004 -23.314 -16.025  0.00  0.00    -0.081 NA
ATOM     11  C   UNL     1      34.168 -22.918 -16.536  0.00  0.00    +0.100 A 
ATOM     12  C   UNL     1      35.225 -22.993 -15.618  0.00  0.00    +0.054 A 
ATOM     13  C   UNL     1      34.618 -23.477 -14.473  0.00  0.00    +0.179 A 
ATOM     14  C   UNL     1      36.602 -22.721 -15.597  0.00  0.00    +0.007 C 
ATOM     15  C   UNL     1      35.283 -23.718 -13.274  0.00  0.00    +0.070 C 
ATOM     16  C   UNL     1      37.304 -22.954 -14.406  0.00  0.00    +0.030 C 
ATOM     17  C   UNL     1      36.654 -23.443 -13.268  0.00  0.00    +0.143 C 
ENDBRANCH   2  11
BRANCH   1  18
ATOM     18  C   UNL     1      34.410 -19.894 -21.429  0.00  0.00    -0.076 C 
BRANCH  18  19
ATOM     19  C   UNL     1      35.528 -18.870 -21.568  0.00  0.00    -0.007 C 
BRANCH  19  23
ATOM     20  O   UNL     1      35.118 -16.480 -20.202  0.00  0.00    -0.274 OA
ATOM     21  N   UNL     1      34.536 -15.249 -22.093  0.00  0.00    -0.235 N 
ATOM     22  N   UNL     1      34.317 -16.358 -24.171  0.00  0.00    -0.397 NA
ATOM     23  C   UNL     1      35.037 -17.634 -22.265  0.00  0.00    +0.123 C 
ATOM     24  C   UNL     1      34.362 -14.039 -21.286  0.00  0.00    +0.100 C 
ATOM     25  C   UNL     1      33.833 -13.994 -24.145  0.00  0.00    +0.177 C 
ATOM     26  C   UNL     1      34.377 -12.747 -22.080  0.00  0.00    +0.025 C 
ATOM     27  C   UNL     1      33.394 -12.872 -23.224  0.00  0.00    +0.040 C 
ATOM     28  C   UNL     1      34.229 -15.289 -23.443  0.00  0.00    +0.192 C 
ATOM     29  C   UNL     1      34.911 -16.411 -21.413  0.00  0.00    +0.237 C 
ATOM     30  C   UNL     1      34.722 -17.525 -23.570  0.00  0.00    +0.097 C 
ATOM     31  C   UNL     1      34.762 -18.690 -24.523  0.00  0.00    +0.062 C 
BRANCH  25  32
ATOM     32  O   UNL     1      32.776 -14.283 -25.050  0.00  0.00    -0.376 OA
ATOM     33  H   UNL     1      32.485 -13.464 -25.479  0.00  0.00    +0.211 HD
ENDBRANCH  25  32
ENDBRANCH  19  23
ENDBRANCH  18  19
ENDBRANCH   1  18
TORSDOF 5
ENDMDL
MODEL 8
REMARK VINA RESULT:     -11.2      2.692      4.629
REMARK  Name = 115237
REMARK  5 active torsions:
REMARK  status: ('A' for Active; 'I' for Inactive)
REMARK    1  A    between atoms: N_1  and  C_18
REMARK    2  A    between atoms: C_2  and  C_11
REMARK    3  A    between atoms: C_18  and  C_19
REMARK    4  A    between atoms: C_19  and  C_23
REMARK    5  A    between atoms: C_25  and  O_32
REMARK                            x       y       z     vdW  Elec       q    Type
REMARK                         _______ _______ _______ _____ _____    ______ ____
ROOT
ATOM      1  N   UNL     1      34.180 -22.239 -17.613  0.00  0.00    +0.387 N 
ATOM      2  C   UNL     1      35.079 -20.753 -19.976  0.00  0.00    +0.039 C 
ATOM      3  C   UNL     1      33.612 -20.768 -19.520  0.00  0.00    -0.017 C 
ATOM      4  C   UNL     1      36.001 -21.036 -18.778  0.00  0.00    -0.017 C 
ATOM      5  C   UNL     1      33.280 -22.053 -18.760  0.00  0.00    -0.077 C 
ATOM      6  C   UNL     1      35.583 -22.312 -18.045  0.00  0.00    -0.077 C 
ATOM      7  H   UNL     1      34.081 -21.428 -17.001  0.00  0.00    -0.080 HD
ENDROOT
BRANCH   2  11
ATOM      8  F   UNL     1      34.205 -16.629 -25.216  0.00  0.00    -0.204 F 
ATOM      9  O   UNL     1      36.488 -17.634 -21.103  0.00  0.00    -0.354 OA
ATOM     10  N   UNL     1      36.388 -18.689 -20.204  0.00  0.00    -0.081 NA
ATOM     11  C   UNL     1      35.450 -19.486 -20.713  0.00  0.00    +0.100 A 
ATOM     12  C   UNL     1      34.916 -19.006 -21.917  0.00  0.00    +0.054 A 
ATOM     13  C   UNL     1      35.608 -17.825 -22.124  0.00  0.00    +0.179 A 
ATOM     14  C   UNL     1      33.949 -19.403 -22.854  0.00  0.00    +0.007 C 
ATOM     15  C   UNL     1      35.412 -16.983 -23.215  0.00  0.00    +0.070 C 
ATOM     16  C   UNL     1      33.728 -18.578 -23.966  0.00  0.00    +0.030 C 
ATOM     17  C   UNL     1      34.447 -17.391 -24.140  0.00  0.00    +0.143 C 
ENDBRANCH   2  11
BRANCH   1  18
ATOM     18  C   UNL     1      33.812 -23.441 -16.864  0.00  0.00    -0.076 C 
BRANCH  18  19
ATOM     19  C   UNL     1      32.963 -23.061 -15.659  0.00  0.00    -0.007 C 
BRANCH  19  23
ATOM     20  O   UNL     1      35.661 -22.503 -15.263  0.00  0.00    -0.274 OA
ATOM     21  N   UNL     1      35.716 -23.261 -13.061  0.00  0.00    -0.235 N 
ATOM     22  N   UNL     1      33.792 -24.291 -12.145  0.00  0.00    -0.397 NA
ATOM     23  C   UNL     1      33.664 -23.411 -14.378  0.00  0.00    +0.123 C 
ATOM     24  C   UNL     1      37.135 -22.917 -12.948  0.00  0.00    +0.100 C 
ATOM     25  C   UNL     1      35.739 -24.170 -10.725  0.00  0.00    +0.177 C 
ATOM     26  C   UNL     1      37.643 -22.808 -11.523  0.00  0.00    +0.025 C 
ATOM     27  C   UNL     1      37.251 -24.063 -10.773  0.00  0.00    +0.040 C 
ATOM     28  C   UNL     1      35.031 -23.921 -12.053  0.00  0.00    +0.192 C 
ATOM     29  C   UNL     1      35.101 -23.006 -14.290  0.00  0.00    +0.237 C 
ATOM     30  C   UNL     1      33.119 -24.030 -13.313  0.00  0.00    +0.097 C 
ATOM     31  C   UNL     1      31.698 -24.528 -13.293  0.00  0.00    +0.062 C 
BRANCH  25  32
ATOM     32  O   UNL     1      35.387 -25.468 -10.269  0.00  0.00    -0.376 OA
ATOM     33  H   UNL     1      34.424 -25.530 -10.181  0.00  0.00    +0.211 HD
ENDBRANCH  25  32
ENDBRANCH  19  23
ENDBRANCH  18  19
ENDBRANCH   1  18
TORSDOF 5
ENDMDL
MODEL 9
REMARK VINA RESULT:     -11.1      3.480     10.429
REMARK  Name = 115237
REMARK  5 active torsions:
REMARK  status: ('A' for Active; 'I' for Inactive)
REMARK    1  A    between atoms: N_1  and  C_18
REMARK    2  A    between atoms: C_2  and  C_11
REMARK    3  A    between atoms: C_18  and  C_19
REMARK    4  A    between atoms: C_19  and  C_23
REMARK    5  A    between atoms: C_25  and  O_32
REMARK                            x       y       z     vdW  Elec       q    Type
REMARK                         _______ _______ _______ _____ _____    ______ ____
ROOT
ATOM      1  N   UNL     1      35.576 -18.384 -21.106  0.00  0.00    +0.387 N 
ATOM      2  C   UNL     1      35.460 -20.961 -19.709  0.00  0.00    +0.039 C 
ATOM      3  C   UNL     1      36.646 -19.994 -19.560  0.00  0.00    -0.017 C 
ATOM      4  C   UNL     1      34.197 -20.180 -20.108  0.00  0.00    -0.017 C 
ATOM      5  C   UNL     1      36.812 -19.122 -20.806  0.00  0.00    -0.077 C 
ATOM      6  C   UNL     1      34.452 -19.301 -21.335  0.00  0.00    -0.077 C 
ATOM      7  H   UNL     1      35.351 -17.806 -20.295  0.00  0.00    -0.080 HD
ENDROOT
BRANCH   2  11
ATOM      8  F   UNL     1      37.483 -22.957 -13.614  0.00  0.00    -0.204 F 
ATOM      9  O   UNL     1      34.298 -23.275 -17.204  0.00  0.00    -0.354 OA
ATOM     10  N   UNL     1      34.200 -22.639 -18.436  0.00  0.00    -0.081 NA
ATOM     11  C   UNL     1      35.252 -21.824 -18.485  0.00  0.00    +0.100 A 
ATOM     12  C   UNL     1      36.052 -21.888 -17.335  0.00  0.00    +0.054 A 
ATOM     13  C   UNL     1      35.403 -22.825 -16.550  0.00  0.00    +0.179 A 
ATOM     14  C   UNL     1      37.225 -21.288 -16.853  0.00  0.00    +0.007 C 
ATOM     15  C   UNL     1      35.836 -23.226 -15.289  0.00  0.00    +0.070 C 
ATOM     16  C   UNL     1      37.690 -21.669 -15.586  0.00  0.00    +0.030 C 
ATOM     17  C   UNL     1      37.006 -22.620 -14.821  0.00  0.00    +0.143 C 
ENDBRANCH   2  11
BRANCH   1  18
ATOM     18  C   UNL     1      35.770 -17.513 -22.265  0.00  0.00    -0.076 C 
BRANCH  18  19
ATOM     19  C   UNL     1      34.422 -17.147 -22.869  0.00  0.00    -0.007 C 
BRANCH  19  23
ATOM     20  O   UNL     1      34.075 -16.013 -25.387  0.00  0.00    -0.274 OA
ATOM     21  N   UNL     1      33.881 -13.824 -24.612  0.00  0.00    -0.235 N 
ATOM     22  N   UNL     1      34.219 -13.379 -22.312  0.00  0.00    -0.397 NA
ATOM     23  C   UNL     1      34.305 -15.662 -23.059  0.00  0.00    +0.123 C 
ATOM     24  C   UNL     1      33.691 -13.328 -25.977  0.00  0.00    +0.100 C 
ATOM     25  C   UNL     1      33.767 -11.480 -23.731  0.00  0.00    +0.177 C 
ATOM     26  C   UNL     1      33.078 -11.943 -26.061  0.00  0.00    +0.025 C 
ATOM     27  C   UNL     1      33.868 -11.010 -25.169  0.00  0.00    +0.040 C 
ATOM     28  C   UNL     1      33.992 -12.974 -23.523  0.00  0.00    +0.192 C 
ATOM     29  C   UNL     1      34.073 -15.200 -24.463  0.00  0.00    +0.237 C 
ATOM     30  C   UNL     1      34.373 -14.725 -22.093  0.00  0.00    +0.097 C 
ATOM     31  C   UNL     1      34.648 -15.055 -20.650  0.00  0.00    +0.062 C 
BRANCH  25  32
ATOM     32  O   UNL     1      34.719 -10.772 -22.950  0.00  0.00    -0.376 OA
ATOM     33  H   UNL     1      35.150 -11.384 -22.334  0.00  0.00    +0.211 HD
ENDBRANCH  25  32
ENDBRANCH  19  23
ENDBRANCH  18  19
ENDBRANCH   1  18
TORSDOF 5
ENDMDL
