MODEL 1
REMARK VINA RESULT:     -11.2      0.000      0.000
REMARK  Name = 2765355
REMARK  2 active torsions:
REMARK  status: ('A' for Active; 'I' for Inactive)
REMARK    1  A    between atoms: C_4  and  C_20
REMARK    2  A    between atoms: C_6  and  C_13
REMARK                            x       y       z     vdW  Elec       q    Type
REMARK                         _______ _______ _______ _____ _____    ______ ____
ROOT
ATOM      1  O   UNL     1      36.295 -22.500 -16.725  0.00  0.00    -0.353 OA
ATOM      2  N   UNL     1      36.333 -23.221 -15.539  0.00  0.00    -0.077 NA
ATOM      3  C   UNL     1      34.198 -22.989 -16.255  0.00  0.00    +0.058 A 
ATOM      4  C   UNL     1      35.012 -22.364 -17.150  0.00  0.00    +0.177 A 
ATOM      5  C   UNL     1      35.059 -23.530 -15.236  0.00  0.00    +0.123 A 
ATOM      6  C   UNL     1      32.304 -23.800 -15.232  0.00  0.00    +0.031 C 
ATOM      7  C   UNL     1      32.816 -23.078 -16.328  0.00  0.00    +0.007 C 
ATOM      8  C   UNL     1      34.524 -24.245 -14.151  0.00  0.00    +0.023 C 
ATOM      9  C   UNL     1      33.115 -24.356 -14.192  0.00  0.00    +0.004 C 
ENDROOT
BRANCH   6  13
ATOM     10  N   UNL     1      30.145 -23.199 -15.965  0.00  0.00    -0.338 NA
ATOM     11  N   UNL     1      28.158 -24.247 -15.091  0.00  0.00    -0.170 NA
ATOM     12  N   UNL     1      28.016 -22.568 -16.724  0.00  0.00    -0.293 N 
ATOM     13  C   UNL     1      30.868 -23.990 -15.149  0.00  0.00    +0.146 C 
ATOM     14  C   UNL     1      30.326 -24.918 -14.289  0.00  0.00    +0.055 C 
ATOM     15  C   UNL     1      28.949 -25.005 -14.303  0.00  0.00    +0.114 C 
ATOM     16  C   UNL     1      28.813 -23.378 -15.885  0.00  0.00    +0.141 C 
ATOM     17  H   UNL     1      28.442 -21.915 -17.326  0.00  0.00    +0.155 HD
ATOM     18  H   UNL     1      27.037 -22.657 -16.708  0.00  0.00    +0.155 HD
ENDBRANCH   6  13
BRANCH   4  20
ATOM     19 CL   UNL     1      34.308 -19.324 -22.220  0.00  0.00    -0.082 Cl
ATOM     20  C   UNL     1      34.843 -21.632 -18.373  0.00  0.00    +0.037 C 
ATOM     21  C   UNL     1      35.958 -21.169 -19.077  0.00  0.00    +0.004 C 
ATOM     22  C   UNL     1      33.561 -21.375 -18.868  0.00  0.00    +0.004 C 
ATOM     23  C   UNL     1      35.794 -20.457 -20.266  0.00  0.00    +0.011 C 
ATOM     24  C   UNL     1      33.396 -20.663 -20.056  0.00  0.00    +0.011 C 
ATOM     25  C   UNL     1      34.512 -20.203 -20.755  0.00  0.00    +0.058 C 
ENDBRANCH   4  20
TORSDOF 2
ENDMDL
MODEL 2
REMARK VINA RESULT:     -11.2      1.549      2.339
REMARK  Name = 2765355
REMARK  2 active torsions:
REMARK  status: ('A' for Active; 'I' for Inactive)
REMARK    1  A    between atoms: C_4  and  C_20
REMARK    2  A    between atoms: C_6  and  C_13
REMARK                            x       y       z     vdW  Elec       q    Type
REMARK                         _______ _______ _______ _____ _____    ______ ____
ROOT
ATOM      1  O   UNL     1      34.309 -23.388 -16.275  0.00  0.00    -0.353 OA
ATOM      2  N   UNL     1      33.854 -24.091 -15.168  0.00  0.00    -0.077 NA
ATOM      3  C   UNL     1      32.137 -23.022 -16.185  0.00  0.00    +0.058 A 
ATOM      4  C   UNL     1      33.275 -22.748 -16.881  0.00  0.00    +0.177 A 
ATOM      5  C   UNL     1      32.527 -23.881 -15.097  0.00  0.00    +0.123 A 
ATOM      6  C   UNL     1      29.927 -23.045 -15.548  0.00  0.00    +0.031 C 
ATOM      7  C   UNL     1      30.863 -22.559 -16.481  0.00  0.00    +0.007 C 
ATOM      8  C   UNL     1      31.574 -24.351 -14.178  0.00  0.00    +0.023 C 
ATOM      9  C   UNL     1      30.262 -23.899 -14.449  0.00  0.00    +0.004 C 
ENDROOT
BRANCH   6  13
ATOM     10  N   UNL     1      28.126 -22.545 -16.985  0.00  0.00    -0.338 NA
ATOM     11  N   UNL     1      25.951 -21.933 -16.147  0.00  0.00    -0.170 NA
ATOM     12  N   UNL     1      26.363 -22.053 -18.454  0.00  0.00    -0.293 N 
ATOM     13  C   UNL     1      28.538 -22.657 -15.708  0.00  0.00    +0.146 C 
ATOM     14  C   UNL     1      27.737 -22.430 -14.612  0.00  0.00    +0.055 C 
ATOM     15  C   UNL     1      26.436 -22.066 -14.895  0.00  0.00    +0.114 C 
ATOM     16  C   UNL     1      26.837 -22.183 -17.130  0.00  0.00    +0.141 C 
ATOM     17  H   UNL     1      26.968 -22.225 -19.212  0.00  0.00    +0.155 HD
ATOM     18  H   UNL     1      25.429 -21.792 -18.619  0.00  0.00    +0.155 HD
ENDBRANCH   6  13
BRANCH   4  20
ATOM     19 CL   UNL     1      34.710 -19.565 -21.703  0.00  0.00    -0.082 Cl
ATOM     20  C   UNL     1      33.622 -21.982 -18.044  0.00  0.00    +0.037 C 
ATOM     21  C   UNL     1      34.960 -21.840 -18.422  0.00  0.00    +0.004 C 
ATOM     22  C   UNL     1      32.622 -21.370 -18.808  0.00  0.00    +0.004 C 
ATOM     23  C   UNL     1      35.297 -21.094 -19.552  0.00  0.00    +0.011 C 
ATOM     24  C   UNL     1      32.959 -20.624 -19.938  0.00  0.00    +0.011 C 
ATOM     25  C   UNL     1      34.295 -20.485 -20.309  0.00  0.00    +0.058 C 
ENDBRANCH   4  20
TORSDOF 2
ENDMDL
MODEL 3
REMARK VINA RESULT:     -11.2      2.018      5.218
REMARK  Name = 2765355
REMARK  2 active torsions:
REMARK  status: ('A' for Active; 'I' for Inactive)
REMARK    1  A    between atoms: C_4  and  C_20
REMARK    2  A    between atoms: C_6  and  C_13
REMARK                            x       y       z     vdW  Elec       q    Type
REMARK                         _______ _______ _______ _____ _____    ______ ____
ROOT
ATOM      1  O   UNL     1      31.529 -22.547 -17.359  0.00  0.00    -0.353 OA
ATOM      2  N   UNL     1      31.072 -23.232 -16.241  0.00  0.00    -0.077 NA
ATOM      3  C   UNL     1      33.319 -22.969 -16.143  0.00  0.00    +0.058 A 
ATOM      4  C   UNL     1      32.877 -22.393 -17.296  0.00  0.00    +0.177 A 
ATOM      5  C   UNL     1      32.152 -23.498 -15.485  0.00  0.00    +0.123 A 
ATOM      6  C   UNL     1      34.721 -23.696 -14.470  0.00  0.00    +0.031 C 
ATOM      7  C   UNL     1      34.634 -23.025 -15.706  0.00  0.00    +0.007 C 
ATOM      8  C   UNL     1      32.265 -24.165 -14.253  0.00  0.00    +0.023 C 
ATOM      9  C   UNL     1      33.594 -24.241 -13.776  0.00  0.00    +0.004 C 
ENDROOT
BRANCH   6  13
ATOM     10  N   UNL     1      36.969 -24.376 -14.670  0.00  0.00    -0.338 NA
ATOM     11  N   UNL     1      38.533 -24.180 -12.848  0.00  0.00    -0.170 NA
ATOM     12  N   UNL     1      39.198 -25.068 -14.916  0.00  0.00    -0.293 N 
ATOM     13  C   UNL     1      36.030 -23.846 -13.865  0.00  0.00    +0.146 C 
ATOM     14  C   UNL     1      36.254 -23.461 -12.562  0.00  0.00    +0.055 C 
ATOM     15  C   UNL     1      37.541 -23.654 -12.101  0.00  0.00    +0.114 C 
ATOM     16  C   UNL     1      38.183 -24.514 -14.105  0.00  0.00    +0.141 C 
ATOM     17  H   UNL     1      38.998 -25.330 -15.844  0.00  0.00    +0.155 HD
ATOM     18  H   UNL     1      40.104 -25.191 -14.554  0.00  0.00    +0.155 HD
ENDBRANCH   6  13
BRANCH   4  20
ATOM     19 CL   UNL     1      35.336 -19.501 -21.881  0.00  0.00    -0.082 Cl
ATOM     20  C   UNL     1      33.470 -21.697 -18.402  0.00  0.00    +0.037 C 
ATOM     21  C   UNL     1      34.849 -21.769 -18.622  0.00  0.00    +0.004 C 
ATOM     22  C   UNL     1      32.674 -20.939 -19.266  0.00  0.00    +0.004 C 
ATOM     23  C   UNL     1      35.426 -21.092 -19.697  0.00  0.00    +0.011 C 
ATOM     24  C   UNL     1      33.250 -20.262 -20.340  0.00  0.00    +0.011 C 
ATOM     25  C   UNL     1      34.626 -20.337 -20.556  0.00  0.00    +0.058 C 
ENDBRANCH   4  20
TORSDOF 2
ENDMDL
MODEL 4
REMARK VINA RESULT:     -10.1      1.377      2.193
REMARK  Name = 2765355
REMARK  2 active torsions:
REMARK  status: ('A' for Active; 'I' for Inactive)
REMARK    1  A    between atoms: C_4  and  C_20
REMARK    2  A    between atoms: C_6  and  C_13
REMARK                            x       y       z     vdW  Elec       q    Type
REMARK                         _______ _______ _______ _____ _____    ______ ____
ROOT
ATOM      1  O   UNL     1      37.262 -21.816 -17.377  0.00  0.00    -0.353 OA
ATOM      2  N   UNL     1      37.510 -22.483 -16.184  0.00  0.00    -0.077 NA
ATOM      3  C   UNL     1      35.287 -22.423 -16.607  0.00  0.00    +0.058 A 
ATOM      4  C   UNL     1      35.926 -21.783 -17.625  0.00  0.00    +0.177 A 
ATOM      5  C   UNL     1      36.314 -22.863 -15.699  0.00  0.00    +0.123 A 
ATOM      6  C   UNL     1      33.611 -23.314 -15.307  0.00  0.00    +0.031 C 
ATOM      7  C   UNL     1      33.917 -22.607 -16.486  0.00  0.00    +0.007 C 
ATOM      8  C   UNL     1      35.983 -23.565 -14.528  0.00  0.00    +0.023 C 
ATOM      9  C   UNL     1      34.593 -23.772 -14.372  0.00  0.00    +0.004 C 
ENDROOT
BRANCH   6  13
ATOM     10  N   UNL     1      31.981 -24.102 -13.797  0.00  0.00    -0.338 NA
ATOM     11  N   UNL     1      29.639 -24.167 -14.360  0.00  0.00    -0.170 NA
ATOM     12  N   UNL     1      30.394 -24.896 -12.261  0.00  0.00    -0.293 N 
ATOM     13  C   UNL     1      32.217 -23.595 -15.022  0.00  0.00    +0.146 C 
ATOM     14  C   UNL     1      31.240 -23.347 -15.959  0.00  0.00    +0.055 C 
ATOM     15  C   UNL     1      29.953 -23.657 -15.569  0.00  0.00    +0.114 C 
ATOM     16  C   UNL     1      30.686 -24.362 -13.536  0.00  0.00    +0.141 C 
ATOM     17  H   UNL     1      31.122 -25.058 -11.617  0.00  0.00    +0.155 HD
ATOM     18  H   UNL     1      29.464 -25.104 -12.016  0.00  0.00    +0.155 HD
ENDBRANCH   6  13
BRANCH   4  20
ATOM     19 CL   UNL     1      34.334 -19.017 -22.651  0.00  0.00    -0.082 Cl
ATOM     20  C   UNL     1      35.542 -21.115 -18.836  0.00  0.00    +0.037 C 
ATOM     21  C   UNL     1      34.209 -21.135 -19.259  0.00  0.00    +0.004 C 
ATOM     22  C   UNL     1      36.497 -20.441 -19.603  0.00  0.00    +0.004 C 
ATOM     23  C   UNL     1      33.835 -20.486 -20.437  0.00  0.00    +0.011 C 
ATOM     24  C   UNL     1      36.124 -19.793 -20.780  0.00  0.00    +0.011 C 
ATOM     25  C   UNL     1      34.794 -19.816 -21.198  0.00  0.00    +0.058 C 
ENDBRANCH   4  20
TORSDOF 2
ENDMDL
MODEL 5
REMARK VINA RESULT:     -10.1      3.190      5.084
REMARK  Name = 2765355
REMARK  2 active torsions:
REMARK  status: ('A' for Active; 'I' for Inactive)
REMARK    1  A    between atoms: C_4  and  C_20
REMARK    2  A    between atoms: C_6  and  C_13
REMARK                            x       y       z     vdW  Elec       q    Type
REMARK                         _______ _______ _______ _____ _____    ______ ____
ROOT
ATOM      1  O   UNL     1      36.328 -22.576 -16.689  0.00  0.00    -0.353 OA
ATOM      2  N   UNL     1      35.668 -22.046 -17.790  0.00  0.00    -0.077 NA
ATOM      3  C   UNL     1      34.179 -22.890 -16.308  0.00  0.00    +0.058 A 
ATOM      4  C   UNL     1      35.430 -23.081 -15.804  0.00  0.00    +0.177 A 
ATOM      5  C   UNL     1      34.353 -22.227 -17.575  0.00  0.00    +0.123 A 
ATOM      6  C   UNL     1      31.888 -22.907 -16.514  0.00  0.00    +0.031 C 
ATOM      7  C   UNL     1      32.987 -23.264 -15.707  0.00  0.00    +0.007 C 
ATOM      8  C   UNL     1      33.240 -21.883 -18.362  0.00  0.00    +0.023 C 
ATOM      9  C   UNL     1      32.006 -22.250 -17.779  0.00  0.00    +0.004 C 
ENDROOT
BRANCH   6  13
ATOM     10  N   UNL     1      29.561 -22.553 -16.641  0.00  0.00    -0.338 NA
ATOM     11  N   UNL     1      28.007 -23.732 -15.225  0.00  0.00    -0.170 NA
ATOM     12  N   UNL     1      27.251 -22.167 -16.803  0.00  0.00    -0.293 N 
ATOM     13  C   UNL     1      30.556 -23.226 -16.034  0.00  0.00    +0.146 C 
ATOM     14  C   UNL     1      30.369 -24.152 -15.033  0.00  0.00    +0.055 C 
ATOM     15  C   UNL     1      29.057 -24.367 -14.664  0.00  0.00    +0.114 C 
ATOM     16  C   UNL     1      28.326 -22.852 -16.192  0.00  0.00    +0.141 C 
ATOM     17  H   UNL     1      27.427 -21.512 -17.517  0.00  0.00    +0.155 HD
ATOM     18  H   UNL     1      26.328 -22.346 -16.514  0.00  0.00    +0.155 HD
ENDBRANCH   6  13
BRANCH   4  20
ATOM     19 CL   UNL     1      37.763 -25.487 -10.883  0.00  0.00    -0.082 Cl
ATOM     20  C   UNL     1      35.993 -23.662 -14.618  0.00  0.00    +0.037 C 
ATOM     21  C   UNL     1      36.160 -25.046 -14.522  0.00  0.00    +0.004 C 
ATOM     22  C   UNL     1      36.378 -22.846 -13.549  0.00  0.00    +0.004 C 
ATOM     23  C   UNL     1      36.708 -25.610 -13.369  0.00  0.00    +0.011 C 
ATOM     24  C   UNL     1      36.925 -23.410 -12.397  0.00  0.00    +0.011 C 
ATOM     25  C   UNL     1      37.089 -24.791 -12.306  0.00  0.00    +0.058 C 
ENDBRANCH   4  20
TORSDOF 2
ENDMDL
MODEL 6
REMARK VINA RESULT:     -10.0     11.593     14.368
REMARK  Name = 2765355
REMARK  2 active torsions:
REMARK  status: ('A' for Active; 'I' for Inactive)
REMARK    1  A    between atoms: C_4  and  C_20
REMARK    2  A    between atoms: C_6  and  C_13
REMARK                            x       y       z     vdW  Elec       q    Type
REMARK                         _______ _______ _______ _____ _____    ______ ____
ROOT
ATOM      1  O   UNL     1      31.900  -8.256 -20.554  0.00  0.00    -0.353 OA
ATOM      2  N   UNL     1      31.518  -9.336 -19.769  0.00  0.00    -0.077 NA
ATOM      3  C   UNL     1      32.492 -10.055 -21.682  0.00  0.00    +0.058 A 
ATOM      4  C   UNL     1      32.484  -8.693 -21.700  0.00  0.00    +0.177 A 
ATOM      5  C   UNL     1      31.873 -10.445 -20.442  0.00  0.00    +0.123 A 
ATOM      6  C   UNL     1      32.841 -12.239 -22.315  0.00  0.00    +0.031 C 
ATOM      7  C   UNL     1      33.001 -10.885 -22.670  0.00  0.00    +0.007 C 
ATOM      8  C   UNL     1      31.723 -11.803 -20.112  0.00  0.00    +0.023 C 
ATOM      9  C   UNL     1      32.232 -12.680 -21.097  0.00  0.00    +0.004 C 
ENDROOT
BRANCH   6  13
ATOM     10  N   UNL     1      34.007 -14.257 -22.669  0.00  0.00    -0.338 NA
ATOM     11  N   UNL     1      34.279 -15.211 -24.866  0.00  0.00    -0.170 NA
ATOM     12  N   UNL     1      35.178 -16.269 -22.973  0.00  0.00    -0.293 N 
ATOM     13  C   UNL     1      33.322 -13.249 -23.239  0.00  0.00    +0.146 C 
ATOM     14  C   UNL     1      33.073 -13.146 -24.589  0.00  0.00    +0.055 C 
ATOM     15  C   UNL     1      33.582 -14.168 -25.364  0.00  0.00    +0.114 C 
ATOM     16  C   UNL     1      34.452 -15.192 -23.530  0.00  0.00    +0.141 C 
ATOM     17  H   UNL     1      35.334 -16.307 -22.002  0.00  0.00    +0.155 HD
ATOM     18  H   UNL     1      35.526 -16.981 -23.556  0.00  0.00    +0.155 HD
ENDBRANCH   6  13
BRANCH   4  20
ATOM     19 CL   UNL     1      34.305  -4.422 -25.426  0.00  0.00    -0.082 Cl
ATOM     20  C   UNL     1      32.924  -7.664 -22.599  0.00  0.00    +0.037 C 
ATOM     21  C   UNL     1      34.284  -7.365 -22.716  0.00  0.00    +0.004 C 
ATOM     22  C   UNL     1      31.994  -6.952 -23.363  0.00  0.00    +0.004 C 
ATOM     23  C   UNL     1      34.711  -6.365 -23.590  0.00  0.00    +0.011 C 
ATOM     24  C   UNL     1      32.420  -5.952 -24.236  0.00  0.00    +0.011 C 
ATOM     25  C   UNL     1      33.779  -5.657 -24.349  0.00  0.00    +0.058 C 
ENDBRANCH   4  20
TORSDOF 2
ENDMDL
MODEL 7
REMARK VINA RESULT:      -9.9      3.934      6.895
REMARK  Name = 2765355
REMARK  2 active torsions:
REMARK  status: ('A' for Active; 'I' for Inactive)
REMARK    1  A    between atoms: C_4  and  C_20
REMARK    2  A    between atoms: C_6  and  C_13
REMARK                            x       y       z     vdW  Elec       q    Type
REMARK                         _______ _______ _______ _____ _____    ______ ____
ROOT
ATOM      1  O   UNL     1      35.348 -24.014 -13.849  0.00  0.00    -0.353 OA
ATOM      2  N   UNL     1      36.663 -23.645 -14.100  0.00  0.00    -0.077 NA
ATOM      3  C   UNL     1      35.303 -22.892 -15.746  0.00  0.00    +0.058 A 
ATOM      4  C   UNL     1      34.537 -23.560 -14.839  0.00  0.00    +0.177 A 
ATOM      5  C   UNL     1      36.655 -22.956 -15.255  0.00  0.00    +0.123 A 
ATOM      6  C   UNL     1      35.923 -21.680 -17.601  0.00  0.00    +0.031 C 
ATOM      7  C   UNL     1      34.853 -22.276 -16.904  0.00  0.00    +0.007 C 
ATOM      8  C   UNL     1      37.706 -22.355 -15.970  0.00  0.00    +0.023 C 
ATOM      9  C   UNL     1      37.284 -21.717 -17.158  0.00  0.00    +0.004 C 
ENDROOT
BRANCH   6  13
ATOM     10  N   UNL     1      36.642 -20.247 -19.329  0.00  0.00    -0.338 NA
ATOM     11  N   UNL     1      35.208 -19.639 -21.168  0.00  0.00    -0.170 NA
ATOM     12  N   UNL     1      37.402 -18.816 -21.027  0.00  0.00    -0.293 N 
ATOM     13  C   UNL     1      35.630 -20.989 -18.842  0.00  0.00    +0.146 C 
ATOM     14  C   UNL     1      34.397 -21.109 -19.443  0.00  0.00    +0.055 C 
ATOM     15  C   UNL     1      34.241 -20.402 -20.618  0.00  0.00    +0.114 C 
ATOM     16  C   UNL     1      36.366 -19.607 -20.481  0.00  0.00    +0.141 C 
ATOM     17  H   UNL     1      38.271 -18.757 -20.566  0.00  0.00    +0.155 HD
ATOM     18  H   UNL     1      37.255 -18.326 -21.867  0.00  0.00    +0.155 HD
ENDBRANCH   6  13
BRANCH   4  20
ATOM     19 CL   UNL     1      28.767 -24.895 -14.233  0.00  0.00    -0.082 Cl
ATOM     20  C   UNL     1      33.146 -23.881 -14.692  0.00  0.00    +0.037 C 
ATOM     21  C   UNL     1      32.711 -24.650 -13.609  0.00  0.00    +0.004 C 
ATOM     22  C   UNL     1      32.215 -23.429 -15.633  0.00  0.00    +0.004 C 
ATOM     23  C   UNL     1      31.358 -24.962 -13.466  0.00  0.00    +0.011 C 
ATOM     24  C   UNL     1      30.863 -23.742 -15.491  0.00  0.00    +0.011 C 
ATOM     25  C   UNL     1      30.435 -24.509 -14.408  0.00  0.00    +0.058 C 
ENDBRANCH   4  20
TORSDOF 2
ENDMDL
MODEL 8
REMARK VINA RESULT:      -9.7      3.901      6.469
REMARK  Name = 2765355
REMARK  2 active torsions:
REMARK  status: ('A' for Active; 'I' for Inactive)
REMARK    1  A    between atoms: C_4  and  C_20
REMARK    2  A    between atoms: C_6  and  C_13
REMARK                            x       y       z     vdW  Elec       q    Type
REMARK                         _______ _______ _______ _____ _____    ______ ____
ROOT
ATOM      1  O   UNL     1      33.575 -24.815 -13.341  0.00  0.00    -0.353 OA
ATOM      2  N   UNL     1      32.275 -24.497 -13.712  0.00  0.00    -0.077 NA
ATOM      3  C   UNL     1      33.749 -23.678 -15.222  0.00  0.00    +0.058 A 
ATOM      4  C   UNL     1      34.455 -24.321 -14.251  0.00  0.00    +0.177 A 
ATOM      5  C   UNL     1      32.360 -23.803 -14.861  0.00  0.00    +0.123 A 
ATOM      6  C   UNL     1      33.253 -22.484 -17.125  0.00  0.00    +0.031 C 
ATOM      7  C   UNL     1      34.278 -23.038 -16.333  0.00  0.00    +0.007 C 
ATOM      8  C   UNL     1      31.356 -23.240 -15.667  0.00  0.00    +0.023 C 
ATOM      9  C   UNL     1      31.860 -22.579 -16.810  0.00  0.00    +0.004 C 
ENDROOT
BRANCH   6  13
ATOM     10  N   UNL     1      32.602 -21.260 -19.032  0.00  0.00    -0.338 NA
ATOM     11  N   UNL     1      34.206 -20.418 -20.622  0.00  0.00    -0.170 NA
ATOM     12  N   UNL     1      31.907 -20.047 -20.917  0.00  0.00    -0.293 N 
ATOM     13  C   UNL     1      33.631 -21.775 -18.333  0.00  0.00    +0.146 C 
ATOM     14  C   UNL     1      34.953 -21.659 -18.700  0.00  0.00    +0.055 C 
ATOM     15  C   UNL     1      35.183 -20.962 -19.868  0.00  0.00    +0.114 C 
ATOM     16  C   UNL     1      32.957 -20.603 -20.152  0.00  0.00    +0.141 C 
ATOM     17  H   UNL     1      30.973 -20.151 -20.620  0.00  0.00    +0.155 HD
ATOM     18  H   UNL     1      32.109 -19.556 -21.745  0.00  0.00    +0.155 HD
ENDBRANCH   6  13
BRANCH   4  20
ATOM     19 CL   UNL     1      40.195 -25.415 -13.113  0.00  0.00    -0.082 Cl
ATOM     20  C   UNL     1      35.838 -24.585 -13.975  0.00  0.00    +0.037 C 
ATOM     21  C   UNL     1      36.549 -23.767 -13.092  0.00  0.00    +0.004 C 
ATOM     22  C   UNL     1      36.486 -25.660 -14.591  0.00  0.00    +0.004 C 
ATOM     23  C   UNL     1      37.895 -24.024 -12.824  0.00  0.00    +0.011 C 
ATOM     24  C   UNL     1      37.831 -25.917 -14.324  0.00  0.00    +0.011 C 
ATOM     25  C   UNL     1      38.536 -25.099 -13.442  0.00  0.00    +0.058 C 
ENDBRANCH   4  20
TORSDOF 2
ENDMDL
MODEL 9
REMARK VINA RESULT:      -9.7      3.742      6.625
REMARK  Name = 2765355
REMARK  2 active torsions:
REMARK  status: ('A' for Active; 'I' for Inactive)
REMARK    1  A    between atoms: C_4  and  C_20
REMARK    2  A    between atoms: C_6  and  C_13
REMARK                            x       y       z     vdW  Elec       q    Type
REMARK                         _______ _______ _______ _____ _____    ______ ____
ROOT
ATOM      1  O   UNL     1      33.328 -24.817 -13.434  0.00  0.00    -0.353 OA
ATOM      2  N   UNL     1      32.032 -24.503 -13.821  0.00  0.00    -0.077 NA
ATOM      3  C   UNL     1      33.524 -23.642 -15.289  0.00  0.00    +0.058 A 
ATOM      4  C   UNL     1      34.219 -24.298 -14.319  0.00  0.00    +0.177 A 
ATOM      5  C   UNL     1      32.131 -23.785 -14.954  0.00  0.00    +0.123 A 
ATOM      6  C   UNL     1      33.051 -22.414 -17.176  0.00  0.00    +0.031 C 
ATOM      7  C   UNL     1      34.067 -22.975 -16.378  0.00  0.00    +0.007 C 
ATOM      8  C   UNL     1      31.136 -23.215 -15.766  0.00  0.00    +0.023 C 
ATOM      9  C   UNL     1      31.653 -22.526 -16.887  0.00  0.00    +0.004 C 
ENDROOT
BRANCH   6  13
ATOM     10  N   UNL     1      34.770 -21.617 -18.578  0.00  0.00    -0.338 NA
ATOM     11  N   UNL     1      34.312 -20.323 -20.558  0.00  0.00    -0.170 NA
ATOM     12  N   UNL     1      36.516 -20.844 -19.943  0.00  0.00    -0.293 N 
ATOM     13  C   UNL     1      33.443 -21.678 -18.363  0.00  0.00    +0.146 C 
ATOM     14  C   UNL     1      32.498 -21.100 -19.180  0.00  0.00    +0.055 C 
ATOM     15  C   UNL     1      32.997 -20.426 -20.277  0.00  0.00    +0.114 C 
ATOM     16  C   UNL     1      35.131 -20.932 -19.680  0.00  0.00    +0.141 C 
ATOM     17  H   UNL     1      37.161 -21.272 -19.334  0.00  0.00    +0.155 HD
ATOM     18  H   UNL     1      36.836 -20.356 -20.735  0.00  0.00    +0.155 HD
ENDBRANCH   6  13
BRANCH   4  20
ATOM     19 CL   UNL     1      39.948 -25.367 -13.105  0.00  0.00    -0.082 Cl
ATOM     20  C   UNL     1      35.600 -24.556 -14.025  0.00  0.00    +0.037 C 
ATOM     21  C   UNL     1      36.301 -23.724 -13.147  0.00  0.00    +0.004 C 
ATOM     22  C   UNL     1      36.255 -25.640 -14.616  0.00  0.00    +0.004 C 
ATOM     23  C   UNL     1      37.644 -23.974 -12.862  0.00  0.00    +0.011 C 
ATOM     24  C   UNL     1      37.597 -25.891 -14.332  0.00  0.00    +0.011 C 
ATOM     25  C   UNL     1      38.292 -25.058 -13.455  0.00  0.00    +0.058 C 
ENDBRANCH   4  20
TORSDOF 2
ENDMDL
