MODEL 1
REMARK VINA RESULT:     -11.8      0.000      0.000
REMARK  Name = 16750097
REMARK  3 active torsions:
REMARK  status: ('A' for Active; 'I' for Inactive)
REMARK    1  A    between atoms: N_3  and  C_10
REMARK    2  A    between atoms: N_3  and  C_23
REMARK    3  A    between atoms: C_23  and  C_24
REMARK                            x       y       z     vdW  Elec       q    Type
REMARK                         _______ _______ _______ _____ _____    ______ ____
ROOT
ATOM      1  O   UNL     1      33.817 -14.553 -25.867  0.00  0.00    -0.209 OA
ATOM      2  N   UNL     1      35.295 -18.478 -22.702  0.00  0.00    -0.305 N 
ATOM      3  N   UNL     1      35.405 -17.672 -20.634  0.00  0.00    -0.305 N 
ATOM      4  N   UNL     1      34.031 -13.155 -22.120  0.00  0.00    -0.275 N 
ATOM      5  N   UNL     1      33.588 -12.786 -24.429  0.00  0.00    -0.302 NA
ATOM      6  N   UNL     1      33.394 -11.074 -22.842  0.00  0.00    -0.320 N 
ATOM      7  C   UNL     1      34.944 -17.156 -22.805  0.00  0.00    +0.061 C 
ATOM      8  C   UNL     1      35.019 -16.676 -21.501  0.00  0.00    +0.061 C 
ATOM      9  C   UNL     1      35.562 -18.738 -21.386  0.00  0.00    +0.208 C 
ATOM     10  C   UNL     1      34.343 -14.503 -22.321  0.00  0.00    +0.064 C 
ATOM     11  C   UNL     1      34.278 -15.025 -23.622  0.00  0.00    +0.110 C 
ATOM     12  C   UNL     1      34.578 -16.367 -23.897  0.00  0.00    +0.030 C 
ATOM     13  C   UNL     1      34.715 -15.328 -21.246  0.00  0.00    +0.031 C 
ATOM     14  C   UNL     1      33.878 -14.106 -24.726  0.00  0.00    +0.208 C 
ATOM     15  C   UNL     1      33.670 -12.372 -23.192  0.00  0.00    +0.248 C 
ATOM     16  H   UNL     1      35.347 -19.124 -23.442  0.00  0.00    +0.150 HD
ATOM     17  H   UNL     1      35.535 -17.601 -19.661  0.00  0.00    +0.150 HD
ATOM     18  H   UNL     1      34.070 -12.769 -21.216  0.00  0.00    +0.156 HD
ATOM     19  H   UNL     1      33.466 -10.792 -21.901  0.00  0.00    +0.146 HD
ATOM     20  H   UNL     1      33.126 -10.424 -23.531  0.00  0.00    +0.146 HD
ENDROOT
BRANCH   9  21
ATOM     21  N   UNL     1      35.933 -19.991 -21.044  0.00  0.00    -0.263 NA
ATOM     22  H   UNL     1      35.820 -20.702 -21.715  0.00  0.00    +0.127 HD
BRANCH  21  23
ATOM     23  C   UNL     1      36.489 -20.361 -19.754  0.00  0.00    +0.098 C 
BRANCH  23  24
ATOM     24  C   UNL     1      35.492 -21.156 -18.958  0.00  0.00    -0.006 C 
ATOM     25  C   UNL     1      35.818 -21.737 -17.723  0.00  0.00    -0.003 C 
ATOM     26  C   UNL     1      34.833 -22.475 -17.022  0.00  0.00    -0.000 C 
ATOM     27  C   UNL     1      34.213 -21.302 -19.497  0.00  0.00    -0.003 C 
ATOM     28  C   UNL     1      37.100 -21.602 -17.165  0.00  0.00    -0.000 C 
ATOM     29  C   UNL     1      33.551 -22.611 -17.580  0.00  0.00    -0.000 C 
ATOM     30  C   UNL     1      33.244 -22.026 -18.810  0.00  0.00    -0.000 C 
ATOM     31  C   UNL     1      35.160 -23.055 -15.787  0.00  0.00    -0.000 C 
ATOM     32  C   UNL     1      37.407 -22.186 -15.936  0.00  0.00    -0.000 C 
ATOM     33  C   UNL     1      36.438 -22.911 -15.247  0.00  0.00    -0.000 C 
ENDBRANCH  23  24
ENDBRANCH  21  23
ENDBRANCH   9  21
TORSDOF 3
ENDMDL
MODEL 2
REMARK VINA RESULT:     -11.8      3.564     10.862
REMARK  Name = 16750097
REMARK  3 active torsions:
REMARK  status: ('A' for Active; 'I' for Inactive)
REMARK    1  A    between atoms: N_3  and  C_10
REMARK    2  A    between atoms: N_3  and  C_23
REMARK    3  A    between atoms: C_23  and  C_24
REMARK                            x       y       z     vdW  Elec       q    Type
REMARK                         _______ _______ _______ _____ _____    ______ ____
ROOT
ATOM      1  O   UNL     1      34.197 -18.975 -24.622  0.00  0.00    -0.209 OA
ATOM      2  N   UNL     1      33.677 -13.747 -24.675  0.00  0.00    -0.305 N 
ATOM      3  N   UNL     1      34.360 -12.981 -22.704  0.00  0.00    -0.305 N 
ATOM      4  N   UNL     1      35.415 -17.539 -21.088  0.00  0.00    -0.275 N 
ATOM      5  N   UNL     1      35.037 -19.391 -22.533  0.00  0.00    -0.302 NA
ATOM      6  N   UNL     1      35.892 -19.664 -20.369  0.00  0.00    -0.320 N 
ATOM      7  C   UNL     1      34.056 -14.856 -23.962  0.00  0.00    +0.061 C 
ATOM      8  C   UNL     1      34.479 -14.352 -22.737  0.00  0.00    +0.061 C 
ATOM      9  C   UNL     1      33.877 -12.652 -23.881  0.00  0.00    +0.208 C 
ATOM     10  C   UNL     1      34.963 -16.615 -22.035  0.00  0.00    +0.064 C 
ATOM     11  C   UNL     1      34.530 -17.085 -23.284  0.00  0.00    +0.110 C 
ATOM     12  C   UNL     1      34.064 -16.215 -24.281  0.00  0.00    +0.030 C 
ATOM     13  C   UNL     1      34.942 -15.239 -21.751  0.00  0.00    +0.031 C 
ATOM     14  C   UNL     1      34.573 -18.555 -23.533  0.00  0.00    +0.208 C 
ATOM     15  C   UNL     1      35.425 -18.880 -21.394  0.00  0.00    +0.248 C 
ATOM     16  H   UNL     1      33.324 -13.739 -25.593  0.00  0.00    +0.150 HD
ATOM     17  H   UNL     1      34.588 -12.378 -21.960  0.00  0.00    +0.150 HD
ATOM     18  H   UNL     1      35.724 -17.231 -20.206  0.00  0.00    +0.156 HD
ATOM     19  H   UNL     1      36.177 -19.249 -19.523  0.00  0.00    +0.146 HD
ATOM     20  H   UNL     1      35.941 -20.641 -20.480  0.00  0.00    +0.146 HD
ENDROOT
BRANCH   9  21
ATOM     21  N   UNL     1      33.569 -11.435 -24.379  0.00  0.00    -0.263 NA
ATOM     22  H   UNL     1      32.813 -11.374 -25.007  0.00  0.00    +0.127 HD
BRANCH  21  23
ATOM     23  C   UNL     1      34.275 -10.208 -24.052  0.00  0.00    +0.098 C 
BRANCH  23  24
ATOM     24  C   UNL     1      33.385  -9.279 -23.274  0.00  0.00    -0.006 C 
ATOM     25  C   UNL     1      33.483  -7.883 -23.390  0.00  0.00    -0.003 C 
ATOM     26  C   UNL     1      32.616  -7.062 -22.630  0.00  0.00    -0.000 C 
ATOM     27  C   UNL     1      32.445  -9.858 -22.420  0.00  0.00    -0.003 C 
ATOM     28  C   UNL     1      34.424  -7.283 -24.243  0.00  0.00    -0.000 C 
ATOM     29  C   UNL     1      31.676  -7.662 -21.775  0.00  0.00    -0.000 C 
ATOM     30  C   UNL     1      31.592  -9.052 -21.673  0.00  0.00    -0.000 C 
ATOM     31  C   UNL     1      32.714  -5.667 -22.745  0.00  0.00    -0.000 C 
ATOM     32  C   UNL     1      34.508  -5.894 -24.345  0.00  0.00    -0.000 C 
ATOM     33  C   UNL     1      33.654  -5.087 -23.598  0.00  0.00    -0.000 C 
ENDBRANCH  23  24
ENDBRANCH  21  23
ENDBRANCH   9  21
TORSDOF 3
ENDMDL
MODEL 3
REMARK VINA RESULT:     -11.8      2.906      9.298
REMARK  Name = 16750097
REMARK  3 active torsions:
REMARK  status: ('A' for Active; 'I' for Inactive)
REMARK    1  A    between atoms: N_3  and  C_10
REMARK    2  A    between atoms: N_3  and  C_23
REMARK    3  A    between atoms: C_23  and  C_24
REMARK                            x       y       z     vdW  Elec       q    Type
REMARK                         _______ _______ _______ _____ _____    ______ ____
ROOT
ATOM      1  O   UNL     1      33.034 -22.214 -19.106  0.00  0.00    -0.209 OA
ATOM      2  N   UNL     1      34.302 -18.580 -22.683  0.00  0.00    -0.305 N 
ATOM      3  N   UNL     1      36.377 -17.910 -22.258  0.00  0.00    -0.305 N 
ATOM      4  N   UNL     1      36.771 -20.968 -18.387  0.00  0.00    -0.275 N 
ATOM      5  N   UNL     1      34.924 -22.357 -17.821  0.00  0.00    -0.302 NA
ATOM      6  N   UNL     1      36.921 -22.395 -16.598  0.00  0.00    -0.320 N 
ATOM      7  C   UNL     1      34.702 -19.302 -21.588  0.00  0.00    +0.061 C 
ATOM      8  C   UNL     1      36.001 -18.866 -21.343  0.00  0.00    +0.061 C 
ATOM      9  C   UNL     1      35.336 -17.763 -23.046  0.00  0.00    +0.208 C 
ATOM     10  C   UNL     1      36.100 -20.391 -19.469  0.00  0.00    +0.064 C 
ATOM     11  C   UNL     1      34.789 -20.806 -19.748  0.00  0.00    +0.110 C 
ATOM     12  C   UNL     1      34.055 -20.270 -20.817  0.00  0.00    +0.030 C 
ATOM     13  C   UNL     1      36.719 -19.415 -20.267  0.00  0.00    +0.031 C 
ATOM     14  C   UNL     1      34.180 -21.845 -18.869  0.00  0.00    +0.208 C 
ATOM     15  C   UNL     1      36.141 -21.922 -17.622  0.00  0.00    +0.248 C 
ATOM     16  H   UNL     1      33.426 -18.639 -23.129  0.00  0.00    +0.150 HD
ATOM     17  H   UNL     1      37.239 -17.438 -22.311  0.00  0.00    +0.150 HD
ATOM     18  H   UNL     1      37.692 -20.693 -18.173  0.00  0.00    +0.156 HD
ATOM     19  H   UNL     1      37.834 -22.048 -16.474  0.00  0.00    +0.146 HD
ATOM     20  H   UNL     1      36.569 -23.082 -15.987  0.00  0.00    +0.146 HD
ENDROOT
BRANCH   9  21
ATOM     21  N   UNL     1      35.166 -16.950 -24.111  0.00  0.00    -0.263 NA
ATOM     22  H   UNL     1      35.899 -16.896 -24.768  0.00  0.00    +0.127 HD
BRANCH  21  23
ATOM     23  C   UNL     1      33.979 -16.150 -24.357  0.00  0.00    +0.098 C 
BRANCH  23  24
ATOM     24  C   UNL     1      34.025 -14.878 -23.557  0.00  0.00    -0.006 C 
ATOM     25  C   UNL     1      33.858 -13.618 -24.152  0.00  0.00    -0.003 C 
ATOM     26  C   UNL     1      33.912 -12.457 -23.344  0.00  0.00    -0.000 C 
ATOM     27  C   UNL     1      34.244 -14.993 -22.184  0.00  0.00    -0.003 C 
ATOM     28  C   UNL     1      33.637 -13.482 -25.533  0.00  0.00    -0.000 C 
ATOM     29  C   UNL     1      34.133 -12.592 -21.963  0.00  0.00    -0.000 C 
ATOM     30  C   UNL     1      34.297 -13.853 -21.388  0.00  0.00    -0.000 C 
ATOM     31  C   UNL     1      33.744 -11.197 -23.939  0.00  0.00    -0.000 C 
ATOM     32  C   UNL     1      33.473 -12.222 -26.108  0.00  0.00    -0.000 C 
ATOM     33  C   UNL     1      33.526 -11.081 -25.312  0.00  0.00    -0.000 C 
ENDBRANCH  23  24
ENDBRANCH  21  23
ENDBRANCH   9  21
TORSDOF 3
ENDMDL
MODEL 4
REMARK VINA RESULT:     -11.6      4.163      9.501
REMARK  Name = 16750097
REMARK  3 active torsions:
REMARK  status: ('A' for Active; 'I' for Inactive)
REMARK    1  A    between atoms: N_3  and  C_10
REMARK    2  A    between atoms: N_3  and  C_23
REMARK    3  A    between atoms: C_23  and  C_24
REMARK                            x       y       z     vdW  Elec       q    Type
REMARK                         _______ _______ _______ _____ _____    ______ ____
ROOT
ATOM      1  O   UNL     1      30.057 -22.892 -16.493  0.00  0.00    -0.209 OA
ATOM      2  N   UNL     1      33.882 -20.964 -19.536  0.00  0.00    -0.305 N 
ATOM      3  N   UNL     1      35.824 -21.529 -18.618  0.00  0.00    -0.305 N 
ATOM      4  N   UNL     1      33.587 -23.882 -14.882  0.00  0.00    -0.275 N 
ATOM      5  N   UNL     1      31.209 -23.937 -14.812  0.00  0.00    -0.302 NA
ATOM      6  N   UNL     1      32.520 -24.962 -13.163  0.00  0.00    -0.320 N 
ATOM      7  C   UNL     1      33.560 -21.673 -18.407  0.00  0.00    +0.061 C 
ATOM      8  C   UNL     1      34.789 -22.015 -17.852  0.00  0.00    +0.061 C 
ATOM      9  C   UNL     1      35.245 -20.905 -19.619  0.00  0.00    +0.208 C 
ATOM     10  C   UNL     1      33.608 -23.140 -16.066  0.00  0.00    +0.064 C 
ATOM     11  C   UNL     1      32.388 -22.777 -16.657  0.00  0.00    +0.110 C 
ATOM     12  C   UNL     1      32.334 -22.032 -17.845  0.00  0.00    +0.030 C 
ATOM     13  C   UNL     1      34.823 -22.761 -16.662  0.00  0.00    +0.031 C 
ATOM     14  C   UNL     1      31.129 -23.204 -15.983  0.00  0.00    +0.208 C 
ATOM     15  C   UNL     1      32.383 -24.239 -14.321  0.00  0.00    +0.248 C 
ATOM     16  H   UNL     1      33.245 -20.568 -20.174  0.00  0.00    +0.150 HD
ATOM     17  H   UNL     1      36.789 -21.628 -18.452  0.00  0.00    +0.150 HD
ATOM     18  H   UNL     1      34.431 -24.148 -14.451  0.00  0.00    +0.156 HD
ATOM     19  H   UNL     1      33.418 -25.173 -12.819  0.00  0.00    +0.146 HD
ATOM     20  H   UNL     1      31.721 -25.269 -12.677  0.00  0.00    +0.146 HD
ENDROOT
BRANCH   9  21
ATOM     21  N   UNL     1      35.796 -20.247 -20.662  0.00  0.00    -0.263 NA
ATOM     22  H   UNL     1      36.264 -20.781 -21.345  0.00  0.00    +0.127 HD
BRANCH  21  23
ATOM     23  C   UNL     1      35.745 -18.808 -20.848  0.00  0.00    +0.098 C 
BRANCH  23  24
ATOM     24  C   UNL     1      35.139 -18.469 -22.181  0.00  0.00    -0.006 C 
ATOM     25  C   UNL     1      34.831 -17.149 -22.545  0.00  0.00    -0.003 C 
ATOM     26  C   UNL     1      34.262 -16.895 -23.816  0.00  0.00    -0.000 C 
ATOM     27  C   UNL     1      34.888 -19.526 -23.057  0.00  0.00    -0.003 C 
ATOM     28  C   UNL     1      35.076 -16.073 -21.677  0.00  0.00    -0.000 C 
ATOM     29  C   UNL     1      34.016 -17.971 -24.685  0.00  0.00    -0.000 C 
ATOM     30  C   UNL     1      34.328 -19.278 -24.307  0.00  0.00    -0.000 C 
ATOM     31  C   UNL     1      33.954 -15.575 -24.181  0.00  0.00    -0.000 C 
ATOM     32  C   UNL     1      34.764 -14.766 -22.055  0.00  0.00    -0.000 C 
ATOM     33  C   UNL     1      34.204 -14.518 -23.305  0.00  0.00    -0.000 C 
ENDBRANCH  23  24
ENDBRANCH  21  23
ENDBRANCH   9  21
TORSDOF 3
ENDMDL
MODEL 5
REMARK VINA RESULT:     -11.5      1.345      2.752
REMARK  Name = 16750097
REMARK  3 active torsions:
REMARK  status: ('A' for Active; 'I' for Inactive)
REMARK    1  A    between atoms: N_3  and  C_10
REMARK    2  A    between atoms: N_3  and  C_23
REMARK    3  A    between atoms: C_23  and  C_24
REMARK                            x       y       z     vdW  Elec       q    Type
REMARK                         _______ _______ _______ _____ _____    ______ ____
ROOT
ATOM      1  O   UNL     1      34.194 -12.998 -21.375  0.00  0.00    -0.209 OA
ATOM      2  N   UNL     1      35.618 -17.932 -20.263  0.00  0.00    -0.305 N 
ATOM      3  N   UNL     1      35.510 -19.106 -22.146  0.00  0.00    -0.305 N 
ATOM      4  N   UNL     1      34.017 -15.164 -24.739  0.00  0.00    -0.275 N 
ATOM      5  N   UNL     1      33.746 -13.082 -23.619  0.00  0.00    -0.302 NA
ATOM      6  N   UNL     1      33.325 -13.318 -25.912  0.00  0.00    -0.320 N 
ATOM      7  C   UNL     1      35.203 -17.046 -21.224  0.00  0.00    +0.061 C 
ATOM      8  C   UNL     1      35.144 -17.802 -22.390  0.00  0.00    +0.061 C 
ATOM      9  C   UNL     1      35.787 -19.149 -20.862  0.00  0.00    +0.208 C 
ATOM     10  C   UNL     1      34.419 -15.822 -23.573  0.00  0.00    +0.064 C 
ATOM     11  C   UNL     1      34.492 -15.092 -22.377  0.00  0.00    +0.110 C 
ATOM     12  C   UNL     1      34.886 -15.687 -21.170  0.00  0.00    +0.030 C 
ATOM     13  C   UNL     1      34.747 -17.188 -23.589  0.00  0.00    +0.031 C 
ATOM     14  C   UNL     1      34.132 -13.645 -22.416  0.00  0.00    +0.208 C 
ATOM     15  C   UNL     1      33.702 -13.825 -24.694  0.00  0.00    +0.248 C 
ATOM     16  H   UNL     1      35.767 -17.729 -19.312  0.00  0.00    +0.150 HD
ATOM     17  H   UNL     1      35.554 -19.847 -22.793  0.00  0.00    +0.150 HD
ATOM     18  H   UNL     1      33.959 -15.656 -25.590  0.00  0.00    +0.156 HD
ATOM     19  H   UNL     1      33.302 -13.904 -26.703  0.00  0.00    +0.146 HD
ATOM     20  H   UNL     1      33.077 -12.369 -25.994  0.00  0.00    +0.146 HD
ENDROOT
BRANCH   9  21
ATOM     21  N   UNL     1      36.196 -20.187 -20.101  0.00  0.00    -0.263 NA
ATOM     22  H   UNL     1      37.130 -20.188 -19.790  0.00  0.00    +0.127 HD
BRANCH  21  23
ATOM     23  C   UNL     1      35.352 -21.302 -19.707  0.00  0.00    +0.098 C 
BRANCH  23  24
ATOM     24  C   UNL     1      35.653 -21.718 -18.294  0.00  0.00    -0.006 C 
ATOM     25  C   UNL     1      34.669 -22.259 -17.452  0.00  0.00    -0.003 C 
ATOM     26  C   UNL     1      35.016 -22.631 -16.131  0.00  0.00    -0.000 C 
ATOM     27  C   UNL     1      36.962 -21.547 -17.841  0.00  0.00    -0.003 C 
ATOM     28  C   UNL     1      33.347 -22.438 -17.890  0.00  0.00    -0.000 C 
ATOM     29  C   UNL     1      36.338 -22.451 -15.692  0.00  0.00    -0.000 C 
ATOM     30  C   UNL     1      37.304 -21.913 -16.544  0.00  0.00    -0.000 C 
ATOM     31  C   UNL     1      34.032 -23.172 -15.288  0.00  0.00    -0.000 C 
ATOM     32  C   UNL     1      32.381 -22.977 -17.038  0.00  0.00    -0.000 C 
ATOM     33  C   UNL     1      32.724 -23.343 -15.740  0.00  0.00    -0.000 C 
ENDBRANCH  23  24
ENDBRANCH  21  23
ENDBRANCH   9  21
TORSDOF 3
ENDMDL
MODEL 6
REMARK VINA RESULT:     -11.5      3.606      6.179
REMARK  Name = 16750097
REMARK  3 active torsions:
REMARK  status: ('A' for Active; 'I' for Inactive)
REMARK    1  A    between atoms: N_3  and  C_10
REMARK    2  A    between atoms: N_3  and  C_23
REMARK    3  A    between atoms: C_23  and  C_24
REMARK                            x       y       z     vdW  Elec       q    Type
REMARK                         _______ _______ _______ _____ _____    ______ ____
ROOT
ATOM      1  O   UNL     1      37.720 -18.869 -21.304  0.00  0.00    -0.209 OA
ATOM      2  N   UNL     1      35.075 -21.995 -18.011  0.00  0.00    -0.305 N 
ATOM      3  N   UNL     1      32.947 -21.999 -18.647  0.00  0.00    -0.305 N 
ATOM      4  N   UNL     1      33.870 -18.915 -22.406  0.00  0.00    -0.275 N 
ATOM      5  N   UNL     1      36.095 -18.142 -22.744  0.00  0.00    -0.302 NA
ATOM      6  N   UNL     1      34.331 -17.483 -24.138  0.00  0.00    -0.320 N 
ATOM      7  C   UNL     1      35.019 -21.171 -19.105  0.00  0.00    +0.061 C 
ATOM      8  C   UNL     1      33.681 -21.191 -19.485  0.00  0.00    +0.061 C 
ATOM      9  C   UNL     1      33.813 -22.465 -17.776  0.00  0.00    +0.208 C 
ATOM     10  C   UNL     1      34.228 -19.682 -21.294  0.00  0.00    +0.064 C 
ATOM     11  C   UNL     1      35.569 -19.688 -20.881  0.00  0.00    +0.110 C 
ATOM     12  C   UNL     1      35.999 -20.435 -19.774  0.00  0.00    +0.030 C 
ATOM     13  C   UNL     1      33.270 -20.437 -20.597  0.00  0.00    +0.031 C 
ATOM     14  C   UNL     1      36.544 -18.869 -21.657  0.00  0.00    +0.208 C 
ATOM     15  C   UNL     1      34.830 -18.186 -23.070  0.00  0.00    +0.248 C 
ATOM     16  H   UNL     1      35.880 -22.210 -17.486  0.00  0.00    +0.150 HD
ATOM     17  H   UNL     1      31.982 -22.188 -18.692  0.00  0.00    +0.150 HD
ATOM     18  H   UNL     1      32.935 -18.896 -22.713  0.00  0.00    +0.156 HD
ATOM     19  H   UNL     1      33.373 -17.536 -24.357  0.00  0.00    +0.146 HD
ATOM     20  H   UNL     1      34.931 -16.926 -24.684  0.00  0.00    +0.146 HD
ENDROOT
BRANCH   9  21
ATOM     21  N   UNL     1      33.625 -23.303 -16.734  0.00  0.00    -0.263 NA
ATOM     22  H   UNL     1      33.548 -24.266 -16.928  0.00  0.00    +0.127 HD
BRANCH  21  23
ATOM     23  C   UNL     1      33.529 -22.884 -15.347  0.00  0.00    +0.098 C 
BRANCH  23  24
ATOM     24  C   UNL     1      32.440 -23.644 -14.641  0.00  0.00    -0.006 C 
ATOM     25  C   UNL     1      31.095 -23.557 -15.035  0.00  0.00    -0.003 C 
ATOM     26  C   UNL     1      30.117 -24.297 -14.329  0.00  0.00    -0.000 C 
ATOM     27  C   UNL     1      32.815 -24.449 -13.564  0.00  0.00    -0.003 C 
ATOM     28  C   UNL     1      30.699 -22.752 -16.115  0.00  0.00    -0.000 C 
ATOM     29  C   UNL     1      30.513 -25.102 -13.248  0.00  0.00    -0.000 C 
ATOM     30  C   UNL     1      31.854 -25.177 -12.870  0.00  0.00    -0.000 C 
ATOM     31  C   UNL     1      28.773 -24.210 -14.723  0.00  0.00    -0.000 C 
ATOM     32  C   UNL     1      29.358 -22.677 -16.493  0.00  0.00    -0.000 C 
ATOM     33  C   UNL     1      28.396 -23.406 -15.799  0.00  0.00    -0.000 C 
ENDBRANCH  23  24
ENDBRANCH  21  23
ENDBRANCH   9  21
TORSDOF 3
ENDMDL
MODEL 7
REMARK VINA RESULT:     -11.5      2.617      4.562
REMARK  Name = 16750097
REMARK  3 active torsions:
REMARK  status: ('A' for Active; 'I' for Inactive)
REMARK    1  A    between atoms: N_3  and  C_10
REMARK    2  A    between atoms: N_3  and  C_23
REMARK    3  A    between atoms: C_23  and  C_24
REMARK                            x       y       z     vdW  Elec       q    Type
REMARK                         _______ _______ _______ _____ _____    ______ ____
ROOT
ATOM      1  O   UNL     1      31.572 -11.162 -19.719  0.00  0.00    -0.209 OA
ATOM      2  N   UNL     1      34.123 -15.154 -21.992  0.00  0.00    -0.305 N 
ATOM      3  N   UNL     1      34.764 -14.483 -24.010  0.00  0.00    -0.305 N 
ATOM      4  N   UNL     1      32.752 -10.007 -23.367  0.00  0.00    -0.275 N 
ATOM      5  N   UNL     1      31.650  -9.522 -21.315  0.00  0.00    -0.302 NA
ATOM      6  N   UNL     1      31.808  -7.943 -23.038  0.00  0.00    -0.320 N 
ATOM      7  C   UNL     1      33.676 -13.863 -22.108  0.00  0.00    +0.061 C 
ATOM      8  C   UNL     1      34.089 -13.466 -23.375  0.00  0.00    +0.061 C 
ATOM      9  C   UNL     1      34.766 -15.480 -23.154  0.00  0.00    +0.208 C 
ATOM     10  C   UNL     1      33.076 -11.308 -22.970  0.00  0.00    +0.064 C 
ATOM     11  C   UNL     1      32.678 -11.744 -21.697  0.00  0.00    +0.110 C 
ATOM     12  C   UNL     1      32.968 -13.035 -21.233  0.00  0.00    +0.030 C 
ATOM     13  C   UNL     1      33.789 -12.168 -23.822  0.00  0.00    +0.031 C 
ATOM     14  C   UNL     1      31.924 -10.790 -20.834  0.00  0.00    +0.208 C 
ATOM     15  C   UNL     1      32.054  -9.186 -22.512  0.00  0.00    +0.248 C 
ATOM     16  H   UNL     1      34.003 -15.743 -21.212  0.00  0.00    +0.150 HD
ATOM     17  H   UNL     1      35.159 -14.468 -24.912  0.00  0.00    +0.150 HD
ATOM     18  H   UNL     1      33.022  -9.680 -24.255  0.00  0.00    +0.156 HD
ATOM     19  H   UNL     1      32.126  -7.720 -23.943  0.00  0.00    +0.146 HD
ATOM     20  H   UNL     1      31.314  -7.274 -22.511  0.00  0.00    +0.146 HD
ENDROOT
BRANCH   9  21
ATOM     21  N   UNL     1      35.293 -16.718 -23.269  0.00  0.00    -0.263 NA
ATOM     22  H   UNL     1      36.215 -16.794 -23.608  0.00  0.00    +0.127 HD
BRANCH  21  23
ATOM     23  C   UNL     1      34.596 -17.945 -22.928  0.00  0.00    +0.098 C 
BRANCH  23  24
ATOM     24  C   UNL     1      35.336 -18.690 -21.851  0.00  0.00    -0.006 C 
ATOM     25  C   UNL     1      34.685 -19.575 -20.977  0.00  0.00    -0.003 C 
ATOM     26  C   UNL     1      35.439 -20.246 -19.984  0.00  0.00    -0.000 C 
ATOM     27  C   UNL     1      36.710 -18.469 -21.748  0.00  0.00    -0.003 C 
ATOM     28  C   UNL     1      33.303 -19.809 -21.065  0.00  0.00    -0.000 C 
ATOM     29  C   UNL     1      36.821 -20.011 -19.895  0.00  0.00    -0.000 C 
ATOM     30  C   UNL     1      37.451 -19.128 -20.773  0.00  0.00    -0.000 C 
ATOM     31  C   UNL     1      34.788 -21.130 -19.109  0.00  0.00    -0.000 C 
ATOM     32  C   UNL     1      32.673 -20.691 -20.187  0.00  0.00    -0.000 C 
ATOM     33  C   UNL     1      33.415 -21.351 -19.211  0.00  0.00    -0.000 C 
ENDBRANCH  23  24
ENDBRANCH  21  23
ENDBRANCH   9  21
TORSDOF 3
ENDMDL
MODEL 8
REMARK VINA RESULT:     -11.3      3.526     10.275
REMARK  Name = 16750097
REMARK  3 active torsions:
REMARK  status: ('A' for Active; 'I' for Inactive)
REMARK    1  A    between atoms: N_3  and  C_10
REMARK    2  A    between atoms: N_3  and  C_23
REMARK    3  A    between atoms: C_23  and  C_24
REMARK                            x       y       z     vdW  Elec       q    Type
REMARK                         _______ _______ _______ _____ _____    ______ ____
ROOT
ATOM      1  O   UNL     1      34.226 -18.900 -24.621  0.00  0.00    -0.209 OA
ATOM      2  N   UNL     1      33.783 -13.665 -24.525  0.00  0.00    -0.305 N 
ATOM      3  N   UNL     1      34.433 -12.970 -22.518  0.00  0.00    -0.305 N 
ATOM      4  N   UNL     1      35.385 -17.589 -21.019  0.00  0.00    -0.275 N 
ATOM      5  N   UNL     1      35.013 -19.392 -22.527  0.00  0.00    -0.302 NA
ATOM      6  N   UNL     1      35.815 -19.742 -20.355  0.00  0.00    -0.320 N 
ATOM      7  C   UNL     1      34.130 -14.801 -23.839  0.00  0.00    +0.061 C 
ATOM      8  C   UNL     1      34.533 -14.340 -22.589  0.00  0.00    +0.061 C 
ATOM      9  C   UNL     1      33.981 -12.598 -23.695  0.00  0.00    +0.208 C 
ATOM     10  C   UNL     1      34.969 -16.631 -21.947  0.00  0.00    +0.064 C 
ATOM     11  C   UNL     1      34.556 -17.056 -23.219  0.00  0.00    +0.110 C 
ATOM     12  C   UNL     1      34.125 -16.150 -24.199  0.00  0.00    +0.030 C 
ATOM     13  C   UNL     1      34.961 -15.264 -21.621  0.00  0.00    +0.031 C 
ATOM     14  C   UNL     1      34.584 -18.518 -23.511  0.00  0.00    +0.208 C 
ATOM     15  C   UNL     1      35.383 -18.921 -21.365  0.00  0.00    +0.248 C 
ATOM     16  H   UNL     1      33.451 -13.625 -25.451  0.00  0.00    +0.150 HD
ATOM     17  H   UNL     1      34.652 -12.393 -21.751  0.00  0.00    +0.150 HD
ATOM     18  H   UNL     1      35.679 -17.313 -20.121  0.00  0.00    +0.156 HD
ATOM     19  H   UNL     1      36.087 -19.357 -19.490  0.00  0.00    +0.146 HD
ATOM     20  H   UNL     1      35.853 -20.716 -20.494  0.00  0.00    +0.146 HD
ENDROOT
BRANCH   9  21
ATOM     21  N   UNL     1      33.702 -11.362 -24.162  0.00  0.00    -0.263 NA
ATOM     22  H   UNL     1      34.255 -11.014 -24.899  0.00  0.00    +0.127 HD
BRANCH  21  23
ATOM     23  C   UNL     1      32.642 -10.509 -23.653  0.00  0.00    +0.098 C 
BRANCH  23  24
ATOM     24  C   UNL     1      33.210  -9.221 -23.124  0.00  0.00    -0.006 C 
ATOM     25  C   UNL     1      32.879  -8.728 -21.852  0.00  0.00    -0.003 C 
ATOM     26  C   UNL     1      33.447  -7.507 -21.413  0.00  0.00    -0.000 C 
ATOM     27  C   UNL     1      34.088  -8.521 -23.953  0.00  0.00    -0.003 C 
ATOM     28  C   UNL     1      31.997  -9.418 -21.005  0.00  0.00    -0.000 C 
ATOM     29  C   UNL     1      34.329  -6.817 -22.261  0.00  0.00    -0.000 C 
ATOM     30  C   UNL     1      34.647  -7.322 -23.522  0.00  0.00    -0.000 C 
ATOM     31  C   UNL     1      33.117  -7.014 -20.141  0.00  0.00    -0.000 C 
ATOM     32  C   UNL     1      31.679  -8.912 -19.744  0.00  0.00    -0.000 C 
ATOM     33  C   UNL     1      32.238  -7.713 -19.313  0.00  0.00    -0.000 C 
ENDBRANCH  23  24
ENDBRANCH  21  23
ENDBRANCH   9  21
TORSDOF 3
ENDMDL
MODEL 9
REMARK VINA RESULT:     -11.3      4.154     11.583
REMARK  Name = 16750097
REMARK  3 active torsions:
REMARK  status: ('A' for Active; 'I' for Inactive)
REMARK    1  A    between atoms: N_3  and  C_10
REMARK    2  A    between atoms: N_3  and  C_23
REMARK    3  A    between atoms: C_23  and  C_24
REMARK                            x       y       z     vdW  Elec       q    Type
REMARK                         _______ _______ _______ _____ _____    ______ ____
ROOT
ATOM      1  O   UNL     1      34.531 -17.667 -24.878  0.00  0.00    -0.209 OA
ATOM      2  N   UNL     1      33.449 -12.572 -24.189  0.00  0.00    -0.305 N 
ATOM      3  N   UNL     1      33.834 -12.083 -22.056  0.00  0.00    -0.305 N 
ATOM      4  N   UNL     1      35.209 -16.729 -21.045  0.00  0.00    -0.275 N 
ATOM      5  N   UNL     1      35.189 -18.344 -22.792  0.00  0.00    -0.302 NA
ATOM      6  N   UNL     1      35.838 -18.891 -20.609  0.00  0.00    -0.320 N 
ATOM      7  C   UNL     1      33.871 -13.744 -23.615  0.00  0.00    +0.061 C 
ATOM      8  C   UNL     1      34.106 -13.413 -22.284  0.00  0.00    +0.061 C 
ATOM      9  C   UNL     1      33.443 -11.610 -23.218  0.00  0.00    +0.208 C 
ATOM     10  C   UNL     1      34.760 -15.707 -21.886  0.00  0.00    +0.064 C 
ATOM     11  C   UNL     1      34.513 -16.002 -23.235  0.00  0.00    +0.110 C 
ATOM     12  C   UNL     1      34.061 -15.026 -24.135  0.00  0.00    +0.030 C 
ATOM     13  C   UNL     1      34.558 -14.405 -21.398  0.00  0.00    +0.031 C 
ATOM     14  C   UNL     1      34.743 -17.400 -23.700  0.00  0.00    +0.208 C 
ATOM     15  C   UNL     1      35.398 -17.995 -21.550  0.00  0.00    +0.248 C 
ATOM     16  H   UNL     1      33.195 -12.445 -25.131  0.00  0.00    +0.150 HD
ATOM     17  H   UNL     1      33.915 -11.593 -21.206  0.00  0.00    +0.150 HD
ATOM     18  H   UNL     1      35.389 -16.544 -20.095  0.00  0.00    +0.156 HD
ATOM     19  H   UNL     1      35.986 -18.597 -19.681  0.00  0.00    +0.146 HD
ATOM     20  H   UNL     1      36.006 -19.827 -20.861  0.00  0.00    +0.146 HD
ENDROOT
BRANCH   9  21
ATOM     21  N   UNL     1      33.057 -10.360 -23.556  0.00  0.00    -0.263 NA
ATOM     22  H   UNL     1      33.038 -10.130 -24.513  0.00  0.00    +0.127 HD
BRANCH  21  23
ATOM     23  C   UNL     1      32.667  -9.333 -22.606  0.00  0.00    +0.098 C 
BRANCH  23  24
ATOM     24  C   UNL     1      33.192  -7.991 -23.035  0.00  0.00    -0.006 C 
ATOM     25  C   UNL     1      32.547  -6.794 -22.686  0.00  0.00    -0.003 C 
ATOM     26  C   UNL     1      33.092  -5.562 -23.121  0.00  0.00    -0.000 C 
ATOM     27  C   UNL     1      34.357  -7.975 -23.803  0.00  0.00    -0.003 C 
ATOM     28  C   UNL     1      31.374  -6.791 -21.915  0.00  0.00    -0.000 C 
ATOM     29  C   UNL     1      34.266  -5.565 -23.893  0.00  0.00    -0.000 C 
ATOM     30  C   UNL     1      34.893  -6.765 -24.230  0.00  0.00    -0.000 C 
ATOM     31  C   UNL     1      32.448  -4.364 -22.772  0.00  0.00    -0.000 C 
ATOM     32  C   UNL     1      30.746  -5.591 -21.578  0.00  0.00    -0.000 C 
ATOM     33  C   UNL     1      31.283  -4.380 -22.006  0.00  0.00    -0.000 C 
ENDBRANCH  23  24
ENDBRANCH  21  23
ENDBRANCH   9  21
TORSDOF 3
ENDMDL
