MODEL 1
REMARK VINA RESULT:     -12.1      0.000      0.000
REMARK  Name = 5567
REMARK  8 active torsions:
REMARK  status: ('A' for Active; 'I' for Inactive)
REMARK    1  A    between atoms: N_1  and  C_20
REMARK    2  A    between atoms: C_2  and  C_8
REMARK    3  A    between atoms: C_2  and  O_18
REMARK    4  A    between atoms: C_11  and  C_17
REMARK    5  A    between atoms: C_20  and  C_21
REMARK    6  A    between atoms: C_21  and  C_22
REMARK    7  A    between atoms: C_22  and  C_24
REMARK    8  A    between atoms: C_24  and  C_26
REMARK                            x       y       z     vdW  Elec       q    Type
REMARK                         _______ _______ _______ _____ _____    ______ ____
ROOT
ATOM      1  N   UNL     1      35.257 -20.147 -19.875  0.00  0.00    +0.387 N 
ATOM      2  C   UNL     1      33.890 -22.269 -18.308  0.00  0.00    +0.103 C 
ATOM      3  C   UNL     1      33.153 -21.103 -19.002  0.00  0.00    +0.008 C 
ATOM      4  C   UNL     1      35.361 -21.855 -18.078  0.00  0.00    +0.008 C 
ATOM      5  C   UNL     1      33.897 -20.567 -20.231  0.00  0.00    -0.075 C 
ATOM      6  C   UNL     1      36.029 -21.267 -19.328  0.00  0.00    -0.075 C 
ATOM      7  H   UNL     1      35.184 -19.431 -19.152  0.00  0.00    -0.080 HD
ENDROOT
BRANCH   2   8
ATOM      8  C   UNL     1      33.256 -22.748 -17.002  0.00  0.00    +0.002 C 
ATOM      9  C   UNL     1      31.872 -22.698 -16.841  0.00  0.00    +0.002 C 
ATOM     10  C   UNL     1      34.063 -23.234 -15.975  0.00  0.00    -0.002 C 
ATOM     11  C   UNL     1      31.293 -23.136 -15.649  0.00  0.00    +0.071 C 
ATOM     12  C   UNL     1      33.484 -23.672 -14.783  0.00  0.00    -0.000 C 
ATOM     13  C   UNL     1      32.099 -23.622 -14.620  0.00  0.00    +0.004 C 
BRANCH  11  17
ATOM     14  F   UNL     1      29.178 -22.328 -16.422  0.00  0.00    -0.166 F 
ATOM     15  F   UNL     1      29.211 -24.306 -15.531  0.00  0.00    -0.166 F 
ATOM     16  F   UNL     1      29.445 -22.547 -14.275  0.00  0.00    -0.166 F 
ATOM     17  C   UNL     1      29.813 -23.082 -15.475  0.00  0.00    +0.419 C 
ENDBRANCH  11  17
ENDBRANCH   2   8
BRANCH   2  18
ATOM     18  O   UNL     1      33.847 -23.402 -19.191  0.00  0.00    -0.383 OA
ATOM     19  H   UNL     1      34.729 -23.555 -19.563  0.00  0.00    +0.211 HD
ENDBRANCH   2  18
BRANCH   1  20
ATOM     20  C   UNL     1      35.937 -19.573 -21.035  0.00  0.00    -0.077 C 
BRANCH  20  21
ATOM     21  C   UNL     1      34.926 -18.879 -21.951  0.00  0.00    -0.015 C 
BRANCH  21  22
ATOM     22  C   UNL     1      35.590 -17.864 -22.886  0.00  0.00    +0.067 C 
BRANCH  22  24
ATOM     23  O   UNL     1      34.041 -17.785 -24.736  0.00  0.00    -0.291 OA
ATOM     24  C   UNL     1      34.610 -17.181 -23.830  0.00  0.00    +0.173 C 
BRANCH  24  26
ATOM     25  F   UNL     1      33.517 -11.757 -23.078  0.00  0.00    -0.204 F 
ATOM     26  C   UNL     1      34.319 -15.733 -23.630  0.00  0.00    +0.035 C 
ATOM     27  C   UNL     1      33.728 -15.029 -24.656  0.00  0.00    +0.005 C 
ATOM     28  C   UNL     1      34.651 -15.152 -22.427  0.00  0.00    +0.005 C 
ATOM     29  C   UNL     1      33.455 -13.674 -24.468  0.00  0.00    +0.030 C 
ATOM     30  C   UNL     1      34.378 -13.797 -22.239  0.00  0.00    +0.030 C 
ATOM     31  C   UNL     1      33.779 -13.058 -23.259  0.00  0.00    +0.140 C 
ENDBRANCH  24  26
ENDBRANCH  22  24
ENDBRANCH  21  22
ENDBRANCH  20  21
ENDBRANCH   1  20
TORSDOF 8
ENDMDL
MODEL 2
REMARK VINA RESULT:     -11.6      1.903      2.423
REMARK  Name = 5567
REMARK  8 active torsions:
REMARK  status: ('A' for Active; 'I' for Inactive)
REMARK    1  A    between atoms: N_1  and  C_20
REMARK    2  A    between atoms: C_2  and  C_8
REMARK    3  A    between atoms: C_2  and  O_18
REMARK    4  A    between atoms: C_11  and  C_17
REMARK    5  A    between atoms: C_20  and  C_21
REMARK    6  A    between atoms: C_21  and  C_22
REMARK    7  A    between atoms: C_22  and  C_24
REMARK    8  A    between atoms: C_24  and  C_26
REMARK                            x       y       z     vdW  Elec       q    Type
REMARK                         _______ _______ _______ _____ _____    ______ ____
ROOT
ATOM      1  N   UNL     1      35.242 -20.145 -19.916  0.00  0.00    +0.387 N 
ATOM      2  C   UNL     1      33.924 -22.275 -18.318  0.00  0.00    +0.103 C 
ATOM      3  C   UNL     1      33.164 -21.114 -18.997  0.00  0.00    +0.008 C 
ATOM      4  C   UNL     1      35.398 -21.850 -18.119  0.00  0.00    +0.008 C 
ATOM      5  C   UNL     1      33.878 -20.575 -20.243  0.00  0.00    -0.075 C 
ATOM      6  C   UNL     1      36.034 -21.259 -19.384  0.00  0.00    -0.075 C 
ATOM      7  H   UNL     1      35.180 -19.428 -19.193  0.00  0.00    -0.080 HD
ENDROOT
BRANCH   2   8
ATOM      8  C   UNL     1      33.322 -22.756 -16.997  0.00  0.00    +0.002 C 
ATOM      9  C   UNL     1      34.157 -23.182 -15.966  0.00  0.00    +0.002 C 
ATOM     10  C   UNL     1      31.939 -22.764 -16.826  0.00  0.00    -0.002 C 
ATOM     11  C   UNL     1      33.608 -23.620 -14.760  0.00  0.00    +0.071 C 
ATOM     12  C   UNL     1      31.389 -23.201 -15.620  0.00  0.00    -0.000 C 
ATOM     13  C   UNL     1      32.224 -23.629 -14.588  0.00  0.00    +0.004 C 
BRANCH  11  17
ATOM     14  F   UNL     1      35.409 -23.138 -13.262  0.00  0.00    -0.166 F 
ATOM     15  F   UNL     1      33.829 -24.424 -12.519  0.00  0.00    -0.166 F 
ATOM     16  F   UNL     1      35.234 -25.176 -13.997  0.00  0.00    -0.166 F 
ATOM     17  C   UNL     1      34.500 -24.078 -13.656  0.00  0.00    +0.419 C 
ENDBRANCH  11  17
ENDBRANCH   2   8
BRANCH   2  18
ATOM     18  O   UNL     1      33.870 -23.409 -19.198  0.00  0.00    -0.383 OA
ATOM     19  H   UNL     1      34.586 -24.025 -18.976  0.00  0.00    +0.211 HD
ENDBRANCH   2  18
BRANCH   1  20
ATOM     20  C   UNL     1      35.893 -19.568 -21.092  0.00  0.00    -0.077 C 
BRANCH  20  21
ATOM     21  C   UNL     1      34.904 -18.696 -21.869  0.00  0.00    -0.015 C 
BRANCH  21  22
ATOM     22  C   UNL     1      35.609 -17.720 -22.815  0.00  0.00    +0.067 C 
BRANCH  22  24
ATOM     23  O   UNL     1      34.156 -17.644 -24.740  0.00  0.00    -0.291 OA
ATOM     24  C   UNL     1      34.665 -17.042 -23.798  0.00  0.00    +0.173 C 
BRANCH  24  26
ATOM     25  F   UNL     1      33.417 -11.655 -23.025  0.00  0.00    -0.204 F 
ATOM     26  C   UNL     1      34.333 -15.604 -23.592  0.00  0.00    +0.035 C 
ATOM     27  C   UNL     1      33.739 -14.908 -24.622  0.00  0.00    +0.005 C 
ATOM     28  C   UNL     1      34.630 -15.024 -22.379  0.00  0.00    +0.005 C 
ATOM     29  C   UNL     1      33.428 -13.562 -24.429  0.00  0.00    +0.030 C 
ATOM     30  C   UNL     1      34.318 -13.678 -22.186  0.00  0.00    +0.030 C 
ATOM     31  C   UNL     1      33.716 -12.947 -23.211  0.00  0.00    +0.140 C 
ENDBRANCH  24  26
ENDBRANCH  22  24
ENDBRANCH  21  22
ENDBRANCH  20  21
ENDBRANCH   1  20
TORSDOF 8
ENDMDL
MODEL 3
REMARK VINA RESULT:     -11.4      3.136     11.342
REMARK  Name = 5567
REMARK  8 active torsions:
REMARK  status: ('A' for Active; 'I' for Inactive)
REMARK    1  A    between atoms: N_1  and  C_20
REMARK    2  A    between atoms: C_2  and  C_8
REMARK    3  A    between atoms: C_2  and  O_18
REMARK    4  A    between atoms: C_11  and  C_17
REMARK    5  A    between atoms: C_20  and  C_21
REMARK    6  A    between atoms: C_21  and  C_22
REMARK    7  A    between atoms: C_22  and  C_24
REMARK    8  A    between atoms: C_24  and  C_26
REMARK                            x       y       z     vdW  Elec       q    Type
REMARK                         _______ _______ _______ _____ _____    ______ ____
ROOT
ATOM      1  N   UNL     1      34.616 -15.462 -23.742  0.00  0.00    +0.387 N 
ATOM      2  C   UNL     1      33.471 -12.749 -23.346  0.00  0.00    +0.103 C 
ATOM      3  C   UNL     1      33.538 -13.463 -24.714  0.00  0.00    +0.008 C 
ATOM      4  C   UNL     1      34.540 -13.366 -22.416  0.00  0.00    +0.008 C 
ATOM      5  C   UNL     1      33.519 -14.992 -24.596  0.00  0.00    -0.075 C 
ATOM      6  C   UNL     1      34.512 -14.900 -22.392  0.00  0.00    -0.075 C 
ATOM      7  H   UNL     1      35.493 -15.138 -24.151  0.00  0.00    -0.080 HD
ENDROOT
BRANCH   2   8
ATOM      8  C   UNL     1      33.622 -11.228 -23.404  0.00  0.00    +0.002 C 
ATOM      9  C   UNL     1      32.739 -10.414 -22.698  0.00  0.00    +0.002 C 
ATOM     10  C   UNL     1      34.645 -10.660 -24.162  0.00  0.00    -0.002 C 
ATOM     11  C   UNL     1      32.878  -9.026 -22.749  0.00  0.00    +0.071 C 
ATOM     12  C   UNL     1      34.784  -9.273 -24.213  0.00  0.00    -0.000 C 
ATOM     13  C   UNL     1      33.900  -8.456 -23.507  0.00  0.00    +0.004 C 
BRANCH  11  17
ATOM     14  F   UNL     1      30.821  -7.806 -22.711  0.00  0.00    -0.166 F 
ATOM     15  F   UNL     1      31.454  -8.725 -20.851  0.00  0.00    -0.166 F 
ATOM     16  F   UNL     1      32.501  -6.975 -21.607  0.00  0.00    -0.166 F 
ATOM     17  C   UNL     1      31.932  -8.153 -21.995  0.00  0.00    +0.419 C 
ENDBRANCH  11  17
ENDBRANCH   2   8
BRANCH   2  18
ATOM     18  O   UNL     1      32.166 -12.982 -22.793  0.00  0.00    -0.383 OA
ATOM     19  H   UNL     1      32.135 -13.869 -22.401  0.00  0.00    +0.211 HD
ENDBRANCH   2  18
BRANCH   1  20
ATOM     20  C   UNL     1      34.636 -16.923 -23.690  0.00  0.00    -0.077 C 
BRANCH  20  21
ATOM     21  C   UNL     1      35.343 -17.398 -22.419  0.00  0.00    -0.015 C 
BRANCH  21  22
ATOM     22  C   UNL     1      35.371 -18.924 -22.305  0.00  0.00    +0.067 C 
BRANCH  22  24
ATOM     23  O   UNL     1      37.044 -19.116 -20.576  0.00  0.00    -0.291 OA
ATOM     24  C   UNL     1      35.924 -19.422 -20.976  0.00  0.00    +0.173 C 
BRANCH  24  26
ATOM     25  F   UNL     1      32.698 -22.678 -17.788  0.00  0.00    -0.204 F 
ATOM     26  C   UNL     1      35.063 -20.292 -20.126  0.00  0.00    +0.035 C 
ATOM     27  C   UNL     1      35.667 -21.194 -19.278  0.00  0.00    +0.005 C 
ATOM     28  C   UNL     1      33.696 -20.161 -20.218  0.00  0.00    +0.005 C 
ATOM     29  C   UNL     1      34.861 -22.008 -18.482  0.00  0.00    +0.030 C 
ATOM     30  C   UNL     1      32.890 -20.975 -19.422  0.00  0.00    +0.030 C 
ATOM     31  C   UNL     1      33.472 -21.898 -18.553  0.00  0.00    +0.140 C 
ENDBRANCH  24  26
ENDBRANCH  22  24
ENDBRANCH  21  22
ENDBRANCH  20  21
ENDBRANCH   1  20
TORSDOF 8
ENDMDL
MODEL 4
REMARK VINA RESULT:     -11.3      3.197     10.928
REMARK  Name = 5567
REMARK  8 active torsions:
REMARK  status: ('A' for Active; 'I' for Inactive)
REMARK    1  A    between atoms: N_1  and  C_20
REMARK    2  A    between atoms: C_2  and  C_8
REMARK    3  A    between atoms: C_2  and  O_18
REMARK    4  A    between atoms: C_11  and  C_17
REMARK    5  A    between atoms: C_20  and  C_21
REMARK    6  A    between atoms: C_21  and  C_22
REMARK    7  A    between atoms: C_22  and  C_24
REMARK    8  A    between atoms: C_24  and  C_26
REMARK                            x       y       z     vdW  Elec       q    Type
REMARK                         _______ _______ _______ _____ _____    ______ ____
ROOT
ATOM      1  N   UNL     1      34.063 -15.945 -23.508  0.00  0.00    +0.387 N 
ATOM      2  C   UNL     1      33.695 -13.075 -22.832  0.00  0.00    +0.103 C 
ATOM      3  C   UNL     1      34.100 -14.156 -21.805  0.00  0.00    +0.008 C 
ATOM      4  C   UNL     1      32.993 -13.766 -24.023  0.00  0.00    +0.008 C 
ATOM      5  C   UNL     1      34.855 -15.332 -22.436  0.00  0.00    -0.075 C 
ATOM      6  C   UNL     1      33.767 -14.974 -24.566  0.00  0.00    -0.075 C 
ATOM      7  H   UNL     1      33.177 -16.254 -23.107  0.00  0.00    -0.080 HD
ENDROOT
BRANCH   2   8
ATOM      8  C   UNL     1      32.824 -11.949 -22.274  0.00  0.00    +0.002 C 
ATOM      9  C   UNL     1      32.952 -10.656 -22.777  0.00  0.00    +0.002 C 
ATOM     10  C   UNL     1      31.901 -12.219 -21.264  0.00  0.00    -0.002 C 
ATOM     11  C   UNL     1      32.155  -9.628 -22.270  0.00  0.00    +0.071 C 
ATOM     12  C   UNL     1      31.105 -11.192 -20.757  0.00  0.00    -0.000 C 
ATOM     13  C   UNL     1      31.233  -9.897 -21.259  0.00  0.00    +0.004 C 
BRANCH  11  17
ATOM     14  F   UNL     1      31.183  -7.802 -23.471  0.00  0.00    -0.166 F 
ATOM     15  F   UNL     1      32.527  -7.305 -21.842  0.00  0.00    -0.166 F 
ATOM     16  F   UNL     1      33.322  -8.124 -23.693  0.00  0.00    -0.166 F 
ATOM     17  C   UNL     1      32.293  -8.244 -22.806  0.00  0.00    +0.419 C 
ENDBRANCH  11  17
ENDBRANCH   2   8
BRANCH   2  18
ATOM     18  O   UNL     1      34.897 -12.437 -23.291  0.00  0.00    -0.383 OA
ATOM     19  H   UNL     1      34.707 -11.935 -24.100  0.00  0.00    +0.211 HD
ENDBRANCH   2  18
BRANCH   1  20
ATOM     20  C   UNL     1      34.757 -17.108 -24.058  0.00  0.00    -0.077 C 
BRANCH  20  21
ATOM     21  C   UNL     1      34.348 -18.375 -23.302  0.00  0.00    -0.015 C 
BRANCH  21  22
ATOM     22  C   UNL     1      35.535 -19.039 -22.599  0.00  0.00    +0.067 C 
BRANCH  22  24
ATOM     23  O   UNL     1      35.901 -17.891 -20.508  0.00  0.00    -0.291 OA
ATOM     24  C   UNL     1      35.496 -18.897 -21.084  0.00  0.00    +0.173 C 
BRANCH  24  26
ATOM     25  F   UNL     1      33.360 -23.082 -18.067  0.00  0.00    -0.204 F 
ATOM     26  C   UNL     1      34.926 -20.014 -20.277  0.00  0.00    +0.035 C 
ATOM     27  C   UNL     1      33.558 -20.168 -20.235  0.00  0.00    +0.005 C 
ATOM     28  C   UNL     1      35.788 -20.851 -19.606  0.00  0.00    +0.005 C 
ATOM     29  C   UNL     1      33.024 -21.213 -19.482  0.00  0.00    +0.030 C 
ATOM     30  C   UNL     1      35.254 -21.897 -18.852  0.00  0.00    +0.030 C 
ATOM     31  C   UNL     1      33.872 -22.078 -18.790  0.00  0.00    +0.140 C 
ENDBRANCH  24  26
ENDBRANCH  22  24
ENDBRANCH  21  22
ENDBRANCH  20  21
ENDBRANCH   1  20
TORSDOF 8
ENDMDL
MODEL 5
REMARK VINA RESULT:     -11.2      3.323      5.755
REMARK  Name = 5567
REMARK  8 active torsions:
REMARK  status: ('A' for Active; 'I' for Inactive)
REMARK    1  A    between atoms: N_1  and  C_20
REMARK    2  A    between atoms: C_2  and  C_8
REMARK    3  A    between atoms: C_2  and  O_18
REMARK    4  A    between atoms: C_11  and  C_17
REMARK    5  A    between atoms: C_20  and  C_21
REMARK    6  A    between atoms: C_21  and  C_22
REMARK    7  A    between atoms: C_22  and  C_24
REMARK    8  A    between atoms: C_24  and  C_26
REMARK                            x       y       z     vdW  Elec       q    Type
REMARK                         _______ _______ _______ _____ _____    ______ ____
ROOT
ATOM      1  N   UNL     1      34.212 -16.066 -23.398  0.00  0.00    +0.387 N 
ATOM      2  C   UNL     1      35.613 -18.255 -21.958  0.00  0.00    +0.103 C 
ATOM      3  C   UNL     1      34.614 -18.487 -23.114  0.00  0.00    +0.008 C 
ATOM      4  C   UNL     1      35.331 -16.869 -21.334  0.00  0.00    +0.008 C 
ATOM      5  C   UNL     1      34.549 -17.312 -24.097  0.00  0.00    -0.075 C 
ATOM      6  C   UNL     1      35.212 -15.748 -22.375  0.00  0.00    -0.075 C 
ATOM      7  H   UNL     1      33.315 -16.201 -22.932  0.00  0.00    -0.080 HD
ENDROOT
BRANCH   2   8
ATOM      8  C   UNL     1      35.615 -19.339 -20.879  0.00  0.00    +0.002 C 
ATOM      9  C   UNL     1      34.411 -19.889 -20.443  0.00  0.00    +0.002 C 
ATOM     10  C   UNL     1      36.822 -19.777 -20.336  0.00  0.00    -0.002 C 
ATOM     11  C   UNL     1      34.413 -20.879 -19.460  0.00  0.00    +0.071 C 
ATOM     12  C   UNL     1      36.824 -20.767 -19.353  0.00  0.00    -0.000 C 
ATOM     13  C   UNL     1      35.619 -21.317 -18.915  0.00  0.00    +0.004 C 
BRANCH  11  17
ATOM     14  F   UNL     1      33.181 -21.961 -17.718  0.00  0.00    -0.166 F 
ATOM     15  F   UNL     1      32.089 -20.577 -18.982  0.00  0.00    -0.166 F 
ATOM     16  F   UNL     1      32.708 -22.507 -19.769  0.00  0.00    -0.166 F 
ATOM     17  C   UNL     1      33.125 -21.467 -18.991  0.00  0.00    +0.419 C 
ENDBRANCH  11  17
ENDBRANCH   2   8
BRANCH   2  18
ATOM     18  O   UNL     1      36.937 -18.267 -22.514  0.00  0.00    -0.383 OA
ATOM     19  H   UNL     1      37.216 -17.357 -22.705  0.00  0.00    +0.211 HD
ENDBRANCH   2  18
BRANCH   1  20
ATOM     20  C   UNL     1      34.082 -14.964 -24.350  0.00  0.00    -0.077 C 
BRANCH  20  21
ATOM     21  C   UNL     1      33.215 -13.852 -23.756  0.00  0.00    -0.015 C 
BRANCH  21  22
ATOM     22  C   UNL     1      34.042 -12.634 -23.335  0.00  0.00    +0.067 C 
BRANCH  22  24
ATOM     23  O   UNL     1      33.739 -11.548 -25.469  0.00  0.00    -0.291 OA
ATOM     24  C   UNL     1      33.859 -11.432 -24.253  0.00  0.00    +0.173 C 
BRANCH  24  26
ATOM     25  F   UNL     1      33.646  -6.337 -21.979  0.00  0.00    -0.204 F 
ATOM     26  C   UNL     1      33.803 -10.073 -23.645  0.00  0.00    +0.035 C 
ATOM     27  C   UNL     1      34.835  -9.194 -23.892  0.00  0.00    +0.005 C 
ATOM     28  C   UNL     1      32.721  -9.744 -22.859  0.00  0.00    +0.005 C 
ATOM     29  C   UNL     1      34.781  -7.921 -23.324  0.00  0.00    +0.030 C 
ATOM     30  C   UNL     1      32.668  -8.471 -22.291  0.00  0.00    +0.030 C 
ATOM     31  C   UNL     1      33.698  -7.559 -22.524  0.00  0.00    +0.140 C 
ENDBRANCH  24  26
ENDBRANCH  22  24
ENDBRANCH  21  22
ENDBRANCH  20  21
ENDBRANCH   1  20
TORSDOF 8
ENDMDL
MODEL 6
REMARK VINA RESULT:     -11.1      3.160     11.503
REMARK  Name = 5567
REMARK  8 active torsions:
REMARK  status: ('A' for Active; 'I' for Inactive)
REMARK    1  A    between atoms: N_1  and  C_20
REMARK    2  A    between atoms: C_2  and  C_8
REMARK    3  A    between atoms: C_2  and  O_18
REMARK    4  A    between atoms: C_11  and  C_17
REMARK    5  A    between atoms: C_20  and  C_21
REMARK    6  A    between atoms: C_21  and  C_22
REMARK    7  A    between atoms: C_22  and  C_24
REMARK    8  A    between atoms: C_24  and  C_26
REMARK                            x       y       z     vdW  Elec       q    Type
REMARK                         _______ _______ _______ _____ _____    ______ ____
ROOT
ATOM      1  N   UNL     1      34.752 -15.072 -23.535  0.00  0.00    +0.387 N 
ATOM      2  C   UNL     1      33.047 -12.769 -22.750  0.00  0.00    +0.103 C 
ATOM      3  C   UNL     1      33.329 -13.170 -24.215  0.00  0.00    +0.008 C 
ATOM      4  C   UNL     1      34.173 -13.337 -21.857  0.00  0.00    +0.008 C 
ATOM      5  C   UNL     1      33.625 -14.665 -24.382  0.00  0.00    -0.075 C 
ATOM      6  C   UNL     1      34.465 -14.820 -22.119  0.00  0.00    -0.075 C 
ATOM      7  H   UNL     1      35.561 -14.509 -23.797  0.00  0.00    -0.080 HD
ENDROOT
BRANCH   2   8
ATOM      8  C   UNL     1      32.880 -11.267 -22.513  0.00  0.00    +0.002 C 
ATOM      9  C   UNL     1      33.705 -10.362 -23.178  0.00  0.00    +0.002 C 
ATOM     10  C   UNL     1      31.900 -10.807 -21.635  0.00  0.00    -0.002 C 
ATOM     11  C   UNL     1      33.552  -8.991 -22.964  0.00  0.00    +0.071 C 
ATOM     12  C   UNL     1      31.747  -9.436 -21.420  0.00  0.00    -0.000 C 
ATOM     13  C   UNL     1      32.573  -8.529 -22.084  0.00  0.00    +0.004 C 
BRANCH  11  17
ATOM     14  F   UNL     1      33.768  -6.941 -24.176  0.00  0.00    -0.166 F 
ATOM     15  F   UNL     1      35.417  -7.497 -22.881  0.00  0.00    -0.166 F 
ATOM     16  F   UNL     1      35.082  -8.581 -24.736  0.00  0.00    -0.166 F 
ATOM     17  C   UNL     1      34.436  -8.022 -23.672  0.00  0.00    +0.419 C 
ENDBRANCH  11  17
ENDBRANCH   2   8
BRANCH   2  18
ATOM     18  O   UNL     1      31.793 -13.357 -22.369  0.00  0.00    -0.383 OA
ATOM     19  H   UNL     1      31.282 -12.719 -21.846  0.00  0.00    +0.211 HD
ENDBRANCH   2  18
BRANCH   1  20
ATOM     20  C   UNL     1      35.074 -16.482 -23.751  0.00  0.00    -0.077 C 
BRANCH  20  21
ATOM     21  C   UNL     1      35.655 -17.093 -22.475  0.00  0.00    -0.015 C 
BRANCH  21  22
ATOM     22  C   UNL     1      35.117 -18.502 -22.208  0.00  0.00    +0.067 C 
BRANCH  22  24
ATOM     23  O   UNL     1      37.003 -19.020 -20.793  0.00  0.00    -0.291 OA
ATOM     24  C   UNL     1      35.818 -19.209 -21.056  0.00  0.00    +0.173 C 
BRANCH  24  26
ATOM     25  F   UNL     1      32.857 -22.712 -17.872  0.00  0.00    -0.204 F 
ATOM     26  C   UNL     1      35.028 -20.145 -20.207  0.00  0.00    +0.035 C 
ATOM     27  C   UNL     1      35.701 -21.032 -19.396  0.00  0.00    +0.005 C 
ATOM     28  C   UNL     1      33.653 -20.087 -20.263  0.00  0.00    +0.005 C 
ATOM     29  C   UNL     1      34.961 -21.907 -18.601  0.00  0.00    +0.030 C 
ATOM     30  C   UNL     1      32.914 -20.963 -19.467  0.00  0.00    +0.030 C 
ATOM     31  C   UNL     1      33.567 -21.872 -18.636  0.00  0.00    +0.140 C 
ENDBRANCH  24  26
ENDBRANCH  22  24
ENDBRANCH  21  22
ENDBRANCH  20  21
ENDBRANCH   1  20
TORSDOF 8
ENDMDL
MODEL 7
REMARK VINA RESULT:     -10.4      6.471      9.907
REMARK  Name = 5567
REMARK  8 active torsions:
REMARK  status: ('A' for Active; 'I' for Inactive)
REMARK    1  A    between atoms: N_1  and  C_20
REMARK    2  A    between atoms: C_2  and  C_8
REMARK    3  A    between atoms: C_2  and  O_18
REMARK    4  A    between atoms: C_11  and  C_17
REMARK    5  A    between atoms: C_20  and  C_21
REMARK    6  A    between atoms: C_21  and  C_22
REMARK    7  A    between atoms: C_22  and  C_24
REMARK    8  A    between atoms: C_24  and  C_26
REMARK                            x       y       z     vdW  Elec       q    Type
REMARK                         _______ _______ _______ _____ _____    ______ ____
ROOT
ATOM      1  N   UNL     1      31.631 -11.681 -21.419  0.00  0.00    +0.387 N 
ATOM      2  C   UNL     1      33.795 -13.586 -22.137  0.00  0.00    +0.103 C 
ATOM      3  C   UNL     1      33.113 -12.637 -23.148  0.00  0.00    +0.008 C 
ATOM      4  C   UNL     1      32.844 -13.792 -20.936  0.00  0.00    +0.008 C 
ATOM      5  C   UNL     1      32.570 -11.358 -22.500  0.00  0.00    -0.075 C 
ATOM      6  C   UNL     1      32.283 -12.478 -20.375  0.00  0.00    -0.075 C 
ATOM      7  H   UNL     1      30.875 -12.238 -21.816  0.00  0.00    -0.080 HD
ENDROOT
BRANCH   2   8
ATOM      8  C   UNL     1      34.233 -14.934 -22.711  0.00  0.00    +0.002 C 
ATOM      9  C   UNL     1      34.895 -15.854 -21.900  0.00  0.00    +0.002 C 
ATOM     10  C   UNL     1      33.966 -15.241 -24.045  0.00  0.00    -0.002 C 
ATOM     11  C   UNL     1      35.294 -17.084 -22.424  0.00  0.00    +0.071 C 
ATOM     12  C   UNL     1      34.365 -16.472 -24.568  0.00  0.00    -0.000 C 
ATOM     13  C   UNL     1      35.029 -17.393 -23.758  0.00  0.00    +0.004 C 
BRANCH  11  17
ATOM     14  F   UNL     1      37.294 -18.306 -21.944  0.00  0.00    -0.166 F 
ATOM     15  F   UNL     1      36.091 -17.684 -20.250  0.00  0.00    -0.166 F 
ATOM     16  F   UNL     1      35.397 -19.290 -21.542  0.00  0.00    -0.166 F 
ATOM     17  C   UNL     1      36.005 -18.068 -21.558  0.00  0.00    +0.419 C 
ENDBRANCH  11  17
ENDBRANCH   2   8
BRANCH   2  18
ATOM     18  O   UNL     1      35.002 -12.952 -21.686  0.00  0.00    -0.383 OA
ATOM     19  H   UNL     1      34.862 -11.994 -21.629  0.00  0.00    +0.211 HD
ENDBRANCH   2  18
BRANCH   1  20
ATOM     20  C   UNL     1      31.063 -10.458 -20.852  0.00  0.00    -0.077 C 
BRANCH  20  21
ATOM     21  C   UNL     1      31.807  -9.232 -21.384  0.00  0.00    -0.015 C 
BRANCH  21  22
ATOM     22  C   UNL     1      32.288  -8.311 -20.260  0.00  0.00    +0.067 C 
BRANCH  22  24
ATOM     23  O   UNL     1      31.743  -5.973 -20.004  0.00  0.00    -0.291 OA
ATOM     24  C   UNL     1      32.319  -6.841 -20.655  0.00  0.00    +0.173 C 
BRANCH  24  26
ATOM     25  F   UNL     1      35.233  -5.350 -25.179  0.00  0.00    -0.204 F 
ATOM     26  C   UNL     1      33.096  -6.444 -21.863  0.00  0.00    +0.035 C 
ATOM     27  C   UNL     1      32.613  -5.427 -22.656  0.00  0.00    +0.005 C 
ATOM     28  C   UNL     1      34.270  -7.107 -22.141  0.00  0.00    +0.005 C 
ATOM     29  C   UNL     1      33.340  -5.054 -23.786  0.00  0.00    +0.030 C 
ATOM     30  C   UNL     1      34.998  -6.734 -23.272  0.00  0.00    +0.030 C 
ATOM     31  C   UNL     1      34.534  -5.708 -24.094  0.00  0.00    +0.140 C 
ENDBRANCH  24  26
ENDBRANCH  22  24
ENDBRANCH  21  22
ENDBRANCH  20  21
ENDBRANCH   1  20
TORSDOF 8
ENDMDL
MODEL 8
REMARK VINA RESULT:     -10.4      4.950     12.783
REMARK  Name = 5567
REMARK  8 active torsions:
REMARK  status: ('A' for Active; 'I' for Inactive)
REMARK    1  A    between atoms: N_1  and  C_20
REMARK    2  A    between atoms: C_2  and  C_8
REMARK    3  A    between atoms: C_2  and  O_18
REMARK    4  A    between atoms: C_11  and  C_17
REMARK    5  A    between atoms: C_20  and  C_21
REMARK    6  A    between atoms: C_21  and  C_22
REMARK    7  A    between atoms: C_22  and  C_24
REMARK    8  A    between atoms: C_24  and  C_26
REMARK                            x       y       z     vdW  Elec       q    Type
REMARK                         _______ _______ _______ _____ _____    ______ ____
ROOT
ATOM      1  N   UNL     1      33.135 -13.291 -24.229  0.00  0.00    +0.387 N 
ATOM      2  C   UNL     1      33.592 -10.445 -23.507  0.00  0.00    +0.103 C 
ATOM      3  C   UNL     1      33.030 -11.501 -22.529  0.00  0.00    +0.008 C 
ATOM      4  C   UNL     1      33.332 -10.925 -24.953  0.00  0.00    +0.008 C 
ATOM      5  C   UNL     1      33.493 -12.927 -22.853  0.00  0.00    -0.075 C 
ATOM      6  C   UNL     1      33.757 -12.380 -25.195  0.00  0.00    -0.075 C 
ATOM      7  H   UNL     1      32.123 -13.206 -24.322  0.00  0.00    -0.080 HD
ENDROOT
BRANCH   2   8
ATOM      8  C   UNL     1      33.052  -9.028 -23.306  0.00  0.00    +0.002 C 
ATOM      9  C   UNL     1      33.714  -7.944 -23.879  0.00  0.00    +0.002 C 
ATOM     10  C   UNL     1      31.897  -8.825 -22.554  0.00  0.00    -0.002 C 
ATOM     11  C   UNL     1      33.221  -6.651 -23.698  0.00  0.00    +0.071 C 
ATOM     12  C   UNL     1      31.403  -7.533 -22.372  0.00  0.00    -0.000 C 
ATOM     13  C   UNL     1      32.066  -6.446 -22.944  0.00  0.00    +0.004 C 
BRANCH  11  17
ATOM     14  F   UNL     1      33.811  -5.430 -25.667  0.00  0.00    -0.166 F 
ATOM     15  F   UNL     1      33.485  -4.280 -23.858  0.00  0.00    -0.166 F 
ATOM     16  F   UNL     1      35.271  -5.503 -24.058  0.00  0.00    -0.166 F 
ATOM     17  C   UNL     1      33.930  -5.490 -24.308  0.00  0.00    +0.419 C 
ENDBRANCH  11  17
ENDBRANCH   2   8
BRANCH   2  18
ATOM     18  O   UNL     1      35.007 -10.350 -23.283  0.00  0.00    -0.383 OA
ATOM     19  H   UNL     1      35.176 -10.205 -22.338  0.00  0.00    +0.211 HD
ENDBRANCH   2  18
BRANCH   1  20
ATOM     20  C   UNL     1      33.516 -14.675 -24.509  0.00  0.00    -0.077 C 
BRANCH  20  21
ATOM     21  C   UNL     1      34.406 -15.215 -23.388  0.00  0.00    -0.015 C 
BRANCH  21  22
ATOM     22  C   UNL     1      35.311 -16.355 -23.864  0.00  0.00    +0.067 C 
BRANCH  22  24
ATOM     23  O   UNL     1      33.917 -18.244 -24.426  0.00  0.00    -0.291 OA
ATOM     24  C   UNL     1      34.713 -17.736 -23.639  0.00  0.00    +0.173 C 
BRANCH  24  26
ATOM     25  F   UNL     1      36.266 -20.618 -19.116  0.00  0.00    -0.204 F 
ATOM     26  C   UNL     1      35.127 -18.505 -22.431  0.00  0.00    +0.035 C 
ATOM     27  C   UNL     1      34.237 -19.399 -21.879  0.00  0.00    +0.005 C 
ATOM     28  C   UNL     1      36.385 -18.294 -21.912  0.00  0.00    +0.005 C 
ATOM     29  C   UNL     1      34.625 -20.119 -20.749  0.00  0.00    +0.030 C 
ATOM     30  C   UNL     1      36.773 -19.014 -20.782  0.00  0.00    +0.030 C 
ATOM     31  C   UNL     1      35.893 -19.927 -20.201  0.00  0.00    +0.140 C 
ENDBRANCH  24  26
ENDBRANCH  22  24
ENDBRANCH  21  22
ENDBRANCH  20  21
ENDBRANCH   1  20
TORSDOF 8
ENDMDL
MODEL 9
REMARK VINA RESULT:     -10.4      5.143     12.393
REMARK  Name = 5567
REMARK  8 active torsions:
REMARK  status: ('A' for Active; 'I' for Inactive)
REMARK    1  A    between atoms: N_1  and  C_20
REMARK    2  A    between atoms: C_2  and  C_8
REMARK    3  A    between atoms: C_2  and  O_18
REMARK    4  A    between atoms: C_11  and  C_17
REMARK    5  A    between atoms: C_20  and  C_21
REMARK    6  A    between atoms: C_21  and  C_22
REMARK    7  A    between atoms: C_22  and  C_24
REMARK    8  A    between atoms: C_24  and  C_26
REMARK                            x       y       z     vdW  Elec       q    Type
REMARK                         _______ _______ _______ _____ _____    ______ ____
ROOT
ATOM      1  N   UNL     1      33.302 -12.664 -24.341  0.00  0.00    +0.387 N 
ATOM      2  C   UNL     1      34.216  -9.917 -23.669  0.00  0.00    +0.103 C 
ATOM      3  C   UNL     1      33.734 -10.944 -22.620  0.00  0.00    +0.008 C 
ATOM      4  C   UNL     1      33.630 -10.307 -25.046  0.00  0.00    +0.008 C 
ATOM      5  C   UNL     1      33.958 -12.397 -23.055  0.00  0.00    -0.075 C 
ATOM      6  C   UNL     1      33.829 -11.788 -25.392  0.00  0.00    -0.075 C 
ATOM      7  H   UNL     1      32.308 -12.464 -24.233  0.00  0.00    -0.080 HD
ENDROOT
BRANCH   2   8
ATOM      8  C   UNL     1      33.892  -8.459 -23.341  0.00  0.00    +0.002 C 
ATOM      9  C   UNL     1      33.110  -8.153 -22.228  0.00  0.00    +0.002 C 
ATOM     10  C   UNL     1      34.381  -7.439 -24.154  0.00  0.00    -0.002 C 
ATOM     11  C   UNL     1      32.815  -6.823 -21.928  0.00  0.00    +0.071 C 
ATOM     12  C   UNL     1      34.087  -6.108 -23.854  0.00  0.00    -0.000 C 
ATOM     13  C   UNL     1      33.304  -5.801 -22.741  0.00  0.00    +0.004 C 
BRANCH  11  17
ATOM     14  F   UNL     1      31.658  -7.583 -19.978  0.00  0.00    -0.166 F 
ATOM     15  F   UNL     1      32.572  -5.619 -19.876  0.00  0.00    -0.166 F 
ATOM     16  F   UNL     1      30.785  -5.923 -21.078  0.00  0.00    -0.166 F 
ATOM     17  C   UNL     1      31.977  -6.495 -20.739  0.00  0.00    +0.419 C 
ENDBRANCH  11  17
ENDBRANCH   2   8
BRANCH   2  18
ATOM     18  O   UNL     1      35.649  -9.987 -23.724  0.00  0.00    -0.383 OA
ATOM     19  H   UNL     1      35.954 -10.768 -23.236  0.00  0.00    +0.211 HD
ENDBRANCH   2  18
BRANCH   1  20
ATOM     20  C   UNL     1      33.460 -14.068 -24.715  0.00  0.00    -0.077 C 
BRANCH  20  21
ATOM     21  C   UNL     1      34.002 -14.874 -23.532  0.00  0.00    -0.015 C 
BRANCH  21  22
ATOM     22  C   UNL     1      35.063 -15.891 -23.960  0.00  0.00    +0.067 C 
BRANCH  22  24
ATOM     23  O   UNL     1      33.886 -17.842 -24.756  0.00  0.00    -0.291 OA
ATOM     24  C   UNL     1      34.583 -17.334 -23.882  0.00  0.00    +0.173 C 
BRANCH  24  26
ATOM     25  F   UNL     1      36.128 -20.433 -19.502  0.00  0.00    -0.204 F 
ATOM     26  C   UNL     1      34.995 -18.160 -22.712  0.00  0.00    +0.035 C 
ATOM     27  C   UNL     1      34.164 -19.177 -22.295  0.00  0.00    +0.005 C 
ATOM     28  C   UNL     1      36.191 -17.879 -22.092  0.00  0.00    +0.005 C 
ATOM     29  C   UNL     1      34.550 -19.951 -21.201  0.00  0.00    +0.030 C 
ATOM     30  C   UNL     1      36.577 -18.653 -20.998  0.00  0.00    +0.030 C 
ATOM     31  C   UNL     1      35.757 -19.689 -20.552  0.00  0.00    +0.140 C 
ENDBRANCH  24  26
ENDBRANCH  22  24
ENDBRANCH  21  22
ENDBRANCH  20  21
ENDBRANCH   1  20
TORSDOF 8
ENDMDL
