MODEL 1
REMARK VINA RESULT:     -11.2      0.000      0.000
REMARK  Name = 11691242
REMARK  5 active torsions:
REMARK  status: ('A' for Active; 'I' for Inactive)
REMARK    1  A    between atoms: N_1  and  C_25
REMARK    2  A    between atoms: C_5  and  N_11
REMARK    3  A    between atoms: N_12  and  C_17
REMARK    4  A    between atoms: C_18  and  O_23
REMARK    5  A    between atoms: C_25  and  C_28
REMARK                            x       y       z     vdW  Elec       q    Type
REMARK                         _______ _______ _______ _____ _____    ______ ____
ROOT
ATOM      1  N   UNL     1      35.141 -16.424 -22.152  0.00  0.00    -0.282 N 
ATOM      2  C   UNL     1      34.544 -15.577 -23.058  0.00  0.00    +0.053 C 
ATOM      3  C   UNL     1      34.009 -14.510 -22.333  0.00  0.00    +0.028 C 
ATOM      4  C   UNL     1      35.002 -15.931 -20.883  0.00  0.00    +0.066 C 
ATOM      5  C   UNL     1      33.334 -13.487 -23.028  0.00  0.00    +0.053 C 
ATOM      6  C   UNL     1      34.305 -14.748 -20.961  0.00  0.00    +0.019 C 
ATOM      7  C   UNL     1      34.438 -15.672 -24.450  0.00  0.00    +0.015 C 
ATOM      8  C   UNL     1      33.219 -13.569 -24.421  0.00  0.00    +0.015 C 
ATOM      9  C   UNL     1      33.764 -14.645 -25.119  0.00  0.00    +0.003 C 
ENDROOT
BRANCH   5  11
ATOM     10  O   UNL     1      33.682 -10.556 -23.483  0.00  0.00    -0.252 OA
ATOM     11  N   UNL     1      32.780 -12.399 -22.352  0.00  0.00    -0.268 N 
ATOM     12  N   UNL     1      32.223 -10.261 -21.680  0.00  0.00    -0.266 N 
ATOM     13  C   UNL     1      32.969 -11.018 -22.598  0.00  0.00    +0.308 C 
ATOM     14  H   UNL     1      32.178 -12.621 -21.605  0.00  0.00    +0.156 HD
ATOM     15  H   UNL     1      31.697 -10.773 -21.025  0.00  0.00    +0.157 HD
BRANCH  12  17
ATOM     16 BR   UNL     1      31.419  -5.712 -24.196  0.00  0.00    -0.049 Br
ATOM     17  C   UNL     1      32.134  -8.852 -21.581  0.00  0.00    +0.086 C 
ATOM     18  C   UNL     1      32.313  -8.231 -20.355  0.00  0.00    +0.152 C 
ATOM     19  C   UNL     1      31.866  -8.120 -22.727  0.00  0.00    +0.024 C 
ATOM     20  C   UNL     1      32.222  -6.842 -20.273  0.00  0.00    +0.039 C 
ATOM     21  C   UNL     1      31.776  -6.730 -22.645  0.00  0.00    +0.036 C 
ATOM     22  C   UNL     1      31.953  -6.092 -21.418  0.00  0.00    +0.010 C 
BRANCH  18  23
ATOM     23  O   UNL     1      32.577  -8.947 -19.226  0.00  0.00    -0.470 OA
ATOM     24  C   UNL     1      31.539  -9.796 -18.739  0.00  0.00    +0.253 C 
ENDBRANCH  18  23
ENDBRANCH  12  17
ENDBRANCH   5  11
BRANCH   1  25
ATOM     25  C   UNL     1      35.817 -17.661 -22.477  0.00  0.00    +0.122 C 
BRANCH  25  28
ATOM     26  N   UNL     1      35.049 -20.687 -19.540  0.00  0.00    -0.230 NA
ATOM     27  N   UNL     1      32.743 -20.660 -20.137  0.00  0.00    -0.343 N 
ATOM     28  C   UNL     1      35.547 -18.723 -21.446  0.00  0.00    +0.002 C 
ATOM     29  C   UNL     1      34.259 -19.197 -21.272  0.00  0.00    +0.031 C 
ATOM     30  C   UNL     1      36.590 -19.214 -20.682  0.00  0.00    +0.018 C 
ATOM     31  C   UNL     1      34.063 -20.176 -20.311  0.00  0.00    +0.125 C 
ATOM     32  C   UNL     1      36.290 -20.192 -19.746  0.00  0.00    +0.100 C 
ATOM     33  H   UNL     1      32.559 -21.355 -19.465  0.00  0.00    +0.144 HD
ATOM     34  H   UNL     1      32.010 -20.301 -20.689  0.00  0.00    +0.144 HD
ENDBRANCH  25  28
ENDBRANCH   1  25
TORSDOF 5
ENDMDL
MODEL 2
REMARK VINA RESULT:     -10.8      2.571      4.059
REMARK  Name = 11691242
REMARK  5 active torsions:
REMARK  status: ('A' for Active; 'I' for Inactive)
REMARK    1  A    between atoms: N_1  and  C_25
REMARK    2  A    between atoms: C_5  and  N_11
REMARK    3  A    between atoms: N_12  and  C_17
REMARK    4  A    between atoms: C_18  and  O_23
REMARK    5  A    between atoms: C_25  and  C_28
REMARK                            x       y       z     vdW  Elec       q    Type
REMARK                         _______ _______ _______ _____ _____    ______ ____
ROOT
ATOM      1  N   UNL     1      35.716 -18.791 -21.185  0.00  0.00    -0.282 N 
ATOM      2  C   UNL     1      35.120 -18.621 -22.414  0.00  0.00    +0.053 C 
ATOM      3  C   UNL     1      35.024 -17.245 -22.636  0.00  0.00    +0.028 C 
ATOM      4  C   UNL     1      36.000 -17.575 -20.625  0.00  0.00    +0.066 C 
ATOM      5  C   UNL     1      34.443 -16.790 -23.836  0.00  0.00    +0.053 C 
ATOM      6  C   UNL     1      35.583 -16.598 -21.498  0.00  0.00    +0.019 C 
ATOM      7  C   UNL     1      34.662 -19.568 -23.336  0.00  0.00    +0.015 C 
ATOM      8  C   UNL     1      33.981 -17.727 -24.769  0.00  0.00    +0.015 C 
ATOM      9  C   UNL     1      34.090 -19.093 -24.521  0.00  0.00    +0.003 C 
ENDROOT
BRANCH   5  11
ATOM     10  O   UNL     1      33.399 -14.569 -22.134  0.00  0.00    -0.252 OA
ATOM     11  N   UNL     1      34.322 -15.427 -24.109  0.00  0.00    -0.268 N 
ATOM     12  N   UNL     1      33.878 -13.167 -23.943  0.00  0.00    -0.266 N 
ATOM     13  C   UNL     1      33.821 -14.400 -23.274  0.00  0.00    +0.308 C 
ATOM     14  H   UNL     1      34.627 -15.141 -25.001  0.00  0.00    +0.156 HD
ATOM     15  H   UNL     1      34.242 -13.188 -24.857  0.00  0.00    +0.157 HD
BRANCH  12  17
ATOM     16 BR   UNL     1      31.288 -10.472 -20.242  0.00  0.00    -0.049 Br
ATOM     17  C   UNL     1      33.477 -11.897 -23.464  0.00  0.00    +0.086 C 
ATOM     18  C   UNL     1      33.838 -10.750 -24.155  0.00  0.00    +0.152 C 
ATOM     19  C   UNL     1      32.724 -11.830 -22.303  0.00  0.00    +0.024 C 
ATOM     20  C   UNL     1      33.436  -9.506 -23.672  0.00  0.00    +0.039 C 
ATOM     21  C   UNL     1      32.321 -10.585 -21.820  0.00  0.00    +0.036 C 
ATOM     22  C   UNL     1      32.677  -9.423 -22.504  0.00  0.00    +0.010 C 
BRANCH  18  23
ATOM     23  O   UNL     1      34.577 -10.811 -25.298  0.00  0.00    -0.470 OA
ATOM     24  C   UNL     1      35.653  -9.882 -25.425  0.00  0.00    +0.253 C 
ENDBRANCH  18  23
ENDBRANCH  12  17
ENDBRANCH   5  11
BRANCH   1  25
ATOM     25  C   UNL     1      36.005 -20.065 -20.561  0.00  0.00    +0.122 C 
BRANCH  25  28
ATOM     26  N   UNL     1      32.552 -21.653 -18.580  0.00  0.00    -0.230 NA
ATOM     27  N   UNL     1      33.971 -22.974 -17.196  0.00  0.00    -0.343 N 
ATOM     28  C   UNL     1      34.793 -20.623 -19.866  0.00  0.00    +0.002 C 
ATOM     29  C   UNL     1      34.952 -21.546 -18.848  0.00  0.00    +0.031 C 
ATOM     30  C   UNL     1      33.532 -20.206 -20.251  0.00  0.00    +0.018 C 
ATOM     31  C   UNL     1      33.805 -22.029 -18.239  0.00  0.00    +0.125 C 
ATOM     32  C   UNL     1      32.448 -20.749 -19.580  0.00  0.00    +0.100 C 
ATOM     33  H   UNL     1      33.183 -23.342 -16.736  0.00  0.00    +0.144 HD
ATOM     34  H   UNL     1      34.876 -23.260 -16.931  0.00  0.00    +0.144 HD
ENDBRANCH  25  28
ENDBRANCH   1  25
TORSDOF 5
ENDMDL
MODEL 3
REMARK VINA RESULT:     -10.7      3.822     10.260
REMARK  Name = 11691242
REMARK  5 active torsions:
REMARK  status: ('A' for Active; 'I' for Inactive)
REMARK    1  A    between atoms: N_1  and  C_25
REMARK    2  A    between atoms: C_5  and  N_11
REMARK    3  A    between atoms: N_12  and  C_17
REMARK    4  A    between atoms: C_18  and  O_23
REMARK    5  A    between atoms: C_25  and  C_28
REMARK                            x       y       z     vdW  Elec       q    Type
REMARK                         _______ _______ _______ _____ _____    ______ ____
ROOT
ATOM      1  N   UNL     1      32.175  -9.696 -21.544  0.00  0.00    -0.282 N 
ATOM      2  C   UNL     1      33.038  -9.985 -22.576  0.00  0.00    +0.053 C 
ATOM      3  C   UNL     1      32.945 -11.357 -22.819  0.00  0.00    +0.028 C 
ATOM      4  C   UNL     1      31.541 -10.835 -21.126  0.00  0.00    +0.066 C 
ATOM      5  C   UNL     1      33.735 -11.921 -23.839  0.00  0.00    +0.053 C 
ATOM      6  C   UNL     1      31.997 -11.881 -21.895  0.00  0.00    +0.019 C 
ATOM      7  C   UNL     1      33.886  -9.145 -23.306  0.00  0.00    +0.015 C 
ATOM      8  C   UNL     1      34.589 -11.093 -24.579  0.00  0.00    +0.015 C 
ATOM      9  C   UNL     1      34.661  -9.727 -24.315  0.00  0.00    +0.003 C 
ENDROOT
BRANCH   5  11
ATOM     10  O   UNL     1      34.924 -14.242 -22.382  0.00  0.00    -0.252 OA
ATOM     11  N   UNL     1      33.681 -13.286 -24.124  0.00  0.00    -0.268 N 
ATOM     12  N   UNL     1      33.959 -15.577 -24.042  0.00  0.00    -0.266 N 
ATOM     13  C   UNL     1      34.259 -14.362 -23.407  0.00  0.00    +0.308 C 
ATOM     14  H   UNL     1      33.173 -13.535 -24.930  0.00  0.00    +0.156 HD
ATOM     15  H   UNL     1      33.413 -15.515 -24.859  0.00  0.00    +0.157 HD
BRANCH  12  17
ATOM     16 BR   UNL     1      37.107 -18.525 -21.031  0.00  0.00    -0.049 Br
ATOM     17  C   UNL     1      34.344 -16.882 -23.652  0.00  0.00    +0.086 C 
ATOM     18  C   UNL     1      33.719 -17.985 -24.213  0.00  0.00    +0.152 C 
ATOM     19  C   UNL     1      35.347 -17.026 -22.707  0.00  0.00    +0.024 C 
ATOM     20  C   UNL     1      34.109 -19.265 -23.819  0.00  0.00    +0.039 C 
ATOM     21  C   UNL     1      35.736 -18.307 -22.313  0.00  0.00    +0.036 C 
ATOM     22  C   UNL     1      35.117 -19.426 -22.869  0.00  0.00    +0.010 C 
BRANCH  18  23
ATOM     23  O   UNL     1      32.733 -17.849 -25.144  0.00  0.00    -0.470 OA
ATOM     24  C   UNL     1      31.802 -18.923 -25.265  0.00  0.00    +0.253 C 
ENDBRANCH  18  23
ENDBRANCH  12  17
ENDBRANCH   5  11
BRANCH   1  25
ATOM     25  C   UNL     1      31.960  -8.386 -20.968  0.00  0.00    +0.122 C 
BRANCH  25  28
ATOM     26  N   UNL     1      31.171  -5.459 -23.997  0.00  0.00    -0.230 NA
ATOM     27  N   UNL     1      32.314  -3.824 -22.695  0.00  0.00    -0.343 N 
ATOM     28  C   UNL     1      31.683  -7.358 -22.030  0.00  0.00    +0.002 C 
ATOM     29  C   UNL     1      32.132  -6.060 -21.862  0.00  0.00    +0.031 C 
ATOM     30  C   UNL     1      30.982  -7.721 -23.166  0.00  0.00    +0.018 C 
ATOM     31  C   UNL     1      31.852  -5.152 -22.870  0.00  0.00    +0.125 C 
ATOM     32  C   UNL     1      30.753  -6.739 -24.116  0.00  0.00    +0.100 C 
ATOM     33  H   UNL     1      32.138  -3.146 -23.386  0.00  0.00    +0.144 HD
ATOM     34  H   UNL     1      32.813  -3.580 -21.881  0.00  0.00    +0.144 HD
ENDBRANCH  25  28
ENDBRANCH   1  25
TORSDOF 5
ENDMDL
MODEL 4
REMARK VINA RESULT:     -10.6      6.916     12.032
REMARK  Name = 11691242
REMARK  5 active torsions:
REMARK  status: ('A' for Active; 'I' for Inactive)
REMARK    1  A    between atoms: N_1  and  C_25
REMARK    2  A    between atoms: C_5  and  N_11
REMARK    3  A    between atoms: N_12  and  C_17
REMARK    4  A    between atoms: C_18  and  O_23
REMARK    5  A    between atoms: C_25  and  C_28
REMARK                            x       y       z     vdW  Elec       q    Type
REMARK                         _______ _______ _______ _____ _____    ______ ____
ROOT
ATOM      1  N   UNL     1      35.714 -18.600 -22.245  0.00  0.00    -0.282 N 
ATOM      2  C   UNL     1      34.983 -19.385 -21.382  0.00  0.00    +0.053 C 
ATOM      3  C   UNL     1      35.835 -19.753 -20.338  0.00  0.00    +0.028 C 
ATOM      4  C   UNL     1      36.996 -18.461 -21.785  0.00  0.00    +0.066 C 
ATOM      5  C   UNL     1      35.331 -20.569 -19.306  0.00  0.00    +0.053 C 
ATOM      6  C   UNL     1      37.103 -19.164 -20.607  0.00  0.00    +0.019 C 
ATOM      7  C   UNL     1      33.646 -19.791 -21.444  0.00  0.00    +0.015 C 
ATOM      8  C   UNL     1      33.995 -20.984 -19.355  0.00  0.00    +0.015 C 
ATOM      9  C   UNL     1      33.167 -20.600 -20.408  0.00  0.00    +0.003 C 
ENDROOT
BRANCH   5  11
ATOM     10  O   UNL     1      34.995 -22.815 -17.366  0.00  0.00    -0.252 OA
ATOM     11  N   UNL     1      36.140 -20.967 -18.241  0.00  0.00    -0.268 N 
ATOM     12  N   UNL     1      37.004 -22.086 -16.415  0.00  0.00    -0.266 N 
ATOM     13  C   UNL     1      35.948 -22.041 -17.339  0.00  0.00    +0.308 C 
ATOM     14  H   UNL     1      36.952 -20.429 -18.096  0.00  0.00    +0.156 HD
ATOM     15  H   UNL     1      37.698 -21.397 -16.519  0.00  0.00    +0.157 HD
BRANCH  12  17
ATOM     16 BR   UNL     1      40.196 -25.594 -14.141  0.00  0.00    -0.049 Br
ATOM     17  C   UNL     1      37.193 -23.002 -15.353  0.00  0.00    +0.086 C 
ATOM     18  C   UNL     1      36.198 -23.177 -14.404  0.00  0.00    +0.152 C 
ATOM     19  C   UNL     1      38.383 -23.709 -15.287  0.00  0.00    +0.024 C 
ATOM     20  C   UNL     1      36.399 -24.082 -13.363  0.00  0.00    +0.039 C 
ATOM     21  C   UNL     1      38.583 -24.615 -14.245  0.00  0.00    +0.036 C 
ATOM     22  C   UNL     1      37.591 -24.801 -13.283  0.00  0.00    +0.010 C 
BRANCH  18  23
ATOM     23  O   UNL     1      35.025 -22.485 -14.465  0.00  0.00    -0.470 OA
ATOM     24  C   UNL     1      33.821 -23.234 -14.306  0.00  0.00    +0.253 C 
ENDBRANCH  18  23
ENDBRANCH  12  17
ENDBRANCH   5  11
BRANCH   1  25
ATOM     25  C   UNL     1      35.218 -18.005 -23.467  0.00  0.00    +0.122 C 
BRANCH  25  28
ATOM     26  N   UNL     1      33.956 -13.958 -22.835  0.00  0.00    -0.230 NA
ATOM     27  N   UNL     1      33.196 -13.859 -25.091  0.00  0.00    -0.343 N 
ATOM     28  C   UNL     1      34.775 -16.584 -23.246  0.00  0.00    +0.002 C 
ATOM     29  C   UNL     1      34.188 -15.881 -24.282  0.00  0.00    +0.031 C 
ATOM     30  C   UNL     1      34.959 -15.996 -22.008  0.00  0.00    +0.018 C 
ATOM     31  C   UNL     1      33.798 -14.576 -24.027  0.00  0.00    +0.125 C 
ATOM     32  C   UNL     1      34.534 -14.687 -21.854  0.00  0.00    +0.100 C 
ATOM     33  H   UNL     1      32.903 -12.929 -24.953  0.00  0.00    +0.144 HD
ATOM     34  H   UNL     1      33.070 -14.291 -25.967  0.00  0.00    +0.144 HD
ENDBRANCH  25  28
ENDBRANCH   1  25
TORSDOF 5
ENDMDL
MODEL 5
REMARK VINA RESULT:     -10.6      4.136     10.608
REMARK  Name = 11691242
REMARK  5 active torsions:
REMARK  status: ('A' for Active; 'I' for Inactive)
REMARK    1  A    between atoms: N_1  and  C_25
REMARK    2  A    between atoms: C_5  and  N_11
REMARK    3  A    between atoms: N_12  and  C_17
REMARK    4  A    between atoms: C_18  and  O_23
REMARK    5  A    between atoms: C_25  and  C_28
REMARK                            x       y       z     vdW  Elec       q    Type
REMARK                         _______ _______ _______ _____ _____    ______ ____
ROOT
ATOM      1  N   UNL     1      33.926  -8.598 -22.904  0.00  0.00    -0.282 N 
ATOM      2  C   UNL     1      33.116  -9.602 -22.423  0.00  0.00    +0.053 C 
ATOM      3  C   UNL     1      33.520 -10.788 -23.041  0.00  0.00    +0.028 C 
ATOM      4  C   UNL     1      34.825  -9.106 -23.802  0.00  0.00    +0.066 C 
ATOM      5  C   UNL     1      32.846 -11.983 -22.722  0.00  0.00    +0.053 C 
ATOM      6  C   UNL     1      34.599 -10.459 -23.909  0.00  0.00    +0.019 C 
ATOM      7  C   UNL     1      32.068  -9.552 -21.498  0.00  0.00    +0.015 C 
ATOM      8  C   UNL     1      31.795 -11.949 -21.798  0.00  0.00    +0.015 C 
ATOM      9  C   UNL     1      31.414 -10.751 -21.196  0.00  0.00    +0.003 C 
ENDROOT
BRANCH   5  11
ATOM     10  O   UNL     1      33.866 -14.500 -21.479  0.00  0.00    -0.252 OA
ATOM     11  N   UNL     1      33.209 -13.195 -23.310  0.00  0.00    -0.268 N 
ATOM     12  N   UNL     1      33.935 -15.361 -23.652  0.00  0.00    -0.266 N 
ATOM     13  C   UNL     1      33.690 -14.372 -22.686  0.00  0.00    +0.308 C 
ATOM     14  H   UNL     1      33.119 -13.239 -24.290  0.00  0.00    +0.156 HD
ATOM     15  H   UNL     1      33.746 -15.110 -24.585  0.00  0.00    +0.157 HD
BRANCH  12  17
ATOM     16 BR   UNL     1      37.313 -18.461 -21.073  0.00  0.00    -0.049 Br
ATOM     17  C   UNL     1      34.419 -16.675 -23.449  0.00  0.00    +0.086 C 
ATOM     18  C   UNL     1      33.876 -17.731 -24.165  0.00  0.00    +0.152 C 
ATOM     19  C   UNL     1      35.435 -16.876 -22.529  0.00  0.00    +0.024 C 
ATOM     20  C   UNL     1      34.363 -19.021 -23.954  0.00  0.00    +0.039 C 
ATOM     21  C   UNL     1      35.922 -18.166 -22.319  0.00  0.00    +0.036 C 
ATOM     22  C   UNL     1      35.386 -19.239 -23.031  0.00  0.00    +0.010 C 
BRANCH  18  23
ATOM     23  O   UNL     1      32.877 -17.539 -25.072  0.00  0.00    -0.470 OA
ATOM     24  C   UNL     1      31.942 -18.602 -25.242  0.00  0.00    +0.253 C 
ENDBRANCH  18  23
ENDBRANCH  12  17
ENDBRANCH   5  11
BRANCH   1  25
ATOM     25  C   UNL     1      33.848  -7.203 -22.528  0.00  0.00    +0.122 C 
BRANCH  25  28
ATOM     26  N   UNL     1      33.022  -4.715 -25.919  0.00  0.00    -0.230 NA
ATOM     27  N   UNL     1      35.360  -4.370 -26.218  0.00  0.00    -0.343 N 
ATOM     28  C   UNL     1      33.559  -6.329 -23.718  0.00  0.00    +0.002 C 
ATOM     29  C   UNL     1      34.605  -5.753 -24.416  0.00  0.00    +0.031 C 
ATOM     30  C   UNL     1      32.248  -6.111 -24.103  0.00  0.00    +0.018 C 
ATOM     31  C   UNL     1      34.286  -4.958 -25.505  0.00  0.00    +0.125 C 
ATOM     32  C   UNL     1      32.033  -5.300 -25.205  0.00  0.00    +0.100 C 
ATOM     33  H   UNL     1      35.178  -3.799 -26.998  0.00  0.00    +0.144 HD
ATOM     34  H   UNL     1      36.288  -4.535 -25.933  0.00  0.00    +0.144 HD
ENDBRANCH  25  28
ENDBRANCH   1  25
TORSDOF 5
ENDMDL
MODEL 6
REMARK VINA RESULT:     -10.3      6.103     10.092
REMARK  Name = 11691242
REMARK  5 active torsions:
REMARK  status: ('A' for Active; 'I' for Inactive)
REMARK    1  A    between atoms: N_1  and  C_25
REMARK    2  A    between atoms: C_5  and  N_11
REMARK    3  A    between atoms: N_12  and  C_17
REMARK    4  A    between atoms: C_18  and  O_23
REMARK    5  A    between atoms: C_25  and  C_28
REMARK                            x       y       z     vdW  Elec       q    Type
REMARK                         _______ _______ _______ _____ _____    ______ ____
ROOT
ATOM      1  N   UNL     1      36.404 -22.926 -15.281  0.00  0.00    -0.282 N 
ATOM      2  C   UNL     1      35.417 -22.808 -16.232  0.00  0.00    +0.053 C 
ATOM      3  C   UNL     1      35.889 -21.927 -17.207  0.00  0.00    +0.028 C 
ATOM      4  C   UNL     1      37.481 -22.152 -15.619  0.00  0.00    +0.066 C 
ATOM      5  C   UNL     1      35.062 -21.627 -18.308  0.00  0.00    +0.053 C 
ATOM      6  C   UNL     1      37.193 -21.520 -16.807  0.00  0.00    +0.019 C 
ATOM      7  C   UNL     1      34.155 -23.408 -16.303  0.00  0.00    +0.015 C 
ATOM      8  C   UNL     1      33.797 -22.220 -18.393  0.00  0.00    +0.015 C 
ATOM      9  C   UNL     1      33.352 -23.096 -17.406  0.00  0.00    +0.003 C 
ENDROOT
BRANCH   5  11
ATOM     10  O   UNL     1      33.471 -19.953 -20.202  0.00  0.00    -0.252 OA
ATOM     11  N   UNL     1      35.485 -20.753 -19.311  0.00  0.00    -0.268 N 
ATOM     12  N   UNL     1      35.528 -19.233 -21.049  0.00  0.00    -0.266 N 
ATOM     13  C   UNL     1      34.698 -19.974 -20.193  0.00  0.00    +0.308 C 
ATOM     14  H   UNL     1      36.460 -20.667 -19.421  0.00  0.00    +0.156 HD
ATOM     15  H   UNL     1      36.496 -19.353 -20.922  0.00  0.00    +0.157 HD
BRANCH  12  17
ATOM     16 BR   UNL     1      34.598 -14.234 -22.397  0.00  0.00    -0.049 Br
ATOM     17  C   UNL     1      35.144 -18.333 -22.072  0.00  0.00    +0.086 C 
ATOM     18  C   UNL     1      34.842 -18.812 -23.337  0.00  0.00    +0.152 C 
ATOM     19  C   UNL     1      35.078 -16.981 -21.779  0.00  0.00    +0.024 C 
ATOM     20  C   UNL     1      34.465 -17.914 -24.335  0.00  0.00    +0.039 C 
ATOM     21  C   UNL     1      34.700 -16.082 -22.777  0.00  0.00    +0.036 C 
ATOM     22  C   UNL     1      34.395 -16.549 -24.055  0.00  0.00    +0.010 C 
BRANCH  18  23
ATOM     23  O   UNL     1      34.904 -20.142 -23.630  0.00  0.00    -0.470 OA
ATOM     24  C   UNL     1      34.883 -20.504 -25.009  0.00  0.00    +0.253 C 
ENDBRANCH  18  23
ENDBRANCH  12  17
ENDBRANCH   5  11
BRANCH   1  25
ATOM     25  C   UNL     1      36.330 -23.741 -14.087  0.00  0.00    +0.122 C 
BRANCH  25  28
ATOM     26  N   UNL     1      38.703 -27.289 -14.468  0.00  0.00    -0.230 NA
ATOM     27  N   UNL     1      36.926 -28.333 -15.662  0.00  0.00    -0.343 N 
ATOM     28  C   UNL     1      37.162 -24.988 -14.220  0.00  0.00    +0.002 C 
ATOM     29  C   UNL     1      36.648 -26.087 -14.884  0.00  0.00    +0.031 C 
ATOM     30  C   UNL     1      38.434 -25.020 -13.678  0.00  0.00    +0.018 C 
ATOM     31  C   UNL     1      37.455 -27.209 -14.981  0.00  0.00    +0.125 C 
ATOM     32  C   UNL     1      39.162 -26.190 -13.828  0.00  0.00    +0.100 C 
ATOM     33  H   UNL     1      37.465 -29.151 -15.754  0.00  0.00    +0.144 HD
ATOM     34  H   UNL     1      36.019 -28.295 -16.044  0.00  0.00    +0.144 HD
ENDBRANCH  25  28
ENDBRANCH   1  25
TORSDOF 5
ENDMDL
MODEL 7
REMARK VINA RESULT:     -10.2      5.189     10.441
REMARK  Name = 11691242
REMARK  5 active torsions:
REMARK  status: ('A' for Active; 'I' for Inactive)
REMARK    1  A    between atoms: N_1  and  C_25
REMARK    2  A    between atoms: C_5  and  N_11
REMARK    3  A    between atoms: N_12  and  C_17
REMARK    4  A    between atoms: C_18  and  O_23
REMARK    5  A    between atoms: C_25  and  C_28
REMARK                            x       y       z     vdW  Elec       q    Type
REMARK                         _______ _______ _______ _____ _____    ______ ____
ROOT
ATOM      1  N   UNL     1      34.521 -15.604 -23.260  0.00  0.00    -0.282 N 
ATOM      2  C   UNL     1      34.462 -16.961 -23.484  0.00  0.00    +0.053 C 
ATOM      3  C   UNL     1      34.912 -17.589 -22.320  0.00  0.00    +0.028 C 
ATOM      4  C   UNL     1      34.991 -15.353 -21.999  0.00  0.00    +0.066 C 
ATOM      5  C   UNL     1      34.953 -18.996 -22.281  0.00  0.00    +0.053 C 
ATOM      6  C   UNL     1      35.243 -16.561 -21.392  0.00  0.00    +0.019 C 
ATOM      7  C   UNL     1      34.050 -17.673 -24.615  0.00  0.00    +0.015 C 
ATOM      8  C   UNL     1      34.544 -19.723 -23.406  0.00  0.00    +0.015 C 
ATOM      9  C   UNL     1      34.099 -19.070 -24.554  0.00  0.00    +0.003 C 
ENDROOT
BRANCH   5  11
ATOM     10  O   UNL     1      33.404 -20.470 -20.195  0.00  0.00    -0.252 OA
ATOM     11  N   UNL     1      35.394 -19.675 -21.144  0.00  0.00    -0.268 N 
ATOM     12  N   UNL     1      35.471 -20.905 -19.191  0.00  0.00    -0.266 N 
ATOM     13  C   UNL     1      34.627 -20.365 -20.174  0.00  0.00    +0.308 C 
ATOM     14  H   UNL     1      36.367 -19.673 -20.996  0.00  0.00    +0.156 HD
ATOM     15  H   UNL     1      36.434 -20.736 -19.308  0.00  0.00    +0.157 HD
BRANCH  12  17
ATOM     16 BR   UNL     1      31.613 -23.318 -16.552  0.00  0.00    -0.049 Br
ATOM     17  C   UNL     1      35.109 -21.663 -18.052  0.00  0.00    +0.086 C 
ATOM     18  C   UNL     1      36.070 -22.008 -17.115  0.00  0.00    +0.152 C 
ATOM     19  C   UNL     1      33.786 -22.045 -17.900  0.00  0.00    +0.024 C 
ATOM     20  C   UNL     1      35.699 -22.755 -15.998  0.00  0.00    +0.039 C 
ATOM     21  C   UNL     1      33.414 -22.792 -16.782  0.00  0.00    +0.036 C 
ATOM     22  C   UNL     1      34.370 -23.147 -15.832  0.00  0.00    +0.010 C 
BRANCH  18  23
ATOM     23  O   UNL     1      37.373 -21.633 -17.260  0.00  0.00    -0.470 OA
ATOM     24  C   UNL     1      37.931 -20.818 -16.230  0.00  0.00    +0.253 C 
ENDBRANCH  18  23
ENDBRANCH  12  17
ENDBRANCH   5  11
BRANCH   1  25
ATOM     25  C   UNL     1      34.148 -14.578 -24.211  0.00  0.00    +0.122 C 
BRANCH  25  28
ATOM     26  N   UNL     1      32.654 -11.081 -22.235  0.00  0.00    -0.230 NA
ATOM     27  N   UNL     1      31.528 -12.470 -20.660  0.00  0.00    -0.343 N 
ATOM     28  C   UNL     1      33.623 -13.351 -23.517  0.00  0.00    +0.002 C 
ATOM     29  C   UNL     1      32.813 -13.487 -22.404  0.00  0.00    +0.031 C 
ATOM     30  C   UNL     1      33.956 -12.098 -24.000  0.00  0.00    +0.018 C 
ATOM     31  C   UNL     1      32.356 -12.326 -21.801  0.00  0.00    +0.125 C 
ATOM     32  C   UNL     1      33.448 -10.999 -23.326  0.00  0.00    +0.100 C 
ATOM     33  H   UNL     1      31.182 -11.672 -20.201  0.00  0.00    +0.144 HD
ATOM     34  H   UNL     1      31.300 -13.368 -20.327  0.00  0.00    +0.144 HD
ENDBRANCH  25  28
ENDBRANCH   1  25
TORSDOF 5
ENDMDL
MODEL 8
REMARK VINA RESULT:      -9.9      6.820     12.247
REMARK  Name = 11691242
REMARK  5 active torsions:
REMARK  status: ('A' for Active; 'I' for Inactive)
REMARK    1  A    between atoms: N_1  and  C_25
REMARK    2  A    between atoms: C_5  and  N_11
REMARK    3  A    between atoms: N_12  and  C_17
REMARK    4  A    between atoms: C_18  and  O_23
REMARK    5  A    between atoms: C_25  and  C_28
REMARK                            x       y       z     vdW  Elec       q    Type
REMARK                         _______ _______ _______ _____ _____    ______ ____
ROOT
ATOM      1  N   UNL     1      35.867 -18.731 -21.905  0.00  0.00    -0.282 N 
ATOM      2  C   UNL     1      35.098 -19.550 -21.109  0.00  0.00    +0.053 C 
ATOM      3  C   UNL     1      35.918 -20.003 -20.073  0.00  0.00    +0.028 C 
ATOM      4  C   UNL     1      37.141 -18.653 -21.410  0.00  0.00    +0.066 C 
ATOM      5  C   UNL     1      35.372 -20.869 -19.104  0.00  0.00    +0.053 C 
ATOM      6  C   UNL     1      37.205 -19.430 -20.277  0.00  0.00    +0.019 C 
ATOM      7  C   UNL     1      33.754 -19.919 -21.224  0.00  0.00    +0.015 C 
ATOM      8  C   UNL     1      34.028 -21.247 -19.207  0.00  0.00    +0.015 C 
ATOM      9  C   UNL     1      33.233 -20.778 -20.251  0.00  0.00    +0.003 C 
ENDROOT
BRANCH   5  11
ATOM     10  O   UNL     1      34.620 -22.623 -16.807  0.00  0.00    -0.252 OA
ATOM     11  N   UNL     1      36.146 -21.352 -18.049  0.00  0.00    -0.268 N 
ATOM     12  N   UNL     1      36.850 -22.431 -16.133  0.00  0.00    -0.266 N 
ATOM     13  C   UNL     1      35.754 -22.185 -16.974  0.00  0.00    +0.308 C 
ATOM     14  H   UNL     1      37.092 -21.077 -18.052  0.00  0.00    +0.156 HD
ATOM     15  H   UNL     1      37.700 -22.010 -16.396  0.00  0.00    +0.157 HD
BRANCH  12  17
ATOM     16 BR   UNL     1      34.227 -24.145 -11.908  0.00  0.00    -0.049 Br
ATOM     17  C   UNL     1      36.885 -23.211 -14.953  0.00  0.00    +0.086 C 
ATOM     18  C   UNL     1      38.043 -23.889 -14.604  0.00  0.00    +0.152 C 
ATOM     19  C   UNL     1      35.747 -23.279 -14.165  0.00  0.00    +0.024 C 
ATOM     20  C   UNL     1      38.063 -24.654 -13.439  0.00  0.00    +0.039 C 
ATOM     21  C   UNL     1      35.767 -24.045 -12.999  0.00  0.00    +0.036 C 
ATOM     22  C   UNL     1      36.924 -24.732 -12.636  0.00  0.00    +0.010 C 
BRANCH  18  23
ATOM     23  O   UNL     1      39.166 -23.824 -15.374  0.00  0.00    -0.470 OA
ATOM     24  C   UNL     1      40.225 -24.725 -15.055  0.00  0.00    +0.253 C 
ENDBRANCH  18  23
ENDBRANCH  12  17
ENDBRANCH   5  11
BRANCH   1  25
ATOM     25  C   UNL     1      35.412 -18.049 -23.098  0.00  0.00    +0.122 C 
BRANCH  25  28
ATOM     26  N   UNL     1      33.972 -14.115 -22.196  0.00  0.00    -0.230 NA
ATOM     27  N   UNL     1      33.275 -13.866 -24.460  0.00  0.00    -0.343 N 
ATOM     28  C   UNL     1      34.907 -16.668 -22.782  0.00  0.00    +0.002 C 
ATOM     29  C   UNL     1      34.323 -15.907 -23.779  0.00  0.00    +0.031 C 
ATOM     30  C   UNL     1      35.030 -16.173 -21.496  0.00  0.00    +0.018 C 
ATOM     31  C   UNL     1      33.873 -14.642 -23.437  0.00  0.00    +0.125 C 
ATOM     32  C   UNL     1      34.549 -14.896 -21.255  0.00  0.00    +0.100 C 
ATOM     33  H   UNL     1      32.941 -12.963 -24.261  0.00  0.00    +0.144 HD
ATOM     34  H   UNL     1      33.193 -14.233 -25.371  0.00  0.00    +0.144 HD
ENDBRANCH  25  28
ENDBRANCH   1  25
TORSDOF 5
ENDMDL
MODEL 9
REMARK VINA RESULT:      -9.8      3.846     10.039
REMARK  Name = 11691242
REMARK  5 active torsions:
REMARK  status: ('A' for Active; 'I' for Inactive)
REMARK    1  A    between atoms: N_1  and  C_25
REMARK    2  A    between atoms: C_5  and  N_11
REMARK    3  A    between atoms: N_12  and  C_17
REMARK    4  A    between atoms: C_18  and  O_23
REMARK    5  A    between atoms: C_25  and  C_28
REMARK                            x       y       z     vdW  Elec       q    Type
REMARK                         _______ _______ _______ _____ _____    ______ ____
ROOT
ATOM      1  N   UNL     1      34.313  -8.768 -24.006  0.00  0.00    -0.282 N 
ATOM      2  C   UNL     1      33.548  -9.688 -23.324  0.00  0.00    +0.053 C 
ATOM      3  C   UNL     1      33.889 -10.950 -23.815  0.00  0.00    +0.028 C 
ATOM      4  C   UNL     1      35.123  -9.404 -24.908  0.00  0.00    +0.066 C 
ATOM      5  C   UNL     1      33.243 -12.083 -23.281  0.00  0.00    +0.053 C 
ATOM      6  C   UNL     1      34.883 -10.755 -24.815  0.00  0.00    +0.019 C 
ATOM      7  C   UNL     1      32.591  -9.501 -22.321  0.00  0.00    +0.015 C 
ATOM      8  C   UNL     1      32.283 -11.911 -22.277  0.00  0.00    +0.015 C 
ATOM      9  C   UNL     1      31.963 -10.639 -21.806  0.00  0.00    +0.003 C 
ENDROOT
BRANCH   5  11
ATOM     10  O   UNL     1      34.072 -14.519 -21.764  0.00  0.00    -0.252 OA
ATOM     11  N   UNL     1      33.545 -13.367 -23.736  0.00  0.00    -0.268 N 
ATOM     12  N   UNL     1      34.144 -15.595 -23.839  0.00  0.00    -0.266 N 
ATOM     13  C   UNL     1      33.936 -14.501 -22.984  0.00  0.00    +0.308 C 
ATOM     14  H   UNL     1      33.478 -13.503 -24.709  0.00  0.00    +0.156 HD
ATOM     15  H   UNL     1      33.995 -15.429 -24.797  0.00  0.00    +0.157 HD
BRANCH  12  17
ATOM     16 BR   UNL     1      37.166 -18.620 -20.775  0.00  0.00    -0.049 Br
ATOM     17  C   UNL     1      34.540 -16.909 -23.492  0.00  0.00    +0.086 C 
ATOM     18  C   UNL     1      33.989 -17.996 -24.154  0.00  0.00    +0.152 C 
ATOM     19  C   UNL     1      35.480 -17.078 -22.489  0.00  0.00    +0.024 C 
ATOM     20  C   UNL     1      34.388 -19.284 -23.801  0.00  0.00    +0.039 C 
ATOM     21  C   UNL     1      35.880 -18.368 -22.137  0.00  0.00    +0.036 C 
ATOM     22  C   UNL     1      35.334 -19.470 -22.793  0.00  0.00    +0.010 C 
BRANCH  18  23
ATOM     23  O   UNL     1      33.065 -17.834 -25.143  0.00  0.00    -0.470 OA
ATOM     24  C   UNL     1      32.001 -18.783 -25.196  0.00  0.00    +0.253 C 
ENDBRANCH  18  23
ENDBRANCH  12  17
ENDBRANCH   5  11
BRANCH   1  25
ATOM     25  C   UNL     1      34.276  -7.335 -23.812  0.00  0.00    +0.122 C 
BRANCH  25  28
ATOM     26  N   UNL     1      31.541  -6.243 -20.698  0.00  0.00    -0.230 NA
ATOM     27  N   UNL     1      33.161  -6.881 -19.072  0.00  0.00    -0.343 N 
ATOM     28  C   UNL     1      33.316  -6.952 -22.718  0.00  0.00    +0.002 C 
ATOM     29  C   UNL     1      33.692  -7.099 -21.395  0.00  0.00    +0.031 C 
ATOM     30  C   UNL     1      32.068  -6.457 -23.048  0.00  0.00    +0.018 C 
ATOM     31  C   UNL     1      32.773  -6.731 -20.426  0.00  0.00    +0.125 C 
ATOM     32  C   UNL     1      31.220  -6.118 -22.005  0.00  0.00    +0.100 C 
ATOM     33  H   UNL     1      32.539  -6.632 -18.351  0.00  0.00    +0.144 HD
ATOM     34  H   UNL     1      34.054  -7.234 -18.852  0.00  0.00    +0.144 HD
ENDBRANCH  25  28
ENDBRANCH   1  25
TORSDOF 5
ENDMDL
