MODEL 1
REMARK VINA RESULT:     -10.4      0.000      0.000
REMARK  Name = 76958312
REMARK  3 active torsions:
REMARK  status: ('A' for Active; 'I' for Inactive)
REMARK    1  A    between atoms: C_16  and  C_21
REMARK    2  A    between atoms: C_26  and  N_28
REMARK    3  A    between atoms: N_29  and  C_34
REMARK                            x       y       z     vdW  Elec       q    Type
REMARK                         _______ _______ _______ _____ _____    ______ ____
ROOT
ATOM      1  O   UNL     1      31.576 -22.854 -12.447  0.00  0.00    -0.350 OA
ATOM      2  O   UNL     1      39.517 -25.002 -12.974  0.00  0.00    -0.350 OA
ATOM      3  N   UNL     1      32.535 -24.333 -14.662  0.00  0.00    -0.231 N 
ATOM      4  N   UNL     1      34.831 -24.392 -14.486  0.00  0.00    -0.246 NA
ATOM      5  N   UNL     1      33.743 -23.163 -16.237  0.00  0.00    -0.260 NA
ATOM      6  N   UNL     1      37.163 -24.395 -14.384  0.00  0.00    -0.228 N 
ATOM      7  N   UNL     1      36.139 -23.189 -16.099  0.00  0.00    -0.260 NA
ATOM      8  C   UNL     1      32.384 -24.987 -13.362  0.00  0.00    +0.114 C 
ATOM      9  C   UNL     1      31.339 -23.502 -14.806  0.00  0.00    +0.114 C 
ATOM     10  C   UNL     1      30.920 -25.457 -13.418  0.00  0.00    +0.025 C 
ATOM     11  C   UNL     1      30.229 -24.475 -14.372  0.00  0.00    +0.025 C 
ATOM     12  C   UNL     1      31.488 -22.352 -13.791  0.00  0.00    +0.163 C 
ATOM     13  C   UNL     1      32.567 -23.886 -12.301  0.00  0.00    +0.163 C 
ATOM     14  C   UNL     1      33.750 -23.949 -15.148  0.00  0.00    +0.224 C 
ATOM     15  C   UNL     1      35.991 -23.973 -15.018  0.00  0.00    +0.224 C 
ATOM     16  C   UNL     1      34.973 -22.823 -16.655  0.00  0.00    +0.163 C 
ATOM     17  C   UNL     1      38.469 -23.978 -14.907  0.00  0.00    +0.135 C 
ATOM     18  C   UNL     1      37.119 -24.642 -12.936  0.00  0.00    +0.135 C 
ATOM     19  C   UNL     1      38.275 -25.550 -12.534  0.00  0.00    +0.164 C 
ATOM     20  C   UNL     1      39.554 -24.921 -14.398  0.00  0.00    +0.164 C 
ENDROOT
BRANCH  16  21
ATOM     21  C   UNL     1      35.050 -21.980 -17.820  0.00  0.00    +0.087 C 
ATOM     22  C   UNL     1      36.285 -21.492 -18.247  0.00  0.00    +0.013 C 
ATOM     23  C   UNL     1      33.889 -21.652 -18.520  0.00  0.00    +0.013 C 
ATOM     24  C   UNL     1      36.359 -20.675 -19.376  0.00  0.00    +0.015 C 
ATOM     25  C   UNL     1      33.964 -20.835 -19.649  0.00  0.00    +0.015 C 
ATOM     26  C   UNL     1      35.199 -20.347 -20.076  0.00  0.00    +0.052 C 
BRANCH  26  28
ATOM     27  O   UNL     1      34.209 -17.563 -20.509  0.00  0.00    -0.252 OA
ATOM     28  N   UNL     1      35.273 -19.530 -21.205  0.00  0.00    -0.268 N 
ATOM     29  N   UNL     1      35.076 -17.757 -22.673  0.00  0.00    -0.268 N 
ATOM     30  C   UNL     1      34.791 -18.210 -21.374  0.00  0.00    +0.308 C 
ATOM     31  H   UNL     1      35.720 -19.925 -21.989  0.00  0.00    +0.156 HD
ATOM     32  H   UNL     1      35.551 -18.392 -23.256  0.00  0.00    +0.156 HD
BRANCH  29  34
ATOM     33  N   UNL     1      34.154 -14.018 -24.372  0.00  0.00    -0.242 NA
ATOM     34  C   UNL     1      34.766 -16.501 -23.245  0.00  0.00    +0.055 C 
ATOM     35  C   UNL     1      34.918 -15.338 -22.497  0.00  0.00    +0.035 C 
ATOM     36  C   UNL     1      34.309 -16.424 -24.555  0.00  0.00    +0.035 C 
ATOM     37  C   UNL     1      34.600 -14.133 -23.101  0.00  0.00    +0.100 C 
ATOM     38  C   UNL     1      34.019 -15.169 -25.067  0.00  0.00    +0.100 C 
ENDBRANCH  29  34
ENDBRANCH  26  28
ENDBRANCH  16  21
TORSDOF 3
ENDMDL
MODEL 2
REMARK VINA RESULT:      -9.8      1.162      4.586
REMARK  Name = 76958312
REMARK  3 active torsions:
REMARK  status: ('A' for Active; 'I' for Inactive)
REMARK    1  A    between atoms: C_16  and  C_21
REMARK    2  A    between atoms: C_26  and  N_28
REMARK    3  A    between atoms: N_29  and  C_34
REMARK                            x       y       z     vdW  Elec       q    Type
REMARK                         _______ _______ _______ _____ _____    ______ ____
ROOT
ATOM      1  O   UNL     1      37.746 -27.249 -14.091  0.00  0.00    -0.350 OA
ATOM      2  O   UNL     1      29.949 -24.769 -13.091  0.00  0.00    -0.350 OA
ATOM      3  N   UNL     1      37.136 -24.518 -13.667  0.00  0.00    -0.231 N 
ATOM      4  N   UNL     1      34.843 -24.319 -13.769  0.00  0.00    -0.246 NA
ATOM      5  N   UNL     1      36.257 -23.369 -15.460  0.00  0.00    -0.260 NA
ATOM      6  N   UNL     1      32.530 -24.070 -13.956  0.00  0.00    -0.228 N 
ATOM      7  N   UNL     1      33.874 -23.133 -15.617  0.00  0.00    -0.260 NA
ATOM      8  C   UNL     1      37.038 -25.466 -12.556  0.00  0.00    +0.114 C 
ATOM      9  C   UNL     1      38.366 -24.888 -14.370  0.00  0.00    +0.114 C 
ATOM     10  C   UNL     1      38.473 -25.446 -12.003  0.00  0.00    +0.025 C 
ATOM     11  C   UNL     1      39.351 -25.063 -13.201  0.00  0.00    +0.025 C 
ATOM     12  C   UNL     1      38.081 -26.238 -15.056  0.00  0.00    +0.163 C 
ATOM     13  C   UNL     1      36.711 -26.834 -13.184  0.00  0.00    +0.163 C 
ATOM     14  C   UNL     1      36.036 -24.050 -14.324  0.00  0.00    +0.224 C 
ATOM     15  C   UNL     1      33.807 -23.831 -14.471  0.00  0.00    +0.224 C 
ATOM     16  C   UNL     1      35.130 -22.942 -16.051  0.00  0.00    +0.163 C 
ATOM     17  C   UNL     1      31.348 -23.567 -14.666  0.00  0.00    +0.135 C 
ATOM     18  C   UNL     1      32.315 -25.295 -13.173  0.00  0.00    +0.135 C 
ATOM     19  C   UNL     1      31.077 -25.136 -12.298  0.00  0.00    +0.164 C 
ATOM     20  C   UNL     1      30.162 -23.502 -13.710  0.00  0.00    +0.164 C 
ENDROOT
BRANCH  16  21
ATOM     21  C   UNL     1      35.283 -22.202 -17.277  0.00  0.00    +0.087 C 
ATOM     22  C   UNL     1      36.521 -21.653 -17.611  0.00  0.00    +0.013 C 
ATOM     23  C   UNL     1      34.192 -22.035 -18.130  0.00  0.00    +0.013 C 
ATOM     24  C   UNL     1      36.668 -20.936 -18.799  0.00  0.00    +0.015 C 
ATOM     25  C   UNL     1      34.340 -21.318 -19.318  0.00  0.00    +0.015 C 
ATOM     26  C   UNL     1      35.578 -20.769 -19.652  0.00  0.00    +0.052 C 
BRANCH  26  28
ATOM     27  O   UNL     1      34.077 -18.396 -20.670  0.00  0.00    -0.252 OA
ATOM     28  N   UNL     1      35.725 -20.052 -20.840  0.00  0.00    -0.268 N 
ATOM     29  N   UNL     1      35.468 -18.516 -22.546  0.00  0.00    -0.268 N 
ATOM     30  C   UNL     1      34.993 -18.927 -21.291  0.00  0.00    +0.308 C 
ATOM     31  H   UNL     1      36.433 -20.371 -21.446  0.00  0.00    +0.156 HD
ATOM     32  H   UNL     1      36.211 -19.043 -22.920  0.00  0.00    +0.156 HD
BRANCH  29  34
ATOM     33  N   UNL     1      34.110 -15.307 -24.907  0.00  0.00    -0.242 NA
ATOM     34  C   UNL     1      35.012 -17.438 -23.340  0.00  0.00    +0.055 C 
ATOM     35  C   UNL     1      35.457 -16.146 -23.084  0.00  0.00    +0.035 C 
ATOM     36  C   UNL     1      34.115 -17.666 -24.379  0.00  0.00    +0.035 C 
ATOM     37  C   UNL     1      34.980 -15.124 -23.889  0.00  0.00    +0.100 C 
ATOM     38  C   UNL     1      33.699 -16.575 -25.126  0.00  0.00    +0.100 C 
ENDBRANCH  29  34
ENDBRANCH  26  28
ENDBRANCH  16  21
TORSDOF 3
ENDMDL
