MODEL 1
REMARK VINA RESULT:     -12.1      0.000      0.000
REMARK  Name = 10157080
REMARK  5 active torsions:
REMARK  status: ('A' for Active; 'I' for Inactive)
REMARK    1  A    between atoms: C_3  and  O_8
REMARK    2  A    between atoms: C_6  and  O_18
REMARK    3  A    between atoms: O_8  and  C_13
REMARK    4  A    between atoms: O_18  and  C_20
REMARK    5  A    between atoms: C_19  and  N_25
REMARK                            x       y       z     vdW  Elec       q    Type
REMARK                         _______ _______ _______ _____ _____    ______ ____
ROOT
ATOM      1  N   UNL     1      33.322 -23.217 -16.096  0.00  0.00    -0.277 NA
ATOM      2  N   UNL     1      35.674 -22.839 -16.466  0.00  0.00    -0.319 NA
ATOM      3  C   UNL     1      33.558 -23.080 -14.781  0.00  0.00    +0.278 C 
ATOM      4  C   UNL     1      34.790 -22.829 -14.227  0.00  0.00    +0.156 C 
ATOM      5  C   UNL     1      35.827 -22.716 -15.131  0.00  0.00    +0.113 C 
ATOM      6  C   UNL     1      34.414 -23.086 -16.874  0.00  0.00    +0.317 C 
ATOM      7  C   UNL     1      37.207 -22.444 -14.636  0.00  0.00    +0.063 C 
ENDROOT
BRANCH   3   8
ATOM      8  O   UNL     1      32.465 -23.204 -13.942  0.00  0.00    -0.429 OA
BRANCH   8  13
ATOM      9  O   UNL     1      28.616 -22.069 -16.616  0.00  0.00    -0.435 OA
ATOM     10  O   UNL     1      27.634 -24.244 -16.279  0.00  0.00    -0.435 OA
ATOM     11  C   UNL     1      29.392 -22.872 -15.839  0.00  0.00    +0.179 C 
ATOM     12  C   UNL     1      28.832 -24.114 -15.647  0.00  0.00    +0.177 C 
ATOM     13  C   UNL     1      31.261 -23.494 -14.511  0.00  0.00    +0.151 C 
ATOM     14  C   UNL     1      30.608 -22.531 -15.284  0.00  0.00    +0.078 C 
ATOM     15  C   UNL     1      29.456 -25.084 -14.888  0.00  0.00    +0.043 C 
ATOM     16  C   UNL     1      30.688 -24.764 -14.315  0.00  0.00    +0.041 C 
ATOM     17  C   UNL     1      27.504 -22.946 -16.892  0.00  0.00    +0.429 C 
ENDBRANCH   8  13
ENDBRANCH   3   8
BRANCH   6  18
ATOM     18  O   UNL     1      34.222 -23.221 -18.229  0.00  0.00    -0.375 OA
BRANCH  18  20
ATOM     19  C   UNL     1      34.769 -19.836 -20.567  0.00  0.00    +0.057 C 
ATOM     20  C   UNL     1      34.404 -22.097 -19.005  0.00  0.00    +0.161 C 
ATOM     21  C   UNL     1      33.481 -20.248 -20.228  0.00  0.00    +0.018 C 
ATOM     22  C   UNL     1      35.874 -20.561 -20.121  0.00  0.00    +0.018 C 
ATOM     23  C   UNL     1      33.296 -21.385 -19.441  0.00  0.00    +0.040 C 
ATOM     24  C   UNL     1      35.691 -21.698 -19.335  0.00  0.00    +0.040 C 
BRANCH  19  25
ATOM     25  N   UNL     1      34.951 -18.708 -21.347  0.00  0.00    -0.246 N 
ATOM     26  N   UNL     1      35.037 -17.411 -23.159  0.00  0.00    -0.224 NA
ATOM     27  C   UNL     1      35.326 -17.462 -20.911  0.00  0.00    +0.092 C 
ATOM     28  C   UNL     1      34.791 -18.621 -22.708  0.00  0.00    +0.172 C 
ATOM     29  C   UNL     1      35.371 -16.685 -22.044  0.00  0.00    +0.117 C 
ENDBRANCH  19  25
ENDBRANCH  18  20
ENDBRANCH   6  18
TORSDOF 5
ENDMDL
MODEL 2
REMARK VINA RESULT:     -11.8      2.694      5.288
REMARK  Name = 10157080
REMARK  5 active torsions:
REMARK  status: ('A' for Active; 'I' for Inactive)
REMARK    1  A    between atoms: C_3  and  O_8
REMARK    2  A    between atoms: C_6  and  O_18
REMARK    3  A    between atoms: O_8  and  C_13
REMARK    4  A    between atoms: O_18  and  C_20
REMARK    5  A    between atoms: C_19  and  N_25
REMARK                            x       y       z     vdW  Elec       q    Type
REMARK                         _______ _______ _______ _____ _____    ______ ____
ROOT
ATOM      1  N   UNL     1      34.664 -23.068 -16.252  0.00  0.00    -0.277 NA
ATOM      2  N   UNL     1      32.268 -23.289 -16.395  0.00  0.00    -0.319 NA
ATOM      3  C   UNL     1      34.522 -22.923 -14.925  0.00  0.00    +0.278 C 
ATOM      4  C   UNL     1      33.322 -22.945 -14.258  0.00  0.00    +0.156 C 
ATOM      5  C   UNL     1      32.212 -23.135 -15.056  0.00  0.00    +0.113 C 
ATOM      6  C   UNL     1      33.508 -23.245 -16.920  0.00  0.00    +0.317 C 
ATOM      7  C   UNL     1      30.857 -23.176 -14.432  0.00  0.00    +0.063 C 
ENDROOT
BRANCH   3   8
ATOM      8  O   UNL     1      35.684 -22.740 -14.196  0.00  0.00    -0.429 OA
BRANCH   8  13
ATOM      9  O   UNL     1      37.288 -27.243 -13.560  0.00  0.00    -0.435 OA
ATOM     10  O   UNL     1      37.404 -26.956 -11.170  0.00  0.00    -0.435 OA
ATOM     11  C   UNL     1      36.896 -26.000 -13.169  0.00  0.00    +0.179 C 
ATOM     12  C   UNL     1      36.963 -25.836 -11.805  0.00  0.00    +0.177 C 
ATOM     13  C   UNL     1      36.108 -23.772 -13.414  0.00  0.00    +0.151 C 
ATOM     14  C   UNL     1      36.473 -24.985 -14.002  0.00  0.00    +0.078 C 
ATOM     15  C   UNL     1      36.608 -24.648 -11.198  0.00  0.00    +0.043 C 
ATOM     16  C   UNL     1      36.176 -23.604 -12.019  0.00  0.00    +0.041 C 
ATOM     17  C   UNL     1      37.609 -27.843 -12.288  0.00  0.00    +0.429 C 
ENDBRANCH   8  13
ENDBRANCH   3   8
BRANCH   6  18
ATOM     18  O   UNL     1      33.603 -23.395 -18.284  0.00  0.00    -0.375 OA
BRANCH  18  20
ATOM     19  C   UNL     1      34.576 -20.023 -20.498  0.00  0.00    +0.057 C 
ATOM     20  C   UNL     1      33.927 -22.275 -19.019  0.00  0.00    +0.161 C 
ATOM     21  C   UNL     1      33.243 -20.292 -20.187  0.00  0.00    +0.018 C 
ATOM     22  C   UNL     1      35.582 -20.886 -20.065  0.00  0.00    +0.018 C 
ATOM     23  C   UNL     1      32.916 -21.425 -19.442  0.00  0.00    +0.040 C 
ATOM     24  C   UNL     1      35.256 -22.019 -19.320  0.00  0.00    +0.040 C 
BRANCH  19  25
ATOM     25  N   UNL     1      34.900 -18.899 -21.237  0.00  0.00    -0.246 N 
ATOM     26  N   UNL     1      35.586 -16.829 -21.701  0.00  0.00    -0.224 NA
ATOM     27  C   UNL     1      34.816 -18.762 -22.599  0.00  0.00    +0.092 C 
ATOM     28  C   UNL     1      35.368 -17.705 -20.745  0.00  0.00    +0.172 C 
ATOM     29  C   UNL     1      35.243 -17.481 -22.858  0.00  0.00    +0.117 C 
ENDBRANCH  19  25
ENDBRANCH  18  20
ENDBRANCH   6  18
TORSDOF 5
ENDMDL
MODEL 3
REMARK VINA RESULT:     -11.6      4.263      8.408
REMARK  Name = 10157080
REMARK  5 active torsions:
REMARK  status: ('A' for Active; 'I' for Inactive)
REMARK    1  A    between atoms: C_3  and  O_8
REMARK    2  A    between atoms: C_6  and  O_18
REMARK    3  A    between atoms: O_8  and  C_13
REMARK    4  A    between atoms: O_18  and  C_20
REMARK    5  A    between atoms: C_19  and  N_25
REMARK                            x       y       z     vdW  Elec       q    Type
REMARK                         _______ _______ _______ _____ _____    ______ ____
ROOT
ATOM      1  N   UNL     1      35.362 -17.504 -22.943  0.00  0.00    -0.277 NA
ATOM      2  N   UNL     1      33.742 -17.466 -24.728  0.00  0.00    -0.319 NA
ATOM      3  C   UNL     1      34.955 -18.754 -22.669  0.00  0.00    +0.278 C 
ATOM      4  C   UNL     1      33.972 -19.427 -23.351  0.00  0.00    +0.156 C 
ATOM      5  C   UNL     1      33.391 -18.723 -24.387  0.00  0.00    +0.113 C 
ATOM      6  C   UNL     1      34.719 -16.924 -23.975  0.00  0.00    +0.317 C 
ATOM      7  C   UNL     1      32.312 -19.361 -25.195  0.00  0.00    +0.063 C 
ENDROOT
BRANCH   3   8
ATOM      8  O   UNL     1      35.589 -19.392 -21.617  0.00  0.00    -0.429 OA
BRANCH   8  13
ATOM      9  O   UNL     1      34.963 -22.500 -17.984  0.00  0.00    -0.435 OA
ATOM     10  O   UNL     1      32.577 -22.161 -17.992  0.00  0.00    -0.435 OA
ATOM     11  C   UNL     1      34.571 -21.609 -18.935  0.00  0.00    +0.179 C 
ATOM     12  C   UNL     1      33.208 -21.416 -18.939  0.00  0.00    +0.177 C 
ATOM     13  C   UNL     1      34.811 -20.068 -20.726  0.00  0.00    +0.151 C 
ATOM     14  C   UNL     1      35.400 -20.949 -19.817  0.00  0.00    +0.078 C 
ATOM     15  C   UNL     1      32.600 -20.552 -19.827  0.00  0.00    +0.043 C 
ATOM     16  C   UNL     1      33.418 -19.870 -20.731  0.00  0.00    +0.041 C 
ATOM     17  C   UNL     1      33.695 -22.845 -17.390  0.00  0.00    +0.429 C 
ENDBRANCH   8  13
ENDBRANCH   3   8
BRANCH   6  18
ATOM     18  O   UNL     1      35.099 -15.641 -24.292  0.00  0.00    -0.375 OA
BRANCH  18  20
ATOM     19  C   UNL     1      33.043 -12.546 -22.444  0.00  0.00    +0.057 C 
ATOM     20  C   UNL     1      34.417 -14.613 -23.679  0.00  0.00    +0.161 C 
ATOM     21  C   UNL     1      33.735 -13.481 -21.674  0.00  0.00    +0.018 C 
ATOM     22  C   UNL     1      33.043 -12.650 -23.834  0.00  0.00    +0.018 C 
ATOM     23  C   UNL     1      34.426 -14.522 -22.295  0.00  0.00    +0.040 C 
ATOM     24  C   UNL     1      33.735 -13.690 -24.456  0.00  0.00    +0.040 C 
BRANCH  19  25
ATOM     25  N   UNL     1      32.357 -11.515 -21.827  0.00  0.00    -0.246 N 
ATOM     26  N   UNL     1      31.543  -9.472 -21.460  0.00  0.00    -0.224 NA
ATOM     27  C   UNL     1      31.633 -11.593 -20.664  0.00  0.00    +0.092 C 
ATOM     28  C   UNL     1      32.270 -10.216 -22.264  0.00  0.00    +0.172 C 
ATOM     29  C   UNL     1      31.144 -10.324 -20.461  0.00  0.00    +0.117 C 
ENDBRANCH  19  25
ENDBRANCH  18  20
ENDBRANCH   6  18
TORSDOF 5
ENDMDL
MODEL 4
REMARK VINA RESULT:     -11.4      3.378      8.309
REMARK  Name = 10157080
REMARK  5 active torsions:
REMARK  status: ('A' for Active; 'I' for Inactive)
REMARK    1  A    between atoms: C_3  and  O_8
REMARK    2  A    between atoms: C_6  and  O_18
REMARK    3  A    between atoms: O_8  and  C_13
REMARK    4  A    between atoms: O_18  and  C_20
REMARK    5  A    between atoms: C_19  and  N_25
REMARK                            x       y       z     vdW  Elec       q    Type
REMARK                         _______ _______ _______ _____ _____    ______ ____
ROOT
ATOM      1  N   UNL     1      34.493 -23.229 -16.171  0.00  0.00    -0.277 NA
ATOM      2  N   UNL     1      32.964 -23.056 -14.316  0.00  0.00    -0.319 NA
ATOM      3  C   UNL     1      33.426 -23.232 -16.986  0.00  0.00    +0.278 C 
ATOM      4  C   UNL     1      32.120 -23.154 -16.568  0.00  0.00    +0.156 C 
ATOM      5  C   UNL     1      31.946 -23.065 -15.202  0.00  0.00    +0.113 C 
ATOM      6  C   UNL     1      34.193 -23.139 -14.862  0.00  0.00    +0.317 C 
ATOM      7  C   UNL     1      30.567 -22.975 -14.640  0.00  0.00    +0.063 C 
ENDROOT
BRANCH   3   8
ATOM      8  O   UNL     1      33.685 -23.320 -18.343  0.00  0.00    -0.429 OA
BRANCH   8  13
ATOM      9  O   UNL     1      36.781 -19.993 -19.955  0.00  0.00    -0.435 OA
ATOM     10  O   UNL     1      35.010 -18.715 -20.974  0.00  0.00    -0.435 OA
ATOM     11  C   UNL     1      35.560 -20.564 -19.771  0.00  0.00    +0.179 C 
ATOM     12  C   UNL     1      34.549 -19.835 -20.353  0.00  0.00    +0.177 C 
ATOM     13  C   UNL     1      33.983 -22.167 -19.005  0.00  0.00    +0.151 C 
ATOM     14  C   UNL     1      35.309 -21.737 -19.089  0.00  0.00    +0.078 C 
ATOM     15  C   UNL     1      33.230 -20.237 -20.285  0.00  0.00    +0.043 C 
ATOM     16  C   UNL     1      32.949 -21.421 -19.600  0.00  0.00    +0.041 C 
ATOM     17  C   UNL     1      36.425 -18.822 -20.718  0.00  0.00    +0.429 C 
ENDBRANCH   8  13
ENDBRANCH   3   8
BRANCH   6  18
ATOM     18  O   UNL     1      35.255 -23.136 -13.988  0.00  0.00    -0.375 OA
BRANCH  18  20
ATOM     19  C   UNL     1      38.133 -26.084 -14.491  0.00  0.00    +0.057 C 
ATOM     20  C   UNL     1      36.210 -24.115 -14.154  0.00  0.00    +0.161 C 
ATOM     21  C   UNL     1      38.520 -24.760 -14.286  0.00  0.00    +0.018 C 
ATOM     22  C   UNL     1      36.779 -26.417 -14.526  0.00  0.00    +0.018 C 
ATOM     23  C   UNL     1      37.553 -23.768 -14.116  0.00  0.00    +0.040 C 
ATOM     24  C   UNL     1      35.812 -25.428 -14.357  0.00  0.00    +0.040 C 
BRANCH  19  25
ATOM     25  N   UNL     1      39.092 -27.066 -14.660  0.00  0.00    -0.246 N 
ATOM     26  N   UNL     1      40.946 -28.075 -15.375  0.00  0.00    -0.224 NA
ATOM     27  C   UNL     1      39.087 -28.320 -14.103  0.00  0.00    +0.092 C 
ATOM     28  C   UNL     1      40.233 -26.972 -15.417  0.00  0.00    +0.172 C 
ATOM     29  C   UNL     1      40.237 -28.919 -14.559  0.00  0.00    +0.117 C 
ENDBRANCH  19  25
ENDBRANCH  18  20
ENDBRANCH   6  18
TORSDOF 5
ENDMDL
MODEL 5
REMARK VINA RESULT:     -11.2      4.448      9.631
REMARK  Name = 10157080
REMARK  5 active torsions:
REMARK  status: ('A' for Active; 'I' for Inactive)
REMARK    1  A    between atoms: C_3  and  O_8
REMARK    2  A    between atoms: C_6  and  O_18
REMARK    3  A    between atoms: O_8  and  C_13
REMARK    4  A    between atoms: O_18  and  C_20
REMARK    5  A    between atoms: C_19  and  N_25
REMARK                            x       y       z     vdW  Elec       q    Type
REMARK                         _______ _______ _______ _____ _____    ______ ____
ROOT
ATOM      1  N   UNL     1      35.825 -17.338 -22.191  0.00  0.00    -0.277 NA
ATOM      2  N   UNL     1      34.660 -19.269 -23.044  0.00  0.00    -0.319 NA
ATOM      3  C   UNL     1      35.113 -16.591 -23.051  0.00  0.00    +0.278 C 
ATOM      4  C   UNL     1      34.176 -17.082 -23.927  0.00  0.00    +0.156 C 
ATOM      5  C   UNL     1      33.988 -18.449 -23.878  0.00  0.00    +0.113 C 
ATOM      6  C   UNL     1      35.551 -18.656 -22.240  0.00  0.00    +0.317 C 
ATOM      7  C   UNL     1      32.992 -19.086 -24.787  0.00  0.00    +0.063 C 
ENDROOT
BRANCH   3   8
ATOM      8  O   UNL     1      35.359 -15.230 -23.035  0.00  0.00    -0.429 OA
BRANCH   8  13
ATOM      9  O   UNL     1      32.364 -11.466 -22.686  0.00  0.00    -0.435 OA
ATOM     10  O   UNL     1      31.848 -11.981 -20.389  0.00  0.00    -0.435 OA
ATOM     11  C   UNL     1      33.026 -12.569 -22.242  0.00  0.00    +0.179 C 
ATOM     12  C   UNL     1      32.731 -12.863 -20.930  0.00  0.00    +0.177 C 
ATOM     13  C   UNL     1      34.488 -14.439 -22.348  0.00  0.00    +0.151 C 
ATOM     14  C   UNL     1      33.902 -13.339 -22.979  0.00  0.00    +0.078 C 
ATOM     15  C   UNL     1      33.297 -13.943 -20.283  0.00  0.00    +0.043 C 
ATOM     16  C   UNL     1      34.187 -14.739 -21.007  0.00  0.00    +0.041 C 
ATOM     17  C   UNL     1      31.619 -11.099 -21.507  0.00  0.00    +0.429 C 
ENDBRANCH   8  13
ENDBRANCH   3   8
BRANCH   6  18
ATOM     18  O   UNL     1      36.258 -19.463 -21.379  0.00  0.00    -0.375 OA
BRANCH  18  20
ATOM     19  C   UNL     1      34.081 -21.585 -18.553  0.00  0.00    +0.057 C 
ATOM     20  C   UNL     1      35.535 -20.167 -20.441  0.00  0.00    +0.161 C 
ATOM     21  C   UNL     1      35.473 -21.680 -18.577  0.00  0.00    +0.018 C 
ATOM     22  C   UNL     1      33.422 -20.776 -19.478  0.00  0.00    +0.018 C 
ATOM     23  C   UNL     1      36.205 -20.966 -19.527  0.00  0.00    +0.040 C 
ATOM     24  C   UNL     1      34.152 -20.062 -20.428  0.00  0.00    +0.040 C 
BRANCH  19  25
ATOM     25  N   UNL     1      33.356 -22.293 -17.612  0.00  0.00    -0.246 N 
ATOM     26  N   UNL     1      32.919 -23.658 -15.905  0.00  0.00    -0.224 NA
ATOM     27  C   UNL     1      31.993 -22.290 -17.457  0.00  0.00    +0.092 C 
ATOM     28  C   UNL     1      33.864 -23.133 -16.652  0.00  0.00    +0.172 C 
ATOM     29  C   UNL     1      31.751 -23.137 -16.401  0.00  0.00    +0.117 C 
ENDBRANCH  19  25
ENDBRANCH  18  20
ENDBRANCH   6  18
TORSDOF 5
ENDMDL
MODEL 6
REMARK VINA RESULT:     -10.7      7.175     12.343
REMARK  Name = 10157080
REMARK  5 active torsions:
REMARK  status: ('A' for Active; 'I' for Inactive)
REMARK    1  A    between atoms: C_3  and  O_8
REMARK    2  A    between atoms: C_6  and  O_18
REMARK    3  A    between atoms: O_8  and  C_13
REMARK    4  A    between atoms: O_18  and  C_20
REMARK    5  A    between atoms: C_19  and  N_25
REMARK                            x       y       z     vdW  Elec       q    Type
REMARK                         _______ _______ _______ _____ _____    ______ ____
ROOT
ATOM      1  N   UNL     1      34.310 -13.402 -24.077  0.00  0.00    -0.277 NA
ATOM      2  N   UNL     1      33.802 -14.528 -22.007  0.00  0.00    -0.319 NA
ATOM      3  C   UNL     1      33.637 -12.339 -23.606  0.00  0.00    +0.278 C 
ATOM      4  C   UNL     1      33.026 -12.279 -22.378  0.00  0.00    +0.156 C 
ATOM      5  C   UNL     1      33.143 -13.419 -21.609  0.00  0.00    +0.113 C 
ATOM      6  C   UNL     1      34.353 -14.451 -23.234  0.00  0.00    +0.317 C 
ATOM      7  C   UNL     1      32.517 -13.461 -20.256  0.00  0.00    +0.063 C 
ENDROOT
BRANCH   3   8
ATOM      8  O   UNL     1      33.568 -11.234 -24.437  0.00  0.00    -0.429 OA
BRANCH   8  13
ATOM      9  O   UNL     1      31.488  -7.573 -22.086  0.00  0.00    -0.435 OA
ATOM     10  O   UNL     1      33.540  -6.309 -22.066  0.00  0.00    -0.435 OA
ATOM     11  C   UNL     1      32.509  -8.235 -22.695  0.00  0.00    +0.179 C 
ATOM     12  C   UNL     1      33.681  -7.513 -22.683  0.00  0.00    +0.177 C 
ATOM     13  C   UNL     1      33.594 -10.003 -23.854  0.00  0.00    +0.151 C 
ATOM     14  C   UNL     1      32.434  -9.485 -23.274  0.00  0.00    +0.078 C 
ATOM     15  C   UNL     1      34.841  -8.001 -23.250  0.00  0.00    +0.043 C 
ATOM     16  C   UNL     1      34.791  -9.265 -23.842  0.00  0.00    +0.041 C 
ATOM     17  C   UNL     1      32.149  -6.354 -21.689  0.00  0.00    +0.429 C 
ENDBRANCH   8  13
ENDBRANCH   3   8
BRANCH   6  18
ATOM     18  O   UNL     1      35.029 -15.565 -23.674  0.00  0.00    -0.375 OA
BRANCH  18  20
ATOM     19  C   UNL     1      35.031 -18.886 -21.186  0.00  0.00    +0.057 C 
ATOM     20  C   UNL     1      35.030 -16.668 -22.848  0.00  0.00    +0.161 C 
ATOM     21  C   UNL     1      34.585 -19.002 -22.502  0.00  0.00    +0.018 C 
ATOM     22  C   UNL     1      35.477 -17.655 -20.706  0.00  0.00    +0.018 C 
ATOM     23  C   UNL     1      34.584 -17.886 -23.339  0.00  0.00    +0.040 C 
ATOM     24  C   UNL     1      35.477 -16.539 -21.542  0.00  0.00    +0.040 C 
BRANCH  19  25
ATOM     25  N   UNL     1      35.031 -19.993 -20.356  0.00  0.00    -0.246 N 
ATOM     26  N   UNL     1      35.807 -21.653 -19.087  0.00  0.00    -0.224 NA
ATOM     27  C   UNL     1      33.930 -20.664 -19.886  0.00  0.00    +0.092 C 
ATOM     28  C   UNL     1      36.134 -20.631 -19.845  0.00  0.00    +0.172 C 
ATOM     29  C   UNL     1      34.435 -21.680 -19.109  0.00  0.00    +0.117 C 
ENDBRANCH  19  25
ENDBRANCH  18  20
ENDBRANCH   6  18
TORSDOF 5
ENDMDL
MODEL 7
REMARK VINA RESULT:     -10.7      7.232     12.053
REMARK  Name = 10157080
REMARK  5 active torsions:
REMARK  status: ('A' for Active; 'I' for Inactive)
REMARK    1  A    between atoms: C_3  and  O_8
REMARK    2  A    between atoms: C_6  and  O_18
REMARK    3  A    between atoms: O_8  and  C_13
REMARK    4  A    between atoms: O_18  and  C_20
REMARK    5  A    between atoms: C_19  and  N_25
REMARK                            x       y       z     vdW  Elec       q    Type
REMARK                         _______ _______ _______ _____ _____    ______ ____
ROOT
ATOM      1  N   UNL     1      32.715 -13.332 -23.270  0.00  0.00    -0.277 NA
ATOM      2  N   UNL     1      34.318 -12.469 -24.851  0.00  0.00    -0.319 NA
ATOM      3  C   UNL     1      32.584 -12.083 -22.797  0.00  0.00    +0.278 C 
ATOM      4  C   UNL     1      33.263 -10.988 -23.273  0.00  0.00    +0.156 C 
ATOM      5  C   UNL     1      34.129 -11.245 -24.317  0.00  0.00    +0.113 C 
ATOM      6  C   UNL     1      33.590 -13.453 -24.287  0.00  0.00    +0.317 C 
ATOM      7  C   UNL     1      34.916 -10.125 -24.911  0.00  0.00    +0.063 C 
ENDROOT
BRANCH   3   8
ATOM      8  O   UNL     1      31.693 -11.909 -21.752  0.00  0.00    -0.429 OA
BRANCH   8  13
ATOM      9  O   UNL     1      32.033  -7.128 -21.227  0.00  0.00    -0.435 OA
ATOM     10  O   UNL     1      32.190  -7.316 -18.829  0.00  0.00    -0.435 OA
ATOM     11  C   UNL     1      31.981  -8.420 -20.805  0.00  0.00    +0.179 C 
ATOM     12  C   UNL     1      32.070  -8.528 -19.436  0.00  0.00    +0.177 C 
ATOM     13  C   UNL     1      31.819 -10.783 -20.995  0.00  0.00    +0.151 C 
ATOM     14  C   UNL     1      31.853  -9.531 -21.614  0.00  0.00    +0.078 C 
ATOM     15  C   UNL     1      32.039  -9.753 -18.800  0.00  0.00    +0.043 C 
ATOM     16  C   UNL     1      31.910 -10.893 -19.596  0.00  0.00    +0.041 C 
ATOM     17  C   UNL     1      32.165  -6.434 -19.969  0.00  0.00    +0.429 C 
ENDBRANCH   8  13
ENDBRANCH   3   8
BRANCH   6  18
ATOM     18  O   UNL     1      33.760 -14.716 -24.804  0.00  0.00    -0.375 OA
BRANCH  18  20
ATOM     19  C   UNL     1      35.111 -17.658 -22.207  0.00  0.00    +0.057 C 
ATOM     20  C   UNL     1      34.208 -15.693 -23.942  0.00  0.00    +0.161 C 
ATOM     21  C   UNL     1      35.235 -16.313 -21.861  0.00  0.00    +0.018 C 
ATOM     22  C   UNL     1      34.533 -18.015 -23.425  0.00  0.00    +0.018 C 
ATOM     23  C   UNL     1      34.781 -15.324 -22.734  0.00  0.00    +0.040 C 
ATOM     24  C   UNL     1      34.078 -17.027 -24.298  0.00  0.00    +0.040 C 
BRANCH  19  25
ATOM     25  N   UNL     1      35.562 -18.639 -21.342  0.00  0.00    -0.246 N 
ATOM     26  N   UNL     1      36.923 -19.751 -19.970  0.00  0.00    -0.224 NA
ATOM     27  C   UNL     1      34.864 -19.742 -20.919  0.00  0.00    +0.092 C 
ATOM     28  C   UNL     1      36.795 -18.694 -20.741  0.00  0.00    +0.172 C 
ATOM     29  C   UNL     1      35.723 -20.408 -20.077  0.00  0.00    +0.117 C 
ENDBRANCH  19  25
ENDBRANCH  18  20
ENDBRANCH   6  18
TORSDOF 5
ENDMDL
MODEL 8
REMARK VINA RESULT:     -10.6     10.035     15.175
REMARK  Name = 10157080
REMARK  5 active torsions:
REMARK  status: ('A' for Active; 'I' for Inactive)
REMARK    1  A    between atoms: C_3  and  O_8
REMARK    2  A    between atoms: C_6  and  O_18
REMARK    3  A    between atoms: O_8  and  C_13
REMARK    4  A    between atoms: O_18  and  C_20
REMARK    5  A    between atoms: C_19  and  N_25
REMARK                            x       y       z     vdW  Elec       q    Type
REMARK                         _______ _______ _______ _____ _____    ______ ____
ROOT
ATOM      1  N   UNL     1      33.731  -9.080 -23.268  0.00  0.00    -0.277 NA
ATOM      2  N   UNL     1      32.187 -10.732 -22.433  0.00  0.00    -0.319 NA
ATOM      3  C   UNL     1      33.420  -8.323 -22.203  0.00  0.00    +0.278 C 
ATOM      4  C   UNL     1      32.524  -8.677 -21.224  0.00  0.00    +0.156 C 
ATOM      5  C   UNL     1      31.929  -9.911 -21.393  0.00  0.00    +0.113 C 
ATOM      6  C   UNL     1      33.085 -10.260 -23.320  0.00  0.00    +0.317 C 
ATOM      7  C   UNL     1      30.940 -10.394 -20.387  0.00  0.00    +0.063 C 
ENDROOT
BRANCH   3   8
ATOM      8  O   UNL     1      34.062  -7.101 -22.105  0.00  0.00    -0.429 OA
BRANCH   8  13
ATOM      9  O   UNL     1      31.032  -3.748 -23.787  0.00  0.00    -0.435 OA
ATOM     10  O   UNL     1      32.527  -3.179 -25.590  0.00  0.00    -0.435 OA
ATOM     11  C   UNL     1      32.171  -4.491 -23.768  0.00  0.00    +0.179 C 
ATOM     12  C   UNL     1      33.025  -4.166 -24.797  0.00  0.00    +0.177 C 
ATOM     13  C   UNL     1      33.708  -6.128 -22.991  0.00  0.00    +0.151 C 
ATOM     14  C   UNL     1      32.485  -5.469 -22.847  0.00  0.00    +0.078 C 
ATOM     15  C   UNL     1      34.239  -4.802 -24.962  0.00  0.00    +0.043 C 
ATOM     16  C   UNL     1      34.581  -5.796 -24.043  0.00  0.00    +0.041 C 
ATOM     17  C   UNL     1      31.264  -2.919 -24.944  0.00  0.00    +0.429 C 
ENDBRANCH   8  13
ENDBRANCH   3   8
BRANCH   6  18
ATOM     18  O   UNL     1      33.370 -11.069 -24.395  0.00  0.00    -0.375 OA
BRANCH  18  20
ATOM     19  C   UNL     1      34.264 -15.041 -23.592  0.00  0.00    +0.057 C 
ATOM     20  C   UNL     1      33.666 -12.388 -24.128  0.00  0.00    +0.161 C 
ATOM     21  C   UNL     1      34.480 -14.068 -22.617  0.00  0.00    +0.018 C 
ATOM     22  C   UNL     1      33.748 -14.681 -24.836  0.00  0.00    +0.018 C 
ATOM     23  C   UNL     1      34.179 -12.732 -22.886  0.00  0.00    +0.040 C 
ATOM     24  C   UNL     1      33.446 -13.346 -25.106  0.00  0.00    +0.040 C 
BRANCH  19  25
ATOM     25  N   UNL     1      34.563 -16.365 -23.324  0.00  0.00    -0.246 N 
ATOM     26  N   UNL     1      34.637 -18.581 -23.562  0.00  0.00    -0.224 NA
ATOM     27  C   UNL     1      35.279 -16.843 -22.255  0.00  0.00    +0.092 C 
ATOM     28  C   UNL     1      34.200 -17.453 -24.079  0.00  0.00    +0.172 C 
ATOM     29  C   UNL     1      35.309 -18.207 -22.426  0.00  0.00    +0.117 C 
ENDBRANCH  19  25
ENDBRANCH  18  20
ENDBRANCH   6  18
TORSDOF 5
ENDMDL
MODEL 9
REMARK VINA RESULT:     -10.5      2.422      5.248
REMARK  Name = 10157080
REMARK  5 active torsions:
REMARK  status: ('A' for Active; 'I' for Inactive)
REMARK    1  A    between atoms: C_3  and  O_8
REMARK    2  A    between atoms: C_6  and  O_18
REMARK    3  A    between atoms: O_8  and  C_13
REMARK    4  A    between atoms: O_18  and  C_20
REMARK    5  A    between atoms: C_19  and  N_25
REMARK                            x       y       z     vdW  Elec       q    Type
REMARK                         _______ _______ _______ _____ _____    ______ ____
ROOT
ATOM      1  N   UNL     1      34.592 -23.407 -16.617  0.00  0.00    -0.277 NA
ATOM      2  N   UNL     1      32.247 -22.971 -16.268  0.00  0.00    -0.319 NA
ATOM      3  C   UNL     1      34.747 -23.367 -15.284  0.00  0.00    +0.278 C 
ATOM      4  C   UNL     1      33.735 -23.139 -14.383  0.00  0.00    +0.156 C 
ATOM      5  C   UNL     1      32.487 -22.945 -14.940  0.00  0.00    +0.113 C 
ATOM      6  C   UNL     1      33.329 -23.203 -17.037  0.00  0.00    +0.317 C 
ATOM      7  C   UNL     1      31.317 -22.690 -14.052  0.00  0.00    +0.063 C 
ENDROOT
BRANCH   3   8
ATOM      8  O   UNL     1      36.029 -23.574 -14.804  0.00  0.00    -0.429 OA
BRANCH   8  13
ATOM      9  O   UNL     1      34.973 -25.165 -10.376  0.00  0.00    -0.435 OA
ATOM     10  O   UNL     1      36.633 -23.734  -9.374  0.00  0.00    -0.435 OA
ATOM     11  C   UNL     1      35.635 -24.416 -11.299  0.00  0.00    +0.179 C 
ATOM     12  C   UNL     1      36.583 -23.599 -10.727  0.00  0.00    +0.177 C 
ATOM     13  C   UNL     1      36.203 -23.590 -13.453  0.00  0.00    +0.151 C 
ATOM     14  C   UNL     1      35.421 -24.435 -12.662  0.00  0.00    +0.078 C 
ATOM     15  C   UNL     1      37.369 -22.755 -11.485  0.00  0.00    +0.043 C 
ATOM     16  C   UNL     1      37.172 -22.755 -12.868  0.00  0.00    +0.041 C 
ATOM     17  C   UNL     1      35.611 -24.728  -9.159  0.00  0.00    +0.429 C 
ENDBRANCH   8  13
ENDBRANCH   3   8
BRANCH   6  18
ATOM     18  O   UNL     1      33.121 -23.232 -18.396  0.00  0.00    -0.375 OA
BRANCH  18  20
ATOM     19  C   UNL     1      34.437 -19.960 -20.583  0.00  0.00    +0.057 C 
ATOM     20  C   UNL     1      33.558 -22.146 -19.122  0.00  0.00    +0.161 C 
ATOM     21  C   UNL     1      35.361 -20.856 -20.046  0.00  0.00    +0.018 C 
ATOM     22  C   UNL     1      33.072 -20.163 -20.386  0.00  0.00    +0.018 C 
ATOM     23  C   UNL     1      34.919 -21.957 -19.311  0.00  0.00    +0.040 C 
ATOM     24  C   UNL     1      32.629 -21.263 -19.652  0.00  0.00    +0.040 C 
BRANCH  19  25
ATOM     25  N   UNL     1      34.876 -18.868 -21.311  0.00  0.00    -0.246 N 
ATOM     26  N   UNL     1      35.775 -16.877 -21.756  0.00  0.00    -0.224 NA
ATOM     27  C   UNL     1      34.805 -18.710 -22.672  0.00  0.00    +0.092 C 
ATOM     28  C   UNL     1      35.468 -17.736 -20.809  0.00  0.00    +0.172 C 
ATOM     29  C   UNL     1      35.363 -17.478 -22.918  0.00  0.00    +0.117 C 
ENDBRANCH  19  25
ENDBRANCH  18  20
ENDBRANCH   6  18
TORSDOF 5
ENDMDL
