MODEL 1
REMARK VINA RESULT:     -11.6      0.000      0.000
REMARK  Name = 445756
REMARK  6 active torsions:
REMARK  status: ('A' for Active; 'I' for Inactive)
REMARK    1  A    between atoms: C_3  and  C_11
REMARK    2  A    between atoms: C_6  and  C_22
REMARK    3  A    between atoms: C_11  and  N_12
REMARK    4  A    between atoms: C_22  and  N_23
REMARK    5  A    between atoms: N_23  and  C_25
REMARK    6  A    between atoms: C_30  and  C_33
REMARK                            x       y       z     vdW  Elec       q    Type
REMARK                         _______ _______ _______ _____ _____    ______ ____
ROOT
ATOM      1  N   UNL     1      34.643 -22.264 -17.682  0.00  0.00    -0.261 N 
ATOM      2  N   UNL     1      36.769 -21.615 -17.689  0.00  0.00    -0.392 NA
ATOM      3  C   UNL     1      36.709 -23.040 -14.234  0.00  0.00    -0.017 C 
ATOM      4  C   UNL     1      35.136 -22.615 -16.452  0.00  0.00    +0.079 C 
ATOM      5  C   UNL     1      36.465 -22.199 -16.481  0.00  0.00    +0.128 C 
ATOM      6  C   UNL     1      35.655 -21.670 -18.384  0.00  0.00    +0.183 C 
ATOM      7  C   UNL     1      37.274 -22.413 -15.353  0.00  0.00    +0.084 C 
ATOM      8  C   UNL     1      35.373 -23.446 -14.236  0.00  0.00    -0.005 C 
ATOM      9  C   UNL     1      34.553 -23.242 -15.350  0.00  0.00    +0.017 C 
ATOM     10  C   UNL     1      33.293 -22.484 -18.150  0.00  0.00    +0.120 C 
ENDROOT
BRANCH   3  11
ATOM     11  C   UNL     1      37.551 -23.278 -13.024  0.00  0.00    +0.120 C 
BRANCH  11  12
ATOM     12  N   UNL     1      37.466 -24.669 -12.568  0.00  0.00    -0.260 N 
ATOM     13  N   UNL     1      36.896 -26.404 -11.335  0.00  0.00    -0.394 NA
ATOM     14  C   UNL     1      38.067 -25.730 -13.171  0.00  0.00    +0.079 C 
ATOM     15  C   UNL     1      36.781 -25.103 -11.483  0.00  0.00    +0.164 C 
ATOM     16  C   UNL     1      37.694 -26.813 -12.378  0.00  0.00    +0.128 C 
ATOM     17  C   UNL     1      38.877 -25.850 -14.300  0.00  0.00    +0.017 C 
ATOM     18  C   UNL     1      36.013 -24.196 -10.605  0.00  0.00    +0.084 C 
ATOM     19  C   UNL     1      38.148 -28.098 -12.719  0.00  0.00    +0.086 C 
ATOM     20  C   UNL     1      39.320 -27.136 -14.623  0.00  0.00    -0.003 C 
ATOM     21  C   UNL     1      38.963 -28.242 -13.849  0.00  0.00    -0.019 C 
ENDBRANCH  11  12
ENDBRANCH   3  11
BRANCH   6  22
ATOM     22  C   UNL     1      35.466 -21.166 -19.760  0.00  0.00    +0.164 C 
BRANCH  22  23
ATOM     23  N   UNL     1      36.218 -19.959 -20.086  0.00  0.00    -0.326 N 
ATOM     24  H   UNL     1      37.079 -19.807 -19.633  0.00  0.00    +0.147 HD
BRANCH  23  25
ATOM     25  C   UNL     1      35.782 -19.021 -20.996  0.00  0.00    +0.045 C 
ATOM     26  C   UNL     1      35.331 -19.401 -22.279  0.00  0.00    +0.014 C 
ATOM     27  C   UNL     1      35.774 -17.646 -20.679  0.00  0.00    +0.014 C 
ATOM     28  C   UNL     1      34.892 -18.451 -23.200  0.00  0.00    +0.004 C 
ATOM     29  C   UNL     1      35.335 -16.696 -21.601  0.00  0.00    +0.004 C 
ATOM     30  C   UNL     1      34.894 -17.098 -22.861  0.00  0.00    +0.031 C 
BRANCH  30  33
ATOM     31  N   UNL     1      34.292 -14.767 -23.469  0.00  0.00    -0.343 N 
ATOM     32  N   UNL     1      34.148 -16.474 -25.059  0.00  0.00    -0.285 NA
ATOM     33  C   UNL     1      34.438 -16.107 -23.822  0.00  0.00    +0.117 C 
ATOM     34  H   UNL     1      33.981 -14.113 -24.136  0.00  0.00    +0.144 HD
ATOM     35  H   UNL     1      34.500 -14.475 -22.552  0.00  0.00    +0.144 HD
ATOM     36  H   UNL     1      33.839 -15.804 -25.711  0.00  0.00    +0.188 HD
ENDBRANCH  30  33
ENDBRANCH  23  25
ENDBRANCH  22  23
ENDBRANCH   6  22
TORSDOF 6
ENDMDL
MODEL 2
REMARK VINA RESULT:     -11.6      4.373     13.898
REMARK  Name = 445756
REMARK  6 active torsions:
REMARK  status: ('A' for Active; 'I' for Inactive)
REMARK    1  A    between atoms: C_3  and  C_11
REMARK    2  A    between atoms: C_6  and  C_22
REMARK    3  A    between atoms: C_11  and  N_12
REMARK    4  A    between atoms: C_22  and  N_23
REMARK    5  A    between atoms: N_23  and  C_25
REMARK    6  A    between atoms: C_30  and  C_33
REMARK                            x       y       z     vdW  Elec       q    Type
REMARK                         _______ _______ _______ _____ _____    ______ ____
ROOT
ATOM      1  N   UNL     1      34.851 -16.210 -22.092  0.00  0.00    -0.261 N 
ATOM      2  N   UNL     1      34.281 -16.437 -24.229  0.00  0.00    -0.392 NA
ATOM      3  C   UNL     1      33.629 -12.768 -23.942  0.00  0.00    -0.017 C 
ATOM      4  C   UNL     1      34.480 -14.957 -22.507  0.00  0.00    +0.079 C 
ATOM      5  C   UNL     1      34.129 -15.125 -23.844  0.00  0.00    +0.128 C 
ATOM      6  C   UNL     1      34.714 -17.059 -23.155  0.00  0.00    +0.183 C 
ATOM      7  C   UNL     1      33.694 -14.012 -24.583  0.00  0.00    +0.084 C 
ATOM      8  C   UNL     1      33.989 -12.631 -22.600  0.00  0.00    -0.005 C 
ATOM      9  C   UNL     1      34.425 -13.728 -21.849  0.00  0.00    +0.017 C 
ATOM     10  C   UNL     1      35.305 -16.566 -20.767  0.00  0.00    +0.120 C 
ENDROOT
BRANCH   3  11
ATOM     11  C   UNL     1      33.170 -11.571 -24.709  0.00  0.00    +0.120 C 
BRANCH  11  12
ATOM     12  N   UNL     1      33.693 -10.326 -24.138  0.00  0.00    -0.260 N 
ATOM     13  N   UNL     1      35.017  -8.590 -23.842  0.00  0.00    -0.394 NA
ATOM     14  C   UNL     1      33.132  -9.639 -23.107  0.00  0.00    +0.079 C 
ATOM     15  C   UNL     1      34.809  -9.678 -24.550  0.00  0.00    +0.164 C 
ATOM     16  C   UNL     1      33.982  -8.549 -22.938  0.00  0.00    +0.128 C 
ATOM     17  C   UNL     1      31.996  -9.854 -22.327  0.00  0.00    +0.017 C 
ATOM     18  C   UNL     1      35.655 -10.165 -25.658  0.00  0.00    +0.084 C 
ATOM     19  C   UNL     1      33.695  -7.608 -21.934  0.00  0.00    +0.086 C 
ATOM     20  C   UNL     1      31.727  -8.908 -21.332  0.00  0.00    -0.003 C 
ATOM     21  C   UNL     1      32.560  -7.804 -21.138  0.00  0.00    -0.019 C 
ENDBRANCH  11  12
ENDBRANCH   3  11
BRANCH   6  22
ATOM     22  C   UNL     1      35.029 -18.499 -23.056  0.00  0.00    +0.164 C 
BRANCH  22  23
ATOM     23  N   UNL     1      34.056 -19.298 -22.321  0.00  0.00    -0.326 N 
ATOM     24  H   UNL     1      33.135 -19.351 -22.668  0.00  0.00    +0.147 HD
BRANCH  23  25
ATOM     25  C   UNL     1      34.359 -19.982 -21.163  0.00  0.00    +0.045 C 
ATOM     26  C   UNL     1      35.698 -20.183 -20.764  0.00  0.00    +0.014 C 
ATOM     27  C   UNL     1      33.343 -20.507 -20.338  0.00  0.00    +0.014 C 
ATOM     28  C   UNL     1      36.005 -20.876 -19.594  0.00  0.00    +0.004 C 
ATOM     29  C   UNL     1      33.650 -21.200 -19.168  0.00  0.00    +0.004 C 
ATOM     30  C   UNL     1      34.981 -21.386 -18.796  0.00  0.00    +0.031 C 
BRANCH  30  33
ATOM     31  N   UNL     1      36.542 -21.975 -16.957  0.00  0.00    -0.343 N 
ATOM     32  N   UNL     1      34.406 -22.919 -17.037  0.00  0.00    -0.285 NA
ATOM     33  C   UNL     1      35.301 -22.110 -17.576  0.00  0.00    +0.117 C 
ATOM     34  H   UNL     1      36.738 -22.475 -16.131  0.00  0.00    +0.144 HD
ATOM     35  H   UNL     1      37.223 -21.379 -17.345  0.00  0.00    +0.144 HD
ATOM     36  H   UNL     1      34.621 -23.411 -16.211  0.00  0.00    +0.188 HD
ENDBRANCH  30  33
ENDBRANCH  23  25
ENDBRANCH  22  23
ENDBRANCH   6  22
TORSDOF 6
ENDMDL
MODEL 3
REMARK VINA RESULT:     -11.2      5.352     13.786
REMARK  Name = 445756
REMARK  6 active torsions:
REMARK  status: ('A' for Active; 'I' for Inactive)
REMARK    1  A    between atoms: C_3  and  C_11
REMARK    2  A    between atoms: C_6  and  C_22
REMARK    3  A    between atoms: C_11  and  N_12
REMARK    4  A    between atoms: C_22  and  N_23
REMARK    5  A    between atoms: N_23  and  C_25
REMARK    6  A    between atoms: C_30  and  C_33
REMARK                            x       y       z     vdW  Elec       q    Type
REMARK                         _______ _______ _______ _____ _____    ______ ____
ROOT
ATOM      1  N   UNL     1      34.587 -15.015 -22.407  0.00  0.00    -0.261 N 
ATOM      2  N   UNL     1      33.966 -14.987 -20.273  0.00  0.00    -0.392 NA
ATOM      3  C   UNL     1      31.977 -12.028 -21.394  0.00  0.00    -0.017 C 
ATOM      4  C   UNL     1      33.727 -13.954 -22.290  0.00  0.00    +0.079 C 
ATOM      5  C   UNL     1      33.354 -13.957 -20.949  0.00  0.00    +0.128 C 
ATOM      6  C   UNL     1      34.698 -15.600 -21.177  0.00  0.00    +0.183 C 
ATOM      7  C   UNL     1      32.460 -12.978 -20.484  0.00  0.00    +0.084 C 
ATOM      8  C   UNL     1      32.370 -12.051 -22.733  0.00  0.00    -0.005 C 
ATOM      9  C   UNL     1      33.258 -13.019 -23.214  0.00  0.00    +0.017 C 
ATOM     10  C   UNL     1      35.255 -15.438 -23.618  0.00  0.00    +0.120 C 
ENDROOT
BRANCH   3  11
ATOM     11  C   UNL     1      31.025 -10.978 -20.921  0.00  0.00    +0.120 C 
BRANCH  11  12
ATOM     12  N   UNL     1      31.716  -9.731 -20.581  0.00  0.00    -0.260 N 
ATOM     13  N   UNL     1      32.699  -8.187 -19.354  0.00  0.00    -0.394 NA
ATOM     14  C   UNL     1      32.071  -8.764 -21.467  0.00  0.00    +0.079 C 
ATOM     15  C   UNL     1      32.102  -9.358 -19.336  0.00  0.00    +0.164 C 
ATOM     16  C   UNL     1      32.689  -7.801 -20.674  0.00  0.00    +0.128 C 
ATOM     17  C   UNL     1      31.919  -8.636 -22.849  0.00  0.00    +0.017 C 
ATOM     18  C   UNL     1      31.865 -10.192 -18.141  0.00  0.00    +0.084 C 
ATOM     19  C   UNL     1      33.190  -6.636 -21.278  0.00  0.00    +0.086 C 
ATOM     20  C   UNL     1      32.423  -7.470 -23.432  0.00  0.00    -0.003 C 
ATOM     21  C   UNL     1      33.049  -6.486 -22.663  0.00  0.00    -0.019 C 
ENDBRANCH  11  12
ENDBRANCH   3  11
BRANCH   6  22
ATOM     22  C   UNL     1      35.553 -16.782 -20.943  0.00  0.00    +0.164 C 
BRANCH  22  23
ATOM     23  N   UNL     1      35.071 -18.024 -21.536  0.00  0.00    -0.326 N 
ATOM     24  H   UNL     1      34.924 -18.051 -22.509  0.00  0.00    +0.147 HD
BRANCH  23  25
ATOM     25  C   UNL     1      34.811 -19.160 -20.801  0.00  0.00    +0.045 C 
ATOM     26  C   UNL     1      35.856 -19.904 -20.212  0.00  0.00    +0.014 C 
ATOM     27  C   UNL     1      33.491 -19.621 -20.614  0.00  0.00    +0.014 C 
ATOM     28  C   UNL     1      35.592 -21.055 -19.470  0.00  0.00    +0.004 C 
ATOM     29  C   UNL     1      33.227 -20.773 -19.873  0.00  0.00    +0.004 C 
ATOM     30  C   UNL     1      34.277 -21.490 -19.302  0.00  0.00    +0.031 C 
BRANCH  30  33
ATOM     31  N   UNL     1      33.965 -22.665 -17.137  0.00  0.00    -0.343 N 
ATOM     32  N   UNL     1      33.785 -23.838 -19.150  0.00  0.00    -0.285 NA
ATOM     33  C   UNL     1      34.002 -22.691 -18.529  0.00  0.00    +0.117 C 
ATOM     34  H   UNL     1      33.776 -23.491 -16.634  0.00  0.00    +0.144 HD
ATOM     35  H   UNL     1      34.126 -21.822 -16.655  0.00  0.00    +0.144 HD
ATOM     36  H   UNL     1      33.599 -24.652 -18.629  0.00  0.00    +0.188 HD
ENDBRANCH  30  33
ENDBRANCH  23  25
ENDBRANCH  22  23
ENDBRANCH   6  22
TORSDOF 6
ENDMDL
MODEL 4
REMARK VINA RESULT:     -11.1      1.431      2.081
REMARK  Name = 445756
REMARK  6 active torsions:
REMARK  status: ('A' for Active; 'I' for Inactive)
REMARK    1  A    between atoms: C_3  and  C_11
REMARK    2  A    between atoms: C_6  and  C_22
REMARK    3  A    between atoms: C_11  and  N_12
REMARK    4  A    between atoms: C_22  and  N_23
REMARK    5  A    between atoms: N_23  and  C_25
REMARK    6  A    between atoms: C_30  and  C_33
REMARK                            x       y       z     vdW  Elec       q    Type
REMARK                         _______ _______ _______ _____ _____    ______ ____
ROOT
ATOM      1  N   UNL     1      32.904 -22.815 -16.514  0.00  0.00    -0.261 N 
ATOM      2  N   UNL     1      35.122 -22.881 -16.635  0.00  0.00    -0.392 NA
ATOM      3  C   UNL     1      34.785 -24.267 -13.180  0.00  0.00    -0.017 C 
ATOM      4  C   UNL     1      33.321 -23.325 -15.312  0.00  0.00    +0.079 C 
ATOM      5  C   UNL     1      34.709 -23.357 -15.412  0.00  0.00    +0.128 C 
ATOM      6  C   UNL     1      34.015 -22.565 -17.270  0.00  0.00    +0.183 C 
ATOM      7  C   UNL     1      35.463 -23.836 -14.328  0.00  0.00    +0.084 C 
ATOM      8  C   UNL     1      33.391 -24.223 -13.110  0.00  0.00    -0.005 C 
ATOM      9  C   UNL     1      32.624 -23.750 -14.179  0.00  0.00    +0.017 C 
ATOM     10  C   UNL     1      31.532 -22.585 -16.909  0.00  0.00    +0.120 C 
ENDROOT
BRANCH   3  11
ATOM     11  C   UNL     1      35.567 -24.781 -12.016  0.00  0.00    +0.120 C 
BRANCH  11  12
ATOM     12  N   UNL     1      37.002 -24.842 -12.310  0.00  0.00    -0.260 N 
ATOM     13  N   UNL     1      39.124 -24.251 -12.356  0.00  0.00    -0.394 NA
ATOM     14  C   UNL     1      37.622 -25.844 -12.989  0.00  0.00    +0.079 C 
ATOM     15  C   UNL     1      37.921 -23.914 -11.949  0.00  0.00    +0.164 C 
ATOM     16  C   UNL     1      38.958 -25.451 -13.007  0.00  0.00    +0.128 C 
ATOM     17  C   UNL     1      37.161 -27.023 -13.575  0.00  0.00    +0.017 C 
ATOM     18  C   UNL     1      37.572 -22.694 -11.193  0.00  0.00    +0.084 C 
ATOM     19  C   UNL     1      39.903 -26.273 -13.643  0.00  0.00    +0.086 C 
ATOM     20  C   UNL     1      38.117 -27.828 -14.204  0.00  0.00    -0.003 C 
ATOM     21  C   UNL     1      39.464 -27.462 -14.239  0.00  0.00    -0.019 C 
ENDBRANCH  11  12
ENDBRANCH   3  11
BRANCH   6  22
ATOM     22  C   UNL     1      33.929 -22.006 -18.634  0.00  0.00    +0.164 C 
BRANCH  22  23
ATOM     23  N   UNL     1      35.115 -21.288 -19.086  0.00  0.00    -0.326 N 
ATOM     24  H   UNL     1      35.971 -21.466 -18.633  0.00  0.00    +0.147 HD
BRANCH  23  25
ATOM     25  C   UNL     1      35.097 -20.372 -20.116  0.00  0.00    +0.045 C 
ATOM     26  C   UNL     1      33.952 -20.204 -20.924  0.00  0.00    +0.014 C 
ATOM     27  C   UNL     1      36.224 -19.573 -20.401  0.00  0.00    +0.014 C 
ATOM     28  C   UNL     1      33.935 -19.279 -21.967  0.00  0.00    +0.004 C 
ATOM     29  C   UNL     1      36.207 -18.647 -21.444  0.00  0.00    +0.004 C 
ATOM     30  C   UNL     1      35.063 -18.501 -22.227  0.00  0.00    +0.031 C 
BRANCH  30  33
ATOM     31  N   UNL     1      35.642 -16.285 -23.185  0.00  0.00    -0.343 N 
ATOM     32  N   UNL     1      34.451 -17.842 -24.456  0.00  0.00    -0.285 NA
ATOM     33  C   UNL     1      35.045 -17.537 -23.316  0.00  0.00    +0.117 C 
ATOM     34  H   UNL     1      35.618 -15.647 -23.936  0.00  0.00    +0.144 HD
ATOM     35  H   UNL     1      36.087 -16.037 -22.343  0.00  0.00    +0.144 HD
ATOM     36  H   UNL     1      34.438 -17.191 -25.195  0.00  0.00    +0.188 HD
ENDBRANCH  30  33
ENDBRANCH  23  25
ENDBRANCH  22  23
ENDBRANCH   6  22
TORSDOF 6
ENDMDL
MODEL 5
REMARK VINA RESULT:     -10.9      5.216     13.758
REMARK  Name = 445756
REMARK  6 active torsions:
REMARK  status: ('A' for Active; 'I' for Inactive)
REMARK    1  A    between atoms: C_3  and  C_11
REMARK    2  A    between atoms: C_6  and  C_22
REMARK    3  A    between atoms: C_11  and  N_12
REMARK    4  A    between atoms: C_22  and  N_23
REMARK    5  A    between atoms: N_23  and  C_25
REMARK    6  A    between atoms: C_30  and  C_33
REMARK                            x       y       z     vdW  Elec       q    Type
REMARK                         _______ _______ _______ _____ _____    ______ ____
ROOT
ATOM      1  N   UNL     1      34.428 -15.221 -21.367  0.00  0.00    -0.261 N 
ATOM      2  N   UNL     1      34.211 -14.349 -23.399  0.00  0.00    -0.392 NA
ATOM      3  C   UNL     1      32.140 -11.832 -21.570  0.00  0.00    -0.017 C 
ATOM      4  C   UNL     1      33.637 -14.112 -21.206  0.00  0.00    +0.079 C 
ATOM      5  C   UNL     1      33.517 -13.585 -22.490  0.00  0.00    +0.128 C 
ATOM      6  C   UNL     1      34.744 -15.320 -22.693  0.00  0.00    +0.183 C 
ATOM      7  C   UNL     1      32.754 -12.421 -22.683  0.00  0.00    +0.084 C 
ATOM      8  C   UNL     1      32.281 -12.384 -20.295  0.00  0.00    -0.005 C 
ATOM      9  C   UNL     1      33.036 -13.542 -20.084  0.00  0.00    +0.017 C 
ATOM     10  C   UNL     1      34.850 -16.121 -20.317  0.00  0.00    +0.120 C 
ENDROOT
BRANCH   3  11
ATOM     11  C   UNL     1      31.326 -10.593 -21.752  0.00  0.00    +0.120 C 
BRANCH  11  12
ATOM     12  N   UNL     1      32.075  -9.390 -21.376  0.00  0.00    -0.260 N 
ATOM     13  N   UNL     1      32.826  -7.733 -20.132  0.00  0.00    -0.394 NA
ATOM     14  C   UNL     1      32.908  -8.696 -22.196  0.00  0.00    +0.079 C 
ATOM     15  C   UNL     1      32.048  -8.793 -20.160  0.00  0.00    +0.164 C 
ATOM     16  C   UNL     1      33.370  -7.657 -21.393  0.00  0.00    +0.128 C 
ATOM     17  C   UNL     1      33.295  -8.868 -23.526  0.00  0.00    +0.017 C 
ATOM     18  C   UNL     1      31.236  -9.301 -19.036  0.00  0.00    +0.084 C 
ATOM     19  C   UNL     1      34.273  -6.725 -21.933  0.00  0.00    +0.086 C 
ATOM     20  C   UNL     1      34.193  -7.930 -24.046  0.00  0.00    -0.003 C 
ATOM     21  C   UNL     1      34.675  -6.877 -23.265  0.00  0.00    -0.019 C 
ENDBRANCH  11  12
ENDBRANCH   3  11
BRANCH   6  22
ATOM     22  C   UNL     1      35.590 -16.411 -23.219  0.00  0.00    +0.164 C 
BRANCH  22  23
ATOM     23  N   UNL     1      34.983 -17.737 -23.190  0.00  0.00    -0.326 N 
ATOM     24  H   UNL     1      34.418 -18.009 -23.950  0.00  0.00    +0.147 HD
BRANCH  23  25
ATOM     25  C   UNL     1      35.157 -18.625 -22.151  0.00  0.00    +0.045 C 
ATOM     26  C   UNL     1      34.085 -19.405 -21.669  0.00  0.00    +0.014 C 
ATOM     27  C   UNL     1      36.415 -18.783 -21.530  0.00  0.00    +0.014 C 
ATOM     28  C   UNL     1      34.261 -20.302 -20.617  0.00  0.00    +0.004 C 
ATOM     29  C   UNL     1      36.591 -19.680 -20.478  0.00  0.00    +0.004 C 
ATOM     30  C   UNL     1      35.515 -20.439 -20.020  0.00  0.00    +0.031 C 
BRANCH  30  33
ATOM     31  N   UNL     1      36.721 -21.205 -17.989  0.00  0.00    -0.343 N 
ATOM     32  N   UNL     1      34.888 -22.410 -18.796  0.00  0.00    -0.285 NA
ATOM     33  C   UNL     1      35.699 -21.374 -18.921  0.00  0.00    +0.117 C 
ATOM     34  H   UNL     1      36.827 -21.850 -17.253  0.00  0.00    +0.144 HD
ATOM     35  H   UNL     1      37.337 -20.441 -18.067  0.00  0.00    +0.144 HD
ATOM     36  H   UNL     1      35.011 -23.044 -18.052  0.00  0.00    +0.188 HD
ENDBRANCH  30  33
ENDBRANCH  23  25
ENDBRANCH  22  23
ENDBRANCH   6  22
TORSDOF 6
ENDMDL
MODEL 6
REMARK VINA RESULT:     -10.7      2.042     11.127
REMARK  Name = 445756
REMARK  6 active torsions:
REMARK  status: ('A' for Active; 'I' for Inactive)
REMARK    1  A    between atoms: C_3  and  C_11
REMARK    2  A    between atoms: C_6  and  C_22
REMARK    3  A    between atoms: C_11  and  N_12
REMARK    4  A    between atoms: C_22  and  N_23
REMARK    5  A    between atoms: N_23  and  C_25
REMARK    6  A    between atoms: C_30  and  C_33
REMARK                            x       y       z     vdW  Elec       q    Type
REMARK                         _______ _______ _______ _____ _____    ______ ____
ROOT
ATOM      1  N   UNL     1      33.128 -21.926 -18.098  0.00  0.00    -0.261 N 
ATOM      2  N   UNL     1      35.336 -22.167 -18.015  0.00  0.00    -0.392 NA
ATOM      3  C   UNL     1      35.214 -19.832 -20.931  0.00  0.00    -0.017 C 
ATOM      4  C   UNL     1      33.619 -21.152 -19.118  0.00  0.00    +0.079 C 
ATOM      5  C   UNL     1      35.000 -21.319 -19.045  0.00  0.00    +0.128 C 
ATOM      6  C   UNL     1      34.191 -22.512 -17.470  0.00  0.00    +0.183 C 
ATOM      7  C   UNL     1      35.820 -20.648 -19.967  0.00  0.00    +0.084 C 
ATOM      8  C   UNL     1      33.827 -19.684 -20.978  0.00  0.00    -0.005 C 
ATOM      9  C   UNL     1      32.994 -20.343 -20.068  0.00  0.00    +0.017 C 
ATOM     10  C   UNL     1      31.734 -22.090 -17.753  0.00  0.00    +0.120 C 
ENDROOT
BRANCH   3  11
ATOM     11  C   UNL     1      36.068 -19.108 -21.920  0.00  0.00    +0.120 C 
BRANCH  11  12
ATOM     12  N   UNL     1      35.261 -18.396 -22.916  0.00  0.00    -0.260 N 
ATOM     13  N   UNL     1      34.058 -18.049 -24.730  0.00  0.00    -0.394 NA
ATOM     14  C   UNL     1      34.927 -17.079 -22.859  0.00  0.00    +0.079 C 
ATOM     15  C   UNL     1      34.732 -18.942 -24.038  0.00  0.00    +0.164 C 
ATOM     16  C   UNL     1      34.169 -16.882 -24.010  0.00  0.00    +0.128 C 
ATOM     17  C   UNL     1      35.202 -16.067 -21.940  0.00  0.00    +0.017 C 
ATOM     18  C   UNL     1      34.910 -20.363 -24.398  0.00  0.00    +0.084 C 
ATOM     19  C   UNL     1      33.648 -15.604 -24.276  0.00  0.00    +0.086 C 
ATOM     20  C   UNL     1      34.676 -14.801 -22.221  0.00  0.00    -0.003 C 
ATOM     21  C   UNL     1      33.912 -14.572 -23.367  0.00  0.00    -0.019 C 
ENDBRANCH  11  12
ENDBRANCH   3  11
BRANCH   6  22
ATOM     22  C   UNL     1      34.020 -23.420 -16.317  0.00  0.00    +0.164 C 
BRANCH  22  23
ATOM     23  N   UNL     1      34.870 -23.131 -15.168  0.00  0.00    -0.326 N 
ATOM     24  H   UNL     1      34.574 -22.443 -14.528  0.00  0.00    +0.147 HD
BRANCH  23  25
ATOM     25  C   UNL     1      36.068 -23.771 -14.935  0.00  0.00    +0.045 C 
ATOM     26  C   UNL     1      37.298 -23.092 -15.072  0.00  0.00    +0.014 C 
ATOM     27  C   UNL     1      36.107 -25.129 -14.554  0.00  0.00    +0.014 C 
ATOM     28  C   UNL     1      38.510 -23.740 -14.838  0.00  0.00    +0.004 C 
ATOM     29  C   UNL     1      37.319 -25.777 -14.320  0.00  0.00    +0.004 C 
ATOM     30  C   UNL     1      38.520 -25.084 -14.463  0.00  0.00    +0.031 C 
BRANCH  30  33
ATOM     31  N   UNL     1      39.848 -27.144 -14.062  0.00  0.00    -0.343 N 
ATOM     32  N   UNL     1      40.902 -25.060 -14.142  0.00  0.00    -0.285 NA
ATOM     33  C   UNL     1      39.785 -25.761 -14.220  0.00  0.00    +0.117 C 
ATOM     34  H   UNL     1      40.715 -27.582 -13.899  0.00  0.00    +0.144 HD
ATOM     35  H   UNL     1      39.026 -27.683 -14.114  0.00  0.00    +0.144 HD
ATOM     36  H   UNL     1      41.759 -25.517 -13.978  0.00  0.00    +0.188 HD
ENDBRANCH  30  33
ENDBRANCH  23  25
ENDBRANCH  22  23
ENDBRANCH   6  22
TORSDOF 6
ENDMDL
MODEL 7
REMARK VINA RESULT:     -10.6      2.272     11.294
REMARK  Name = 445756
REMARK  6 active torsions:
REMARK  status: ('A' for Active; 'I' for Inactive)
REMARK    1  A    between atoms: C_3  and  C_11
REMARK    2  A    between atoms: C_6  and  C_22
REMARK    3  A    between atoms: C_11  and  N_12
REMARK    4  A    between atoms: C_22  and  N_23
REMARK    5  A    between atoms: N_23  and  C_25
REMARK    6  A    between atoms: C_30  and  C_33
REMARK                            x       y       z     vdW  Elec       q    Type
REMARK                         _______ _______ _______ _____ _____    ______ ____
ROOT
ATOM      1  N   UNL     1      33.066 -21.919 -18.227  0.00  0.00    -0.261 N 
ATOM      2  N   UNL     1      35.257 -22.289 -18.254  0.00  0.00    -0.392 NA
ATOM      3  C   UNL     1      35.172 -19.696 -20.944  0.00  0.00    -0.017 C 
ATOM      4  C   UNL     1      33.566 -21.084 -19.193  0.00  0.00    +0.079 C 
ATOM      5  C   UNL     1      34.936 -21.334 -19.190  0.00  0.00    +0.128 C 
ATOM      6  C   UNL     1      34.113 -22.618 -17.696  0.00  0.00    +0.183 C 
ATOM      7  C   UNL     1      35.762 -20.629 -20.081  0.00  0.00    +0.084 C 
ATOM      8  C   UNL     1      33.795 -19.467 -20.923  0.00  0.00    -0.005 C 
ATOM      9  C   UNL     1      32.957 -20.159 -20.043  0.00  0.00    +0.017 C 
ATOM     10  C   UNL     1      31.677 -22.036 -17.843  0.00  0.00    +0.120 C 
ENDROOT
BRANCH   3  11
ATOM     11  C   UNL     1      36.032 -18.934 -21.899  0.00  0.00    +0.120 C 
BRANCH  11  12
ATOM     12  N   UNL     1      35.236 -18.257 -22.927  0.00  0.00    -0.260 N 
ATOM     13  N   UNL     1      34.057 -17.971 -24.766  0.00  0.00    -0.394 NA
ATOM     14  C   UNL     1      34.894 -16.941 -22.913  0.00  0.00    +0.079 C 
ATOM     15  C   UNL     1      34.725 -18.839 -24.039  0.00  0.00    +0.164 C 
ATOM     16  C   UNL     1      34.151 -16.782 -24.080  0.00  0.00    +0.128 C 
ATOM     17  C   UNL     1      35.151 -15.900 -22.021  0.00  0.00    +0.017 C 
ATOM     18  C   UNL     1      34.916 -20.269 -24.354  0.00  0.00    +0.084 C 
ATOM     19  C   UNL     1      33.627 -15.516 -24.391  0.00  0.00    +0.086 C 
ATOM     20  C   UNL     1      34.622 -14.647 -22.347  0.00  0.00    -0.003 C 
ATOM     21  C   UNL     1      33.873 -14.456 -23.510  0.00  0.00    -0.019 C 
ENDBRANCH  11  12
ENDBRANCH   3  11
BRANCH   6  22
ATOM     22  C   UNL     1      33.928 -23.615 -16.622  0.00  0.00    +0.164 C 
BRANCH  22  23
ATOM     23  N   UNL     1      33.803 -23.063 -15.278  0.00  0.00    -0.326 N 
ATOM     24  H   UNL     1      32.995 -22.544 -15.058  0.00  0.00    +0.147 HD
BRANCH  23  25
ATOM     25  C   UNL     1      34.760 -23.229 -14.300  0.00  0.00    +0.045 C 
ATOM     26  C   UNL     1      36.106 -22.869 -14.528  0.00  0.00    +0.014 C 
ATOM     27  C   UNL     1      34.429 -23.767 -13.039  0.00  0.00    +0.014 C 
ATOM     28  C   UNL     1      37.075 -23.040 -13.540  0.00  0.00    +0.004 C 
ATOM     29  C   UNL     1      35.398 -23.937 -12.051  0.00  0.00    +0.004 C 
ATOM     30  C   UNL     1      36.721 -23.574 -12.301  0.00  0.00    +0.031 C 
BRANCH  30  33
ATOM     31  N   UNL     1      37.742 -24.881 -10.453  0.00  0.00    -0.343 N 
ATOM     32  N   UNL     1      38.663 -22.832 -11.095  0.00  0.00    -0.285 NA
ATOM     33  C   UNL     1      37.732 -23.753 -11.271  0.00  0.00    +0.117 C 
ATOM     34  H   UNL     1      38.436 -24.982  -9.761  0.00  0.00    +0.144 HD
ATOM     35  H   UNL     1      37.055 -25.577 -10.566  0.00  0.00    +0.144 HD
ATOM     36  H   UNL     1      39.348 -22.951 -10.398  0.00  0.00    +0.188 HD
ENDBRANCH  30  33
ENDBRANCH  23  25
ENDBRANCH  22  23
ENDBRANCH   6  22
TORSDOF 6
ENDMDL
MODEL 8
REMARK VINA RESULT:     -10.6      7.651     16.630
REMARK  Name = 445756
REMARK  6 active torsions:
REMARK  status: ('A' for Active; 'I' for Inactive)
REMARK    1  A    between atoms: C_3  and  C_11
REMARK    2  A    between atoms: C_6  and  C_22
REMARK    3  A    between atoms: C_11  and  N_12
REMARK    4  A    between atoms: C_22  and  N_23
REMARK    5  A    between atoms: N_23  and  C_25
REMARK    6  A    between atoms: C_30  and  C_33
REMARK                            x       y       z     vdW  Elec       q    Type
REMARK                         _______ _______ _______ _____ _____    ______ ____
ROOT
ATOM      1  N   UNL     1      32.292 -11.581 -21.671  0.00  0.00    -0.261 N 
ATOM      2  N   UNL     1      33.389 -10.755 -23.418  0.00  0.00    -0.392 NA
ATOM      3  C   UNL     1      32.971  -7.545 -21.550  0.00  0.00    -0.017 C 
ATOM      4  C   UNL     1      32.408 -10.236 -21.428  0.00  0.00    +0.079 C 
ATOM      5  C   UNL     1      33.097  -9.744 -22.533  0.00  0.00    +0.128 C 
ATOM      6  C   UNL     1      32.892 -11.842 -22.871  0.00  0.00    +0.183 C 
ATOM      7  C   UNL     1      33.388  -8.371 -22.602  0.00  0.00    +0.084 C 
ATOM      8  C   UNL     1      32.282  -8.069 -20.455  0.00  0.00    -0.005 C 
ATOM      9  C   UNL     1      31.984  -9.433 -20.368  0.00  0.00    +0.017 C 
ATOM     10  C   UNL     1      31.648 -12.547 -20.809  0.00  0.00    +0.120 C 
ENDROOT
BRANCH   3  11
ATOM     11  C   UNL     1      33.270  -6.083 -21.603  0.00  0.00    +0.120 C 
BRANCH  11  12
ATOM     12  N   UNL     1      32.619  -5.435 -22.745  0.00  0.00    -0.260 N 
ATOM     13  N   UNL     1      31.043  -4.466 -23.944  0.00  0.00    -0.394 NA
ATOM     14  C   UNL     1      33.212  -5.169 -23.939  0.00  0.00    +0.079 C 
ATOM     15  C   UNL     1      31.334  -5.007 -22.781  0.00  0.00    +0.164 C 
ATOM     16  C   UNL     1      32.203  -4.559 -24.680  0.00  0.00    +0.128 C 
ATOM     17  C   UNL     1      34.497  -5.393 -24.435  0.00  0.00    +0.017 C 
ATOM     18  C   UNL     1      30.411  -5.147 -21.637  0.00  0.00    +0.084 C 
ATOM     19  C   UNL     1      32.474  -4.142 -25.994  0.00  0.00    +0.086 C 
ATOM     20  C   UNL     1      34.748  -4.972 -25.745  0.00  0.00    -0.003 C 
ATOM     21  C   UNL     1      33.757  -4.357 -26.512  0.00  0.00    -0.019 C 
ENDBRANCH  11  12
ENDBRANCH   3  11
BRANCH   6  22
ATOM     22  C   UNL     1      32.949 -13.203 -23.441  0.00  0.00    +0.164 C 
BRANCH  22  23
ATOM     23  N   UNL     1      34.281 -13.794 -23.507  0.00  0.00    -0.326 N 
ATOM     24  H   UNL     1      34.977 -13.322 -24.020  0.00  0.00    +0.147 HD
BRANCH  23  25
ATOM     25  C   UNL     1      34.613 -14.979 -22.888  0.00  0.00    +0.045 C 
ATOM     26  C   UNL     1      34.953 -16.125 -23.639  0.00  0.00    +0.014 C 
ATOM     27  C   UNL     1      34.621 -15.090 -21.481  0.00  0.00    +0.014 C 
ATOM     28  C   UNL     1      35.287 -17.325 -23.013  0.00  0.00    +0.004 C 
ATOM     29  C   UNL     1      34.955 -16.291 -20.855  0.00  0.00    +0.004 C 
ATOM     30  C   UNL     1      35.287 -17.408 -21.620  0.00  0.00    +0.031 C 
BRANCH  30  33
ATOM     31  N   UNL     1      36.820 -18.799 -20.249  0.00  0.00    -0.343 N 
ATOM     32  N   UNL     1      34.817 -19.695 -21.052  0.00  0.00    -0.285 NA
ATOM     33  C   UNL     1      35.634 -18.660 -20.967  0.00  0.00    +0.117 C 
ATOM     34  H   UNL     1      37.035 -19.657 -19.814  0.00  0.00    +0.144 HD
ATOM     35  H   UNL     1      37.444 -18.041 -20.177  0.00  0.00    +0.144 HD
ATOM     36  H   UNL     1      35.050 -20.544 -20.610  0.00  0.00    +0.188 HD
ENDBRANCH  30  33
ENDBRANCH  23  25
ENDBRANCH  22  23
ENDBRANCH   6  22
TORSDOF 6
ENDMDL
MODEL 9
REMARK VINA RESULT:     -10.4      1.383      2.141
REMARK  Name = 445756
REMARK  6 active torsions:
REMARK  status: ('A' for Active; 'I' for Inactive)
REMARK    1  A    between atoms: C_3  and  C_11
REMARK    2  A    between atoms: C_6  and  C_22
REMARK    3  A    between atoms: C_11  and  N_12
REMARK    4  A    between atoms: C_22  and  N_23
REMARK    5  A    between atoms: N_23  and  C_25
REMARK    6  A    between atoms: C_30  and  C_33
REMARK                            x       y       z     vdW  Elec       q    Type
REMARK                         _______ _______ _______ _____ _____    ______ ____
ROOT
ATOM      1  N   UNL     1      34.321 -22.809 -16.771  0.00  0.00    -0.261 N 
ATOM      2  N   UNL     1      36.416 -22.141 -17.092  0.00  0.00    -0.392 NA
ATOM      3  C   UNL     1      37.010 -24.109 -13.970  0.00  0.00    -0.017 C 
ATOM      4  C   UNL     1      35.040 -23.348 -15.736  0.00  0.00    +0.079 C 
ATOM      5  C   UNL     1      36.345 -22.917 -15.959  0.00  0.00    +0.128 C 
ATOM      6  C   UNL     1      35.186 -22.096 -17.553  0.00  0.00    +0.183 C 
ATOM      7  C   UNL     1      37.356 -23.302 -15.062  0.00  0.00    +0.084 C 
ATOM      8  C   UNL     1      35.691 -24.526 -13.774  0.00  0.00    -0.005 C 
ATOM      9  C   UNL     1      34.672 -24.153 -14.656  0.00  0.00    +0.017 C 
ATOM     10  C   UNL     1      32.901 -22.967 -16.992  0.00  0.00    +0.120 C 
ENDROOT
BRANCH   3  11
ATOM     11  C   UNL     1      38.069 -24.530 -13.005  0.00  0.00    +0.120 C 
BRANCH  11  12
ATOM     12  N   UNL     1      38.788 -25.719 -13.472  0.00  0.00    -0.260 N 
ATOM     13  N   UNL     1      40.334 -26.938 -14.462  0.00  0.00    -0.394 NA
ATOM     14  C   UNL     1      38.408 -27.005 -13.244  0.00  0.00    +0.079 C 
ATOM     15  C   UNL     1      39.932 -25.715 -14.197  0.00  0.00    +0.164 C 
ATOM     16  C   UNL     1      39.396 -27.756 -13.877  0.00  0.00    +0.128 C 
ATOM     17  C   UNL     1      37.329 -27.573 -12.566  0.00  0.00    +0.017 C 
ATOM     18  C   UNL     1      40.611 -24.471 -14.614  0.00  0.00    +0.084 C 
ATOM     19  C   UNL     1      39.317 -29.159 -13.839  0.00  0.00    +0.086 C 
ATOM     20  C   UNL     1      37.267 -28.970 -12.541  0.00  0.00    -0.003 C 
ATOM     21  C   UNL     1      38.243 -29.751 -13.165  0.00  0.00    -0.019 C 
ENDBRANCH  11  12
ENDBRANCH   3  11
BRANCH   6  22
ATOM     22  C   UNL     1      34.741 -21.378 -18.765  0.00  0.00    +0.164 C 
BRANCH  22  23
ATOM     23  N   UNL     1      35.795 -20.687 -19.499  0.00  0.00    -0.326 N 
ATOM     24  H   UNL     1      36.730 -20.840 -19.230  0.00  0.00    +0.147 HD
BRANCH  23  25
ATOM     25  C   UNL     1      35.547 -19.830 -20.549  0.00  0.00    +0.045 C 
ATOM     26  C   UNL     1      34.375 -19.948 -21.327  0.00  0.00    +0.014 C 
ATOM     27  C   UNL     1      36.458 -18.806 -20.886  0.00  0.00    +0.014 C 
ATOM     28  C   UNL     1      34.126 -19.082 -22.391  0.00  0.00    +0.004 C 
ATOM     29  C   UNL     1      36.208 -17.940 -21.950  0.00  0.00    +0.004 C 
ATOM     30  C   UNL     1      35.043 -18.078 -22.703  0.00  0.00    +0.031 C 
BRANCH  30  33
ATOM     31  N   UNL     1      35.312 -15.887 -23.839  0.00  0.00    -0.343 N 
ATOM     32  N   UNL     1      34.029 -17.574 -24.823  0.00  0.00    -0.285 NA
ATOM     33  C   UNL     1      34.783 -17.176 -23.814  0.00  0.00    +0.117 C 
ATOM     34  H   UNL     1      35.123 -15.292 -24.602  0.00  0.00    +0.144 HD
ATOM     35  H   UNL     1      35.874 -15.570 -23.095  0.00  0.00    +0.144 HD
ATOM     36  H   UNL     1      33.852 -16.965 -25.576  0.00  0.00    +0.188 HD
ENDBRANCH  30  33
ENDBRANCH  23  25
ENDBRANCH  22  23
ENDBRANCH   6  22
TORSDOF 6
ENDMDL
