MODEL 1
REMARK VINA RESULT:     -11.8      0.000      0.000
REMARK  Name = 9865515
REMARK  6 active torsions:
REMARK  status: ('A' for Active; 'I' for Inactive)
REMARK    1  A    between atoms: C_1  and  C_20
REMARK    2  A    between atoms: C_2  and  C_9
REMARK    3  A    between atoms: N_8  and  C_11
REMARK    4  A    between atoms: C_12  and  N_17
REMARK    5  A    between atoms: C_20  and  N_21
REMARK    6  A    between atoms: C_25  and  C_30
REMARK                            x       y       z     vdW  Elec       q    Type
REMARK                         _______ _______ _______ _____ _____    ______ ____
ROOT
ATOM      1  C   UNL     1      34.138 -23.507 -15.657  0.00  0.00    -0.002 C 
ATOM      2  C   UNL     1      33.921 -21.961 -17.969  0.00  0.00    +0.054 C 
ATOM      3  C   UNL     1      32.898 -23.348 -16.276  0.00  0.00    -0.002 C 
ATOM      4  C   UNL     1      35.269 -22.894 -16.195  0.00  0.00    -0.002 C 
ATOM      5  C   UNL     1      32.789 -22.574 -17.431  0.00  0.00    +0.004 C 
ATOM      6  C   UNL     1      35.161 -22.121 -17.350  0.00  0.00    +0.004 C 
ENDROOT
BRANCH   2   9
ATOM      7  O   UNL     1      32.692 -21.011 -19.701  0.00  0.00    -0.270 OA
ATOM      8  N   UNL     1      34.995 -20.567 -19.631  0.00  0.00    -0.279 N 
ATOM      9  C   UNL     1      33.807 -21.153 -19.173  0.00  0.00    +0.250 C 
ATOM     10  H   UNL     1      35.803 -20.772 -19.107  0.00  0.00    +0.155 HD
BRANCH   8  11
ATOM     11  C   UNL     1      35.185 -19.719 -20.750  0.00  0.00    +0.064 C 
ATOM     12  C   UNL     1      36.284 -18.877 -20.811  0.00  0.00    +0.055 C 
ATOM     13  C   UNL     1      34.247 -19.755 -21.769  0.00  0.00    +0.016 C 
ATOM     14  C   UNL     1      36.449 -18.050 -21.923  0.00  0.00    +0.015 C 
ATOM     15  C   UNL     1      34.413 -18.929 -22.880  0.00  0.00    +0.001 C 
ATOM     16  C   UNL     1      35.514 -18.076 -22.957  0.00  0.00    +0.001 C 
BRANCH  12  17
ATOM     17  N   UNL     1      37.244 -18.836 -19.776  0.00  0.00    -0.356 N 
ATOM     18  H   UNL     1      38.125 -19.254 -19.905  0.00  0.00    +0.142 HD
ATOM     19  H   UNL     1      37.032 -18.387 -18.925  0.00  0.00    +0.142 HD
ENDBRANCH  12  17
ENDBRANCH   8  11
ENDBRANCH   2   9
BRANCH   1  20
ATOM     20  C   UNL     1      34.255 -24.336 -14.422  0.00  0.00    +0.124 C 
BRANCH  20  21
ATOM     21  N   UNL     1      34.760 -23.548 -13.318  0.00  0.00    -0.264 N 
ATOM     22  N   UNL     1      36.825 -24.665 -13.322  0.00  0.00    -0.338 NA
ATOM     23  N   UNL     1      36.374 -22.904 -11.741  0.00  0.00    -0.170 NA
ATOM     24  C   UNL     1      36.024 -23.711 -12.777  0.00  0.00    +0.145 C 
ATOM     25  C   UNL     1      38.048 -24.796 -12.771  0.00  0.00    +0.147 C 
ATOM     26  C   UNL     1      38.501 -24.029 -11.717  0.00  0.00    +0.055 C 
ATOM     27  C   UNL     1      37.612 -23.089 -11.237  0.00  0.00    +0.114 C 
ATOM     28  H   UNL     1      34.173 -22.860 -12.931  0.00  0.00    +0.160 HD
BRANCH  25  30
ATOM     29  N   UNL     1      40.980 -26.420 -14.402  0.00  0.00    -0.242 NA
ATOM     30  C   UNL     1      38.883 -25.815 -13.364  0.00  0.00    +0.050 C 
ATOM     31  C   UNL     1      38.439 -27.128 -13.479  0.00  0.00    +0.006 C 
ATOM     32  C   UNL     1      40.150 -25.515 -13.836  0.00  0.00    +0.101 C 
ATOM     33  C   UNL     1      39.264 -28.087 -14.055  0.00  0.00    +0.021 C 
ATOM     34  C   UNL     1      40.515 -27.685 -14.497  0.00  0.00    +0.099 C 
ENDBRANCH  25  30
ENDBRANCH  20  21
ENDBRANCH   1  20
TORSDOF 6
ENDMDL
MODEL 2
REMARK VINA RESULT:     -11.7      3.688      6.490
REMARK  Name = 9865515
REMARK  6 active torsions:
REMARK  status: ('A' for Active; 'I' for Inactive)
REMARK    1  A    between atoms: C_1  and  C_20
REMARK    2  A    between atoms: C_2  and  C_9
REMARK    3  A    between atoms: N_8  and  C_11
REMARK    4  A    between atoms: C_12  and  N_17
REMARK    5  A    between atoms: C_20  and  N_21
REMARK    6  A    between atoms: C_25  and  C_30
REMARK                            x       y       z     vdW  Elec       q    Type
REMARK                         _______ _______ _______ _____ _____    ______ ____
ROOT
ATOM      1  C   UNL     1      35.028 -19.558 -20.998  0.00  0.00    -0.002 C 
ATOM      2  C   UNL     1      34.853 -17.438 -22.802  0.00  0.00    +0.054 C 
ATOM      3  C   UNL     1      35.555 -18.311 -20.662  0.00  0.00    -0.002 C 
ATOM      4  C   UNL     1      34.413 -19.745 -22.236  0.00  0.00    -0.002 C 
ATOM      5  C   UNL     1      35.468 -17.251 -21.565  0.00  0.00    +0.004 C 
ATOM      6  C   UNL     1      34.326 -18.685 -23.138  0.00  0.00    +0.004 C 
ENDROOT
BRANCH   2   9
ATOM      7  O   UNL     1      35.180 -16.495 -24.904  0.00  0.00    -0.270 OA
ATOM      8  N   UNL     1      34.179 -15.158 -23.255  0.00  0.00    -0.279 N 
ATOM      9  C   UNL     1      34.765 -16.333 -23.745  0.00  0.00    +0.250 C 
ATOM     10  H   UNL     1      33.898 -15.180 -22.313  0.00  0.00    +0.155 HD
BRANCH   8  11
ATOM     11  C   UNL     1      33.939 -13.941 -23.942  0.00  0.00    +0.064 C 
ATOM     12  C   UNL     1      34.080 -12.729 -23.286  0.00  0.00    +0.055 C 
ATOM     13  C   UNL     1      33.561 -14.001 -25.273  0.00  0.00    +0.016 C 
ATOM     14  C   UNL     1      33.838 -11.545 -23.982  0.00  0.00    +0.015 C 
ATOM     15  C   UNL     1      33.320 -12.817 -25.969  0.00  0.00    +0.001 C 
ATOM     16  C   UNL     1      33.457 -11.588 -25.323  0.00  0.00    +0.001 C 
BRANCH  12  17
ATOM     17  N   UNL     1      34.466 -12.661 -21.929  0.00  0.00    -0.356 N 
ATOM     18  H   UNL     1      34.223 -13.388 -21.311  0.00  0.00    +0.142 HD
ATOM     19  H   UNL     1      34.978 -11.887 -21.601  0.00  0.00    +0.142 HD
ENDBRANCH  12  17
ENDBRANCH   8  11
ENDBRANCH   2   9
BRANCH   1  20
ATOM     20  C   UNL     1      35.119 -20.692 -20.032  0.00  0.00    +0.124 C 
BRANCH  20  21
ATOM     21  N   UNL     1      33.807 -21.074 -19.559  0.00  0.00    -0.264 N 
ATOM     22  N   UNL     1      34.681 -22.146 -17.663  0.00  0.00    -0.338 NA
ATOM     23  N   UNL     1      32.306 -22.083 -18.063  0.00  0.00    -0.170 NA
ATOM     24  C   UNL     1      33.592 -21.790 -18.393  0.00  0.00    +0.145 C 
ATOM     25  C   UNL     1      34.436 -22.842 -16.534  0.00  0.00    +0.147 C 
ATOM     26  C   UNL     1      33.170 -23.192 -16.109  0.00  0.00    +0.055 C 
ATOM     27  C   UNL     1      32.133 -22.782 -16.921  0.00  0.00    +0.114 C 
ATOM     28  H   UNL     1      33.024 -20.811 -20.094  0.00  0.00    +0.160 HD
BRANCH  25  30
ATOM     29  N   UNL     1      37.907 -22.768 -15.180  0.00  0.00    -0.242 NA
ATOM     30  C   UNL     1      35.606 -23.211 -15.773  0.00  0.00    +0.050 C 
ATOM     31  C   UNL     1      35.593 -24.315 -14.927  0.00  0.00    +0.006 C 
ATOM     32  C   UNL     1      36.778 -22.476 -15.862  0.00  0.00    +0.101 C 
ATOM     33  C   UNL     1      36.736 -24.647 -14.208  0.00  0.00    +0.021 C 
ATOM     34  C   UNL     1      37.857 -23.848 -14.368  0.00  0.00    +0.099 C 
ENDBRANCH  25  30
ENDBRANCH  20  21
ENDBRANCH   1  20
TORSDOF 6
ENDMDL
MODEL 3
REMARK VINA RESULT:     -11.7      7.649     11.898
REMARK  Name = 9865515
REMARK  6 active torsions:
REMARK  status: ('A' for Active; 'I' for Inactive)
REMARK    1  A    between atoms: C_1  and  C_20
REMARK    2  A    between atoms: C_2  and  C_9
REMARK    3  A    between atoms: N_8  and  C_11
REMARK    4  A    between atoms: C_12  and  N_17
REMARK    5  A    between atoms: C_20  and  N_21
REMARK    6  A    between atoms: C_25  and  C_30
REMARK                            x       y       z     vdW  Elec       q    Type
REMARK                         _______ _______ _______ _____ _____    ______ ____
ROOT
ATOM      1  C   UNL     1      33.982 -13.742 -21.824  0.00  0.00    -0.002 C 
ATOM      2  C   UNL     1      32.489 -11.387 -21.764  0.00  0.00    +0.054 C 
ATOM      3  C   UNL     1      33.061 -13.526 -20.799  0.00  0.00    -0.002 C 
ATOM      4  C   UNL     1      34.156 -12.780 -22.819  0.00  0.00    -0.002 C 
ATOM      5  C   UNL     1      32.315 -12.348 -20.768  0.00  0.00    +0.004 C 
ATOM      6  C   UNL     1      33.410 -11.602 -22.789  0.00  0.00    +0.004 C 
ENDROOT
BRANCH   2   9
ATOM      7  O   UNL     1      30.473 -10.226 -21.748  0.00  0.00    -0.270 OA
ATOM      8  N   UNL     1      32.452  -8.969 -21.653  0.00  0.00    -0.279 N 
ATOM      9  C   UNL     1      31.712 -10.157 -21.730  0.00  0.00    +0.250 C 
ATOM     10  H   UNL     1      33.430  -9.073 -21.648  0.00  0.00    +0.155 HD
BRANCH   8  11
ATOM     11  C   UNL     1      31.974  -7.636 -21.581  0.00  0.00    +0.064 C 
ATOM     12  C   UNL     1      32.206  -6.870 -20.451  0.00  0.00    +0.055 C 
ATOM     13  C   UNL     1      31.273  -7.131 -22.664  0.00  0.00    +0.016 C 
ATOM     14  C   UNL     1      31.725  -5.561 -20.404  0.00  0.00    +0.015 C 
ATOM     15  C   UNL     1      30.793  -5.823 -22.617  0.00  0.00    +0.001 C 
ATOM     16  C   UNL     1      31.018  -5.037 -21.486  0.00  0.00    +0.001 C 
BRANCH  12  17
ATOM     17  N   UNL     1      32.920  -7.379 -19.344  0.00  0.00    -0.356 N 
ATOM     18  H   UNL     1      33.151  -8.335 -19.305  0.00  0.00    +0.142 HD
ATOM     19  H   UNL     1      33.189  -6.777 -18.612  0.00  0.00    +0.142 HD
ENDBRANCH  12  17
ENDBRANCH   8  11
ENDBRANCH   2   9
BRANCH   1  20
ATOM     20  C   UNL     1      34.780 -15.002 -21.859  0.00  0.00    +0.124 C 
BRANCH  20  21
ATOM     21  N   UNL     1      34.591 -15.699 -23.113  0.00  0.00    -0.264 N 
ATOM     22  N   UNL     1      34.730 -17.807 -22.090  0.00  0.00    -0.338 NA
ATOM     23  N   UNL     1      34.381 -17.605 -24.466  0.00  0.00    -0.170 NA
ATOM     24  C   UNL     1      34.567 -17.079 -23.226  0.00  0.00    +0.145 C 
ATOM     25  C   UNL     1      34.701 -19.147 -22.237  0.00  0.00    +0.147 C 
ATOM     26  C   UNL     1      34.519 -19.782 -23.449  0.00  0.00    +0.055 C 
ATOM     27  C   UNL     1      34.363 -18.952 -24.540  0.00  0.00    +0.114 C 
ATOM     28  H   UNL     1      34.474 -15.162 -23.930  0.00  0.00    +0.160 HD
BRANCH  25  30
ATOM     29  N   UNL     1      36.353 -20.710 -19.285  0.00  0.00    -0.242 NA
ATOM     30  C   UNL     1      34.876 -19.902 -21.019  0.00  0.00    +0.050 C 
ATOM     31  C   UNL     1      33.799 -20.536 -20.407  0.00  0.00    +0.006 C 
ATOM     32  C   UNL     1      36.121 -20.018 -20.422  0.00  0.00    +0.101 C 
ATOM     33  C   UNL     1      33.998 -21.257 -19.235  0.00  0.00    +0.021 C 
ATOM     34  C   UNL     1      35.283 -21.313 -18.719  0.00  0.00    +0.099 C 
ENDBRANCH  25  30
ENDBRANCH  20  21
ENDBRANCH   1  20
TORSDOF 6
ENDMDL
MODEL 4
REMARK VINA RESULT:     -11.0      1.550      2.048
REMARK  Name = 9865515
REMARK  6 active torsions:
REMARK  status: ('A' for Active; 'I' for Inactive)
REMARK    1  A    between atoms: C_1  and  C_20
REMARK    2  A    between atoms: C_2  and  C_9
REMARK    3  A    between atoms: N_8  and  C_11
REMARK    4  A    between atoms: C_12  and  N_17
REMARK    5  A    between atoms: C_20  and  N_21
REMARK    6  A    between atoms: C_25  and  C_30
REMARK                            x       y       z     vdW  Elec       q    Type
REMARK                         _______ _______ _______ _____ _____    ______ ____
ROOT
ATOM      1  C   UNL     1      34.499 -22.855 -16.686  0.00  0.00    -0.002 C 
ATOM      2  C   UNL     1      35.210 -21.256 -18.857  0.00  0.00    +0.054 C 
ATOM      3  C   UNL     1      35.797 -22.357 -16.790  0.00  0.00    -0.002 C 
ATOM      4  C   UNL     1      33.556 -22.553 -17.668  0.00  0.00    -0.002 C 
ATOM      5  C   UNL     1      36.154 -21.558 -17.876  0.00  0.00    +0.004 C 
ATOM      6  C   UNL     1      33.912 -21.754 -18.754  0.00  0.00    +0.004 C 
ENDROOT
BRANCH   2   9
ATOM      7  O   UNL     1      36.784 -20.292 -20.274  0.00  0.00    -0.270 OA
ATOM      8  N   UNL     1      34.520 -19.848 -20.702  0.00  0.00    -0.279 N 
ATOM      9  C   UNL     1      35.583 -20.424 -19.992  0.00  0.00    +0.250 C 
ATOM     10  H   UNL     1      33.620 -20.042 -20.357  0.00  0.00    +0.155 HD
BRANCH   8  11
ATOM     11  C   UNL     1      34.575 -19.021 -21.851  0.00  0.00    +0.064 C 
ATOM     12  C   UNL     1      35.103 -17.743 -21.769  0.00  0.00    +0.055 C 
ATOM     13  C   UNL     1      34.089 -19.524 -23.047  0.00  0.00    +0.016 C 
ATOM     14  C   UNL     1      35.146 -16.947 -22.914  0.00  0.00    +0.015 C 
ATOM     15  C   UNL     1      34.132 -18.729 -24.191  0.00  0.00    +0.001 C 
ATOM     16  C   UNL     1      34.660 -17.439 -24.125  0.00  0.00    +0.001 C 
BRANCH  12  17
ATOM     17  N   UNL     1      35.602 -17.224 -20.553  0.00  0.00    -0.356 N 
ATOM     18  H   UNL     1      36.357 -16.593 -20.560  0.00  0.00    +0.142 HD
ATOM     19  H   UNL     1      35.193 -17.493 -19.699  0.00  0.00    +0.142 HD
ENDBRANCH  12  17
ENDBRANCH   8  11
ENDBRANCH   2   9
BRANCH   1  20
ATOM     20  C   UNL     1      34.117 -23.709 -15.524  0.00  0.00    +0.124 C 
BRANCH  20  21
ATOM     21  N   UNL     1      34.671 -23.186 -14.294  0.00  0.00    -0.264 N 
ATOM     22  N   UNL     1      36.351 -24.824 -14.225  0.00  0.00    -0.338 NA
ATOM     23  N   UNL     1      36.189 -23.144 -12.505  0.00  0.00    -0.170 NA
ATOM     24  C   UNL     1      35.770 -23.735 -13.656  0.00  0.00    +0.145 C 
ATOM     25  C   UNL     1      37.419 -25.332 -13.577  0.00  0.00    +0.147 C 
ATOM     26  C   UNL     1      37.924 -24.809 -12.404  0.00  0.00    +0.055 C 
ATOM     27  C   UNL     1      37.263 -23.704 -11.909  0.00  0.00    +0.114 C 
ATOM     28  H   UNL     1      34.243 -22.397 -13.889  0.00  0.00    +0.160 HD
BRANCH  25  30
ATOM     29  N   UNL     1      37.806 -28.376 -15.693  0.00  0.00    -0.242 NA
ATOM     30  C   UNL     1      38.021 -26.488 -14.198  0.00  0.00    +0.050 C 
ATOM     31  C   UNL     1      39.339 -26.841 -13.930  0.00  0.00    +0.006 C 
ATOM     32  C   UNL     1      37.303 -27.281 -15.079  0.00  0.00    +0.101 C 
ATOM     33  C   UNL     1      39.892 -27.961 -14.543  0.00  0.00    +0.021 C 
ATOM     34  C   UNL     1      39.090 -28.688 -15.408  0.00  0.00    +0.099 C 
ENDBRANCH  25  30
ENDBRANCH  20  21
ENDBRANCH   1  20
TORSDOF 6
ENDMDL
MODEL 5
REMARK VINA RESULT:     -10.7      4.642     11.255
REMARK  Name = 9865515
REMARK  6 active torsions:
REMARK  status: ('A' for Active; 'I' for Inactive)
REMARK    1  A    between atoms: C_1  and  C_20
REMARK    2  A    between atoms: C_2  and  C_9
REMARK    3  A    between atoms: N_8  and  C_11
REMARK    4  A    between atoms: C_12  and  N_17
REMARK    5  A    between atoms: C_20  and  N_21
REMARK    6  A    between atoms: C_25  and  C_30
REMARK                            x       y       z     vdW  Elec       q    Type
REMARK                         _______ _______ _______ _____ _____    ______ ____
ROOT
ATOM      1  C   UNL     1      35.213 -20.212 -20.016  0.00  0.00    -0.002 C 
ATOM      2  C   UNL     1      33.940 -22.096 -18.401  0.00  0.00    +0.054 C 
ATOM      3  C   UNL     1      35.967 -21.046 -19.190  0.00  0.00    -0.002 C 
ATOM      4  C   UNL     1      33.823 -20.320 -20.034  0.00  0.00    -0.002 C 
ATOM      5  C   UNL     1      35.331 -21.987 -18.382  0.00  0.00    +0.004 C 
ATOM      6  C   UNL     1      33.187 -21.262 -19.226  0.00  0.00    +0.004 C 
ENDROOT
BRANCH   2   9
ATOM      7  O   UNL     1      33.397 -24.283 -17.822  0.00  0.00    -0.270 OA
ATOM      8  N   UNL     1      32.559 -22.560 -16.468  0.00  0.00    -0.279 N 
ATOM      9  C   UNL     1      33.277 -23.077 -17.555  0.00  0.00    +0.250 C 
ATOM     10  H   UNL     1      32.553 -21.580 -16.386  0.00  0.00    +0.155 HD
BRANCH   8  11
ATOM     11  C   UNL     1      31.839 -23.267 -15.472  0.00  0.00    +0.064 C 
ATOM     12  C   UNL     1      30.457 -23.337 -15.525  0.00  0.00    +0.055 C 
ATOM     13  C   UNL     1      32.554 -23.877 -14.454  0.00  0.00    +0.016 C 
ATOM     14  C   UNL     1      29.771 -24.037 -14.532  0.00  0.00    +0.015 C 
ATOM     15  C   UNL     1      31.868 -24.578 -13.462  0.00  0.00    +0.001 C 
ATOM     16  C   UNL     1      30.476 -24.657 -13.501  0.00  0.00    +0.001 C 
BRANCH  12  17
ATOM     17  N   UNL     1      29.723 -22.717 -16.560  0.00  0.00    -0.356 N 
ATOM     18  H   UNL     1      29.421 -21.786 -16.460  0.00  0.00    +0.142 HD
ATOM     19  H   UNL     1      29.513 -23.217 -17.382  0.00  0.00    +0.142 HD
ENDBRANCH  12  17
ENDBRANCH   8  11
ENDBRANCH   2   9
BRANCH   1  20
ATOM     20  C   UNL     1      35.894 -19.205 -20.882  0.00  0.00    +0.124 C 
BRANCH  20  21
ATOM     21  N   UNL     1      35.505 -19.368 -22.267  0.00  0.00    -0.264 N 
ATOM     22  N   UNL     1      34.867 -17.118 -22.467  0.00  0.00    -0.338 NA
ATOM     23  N   UNL     1      34.675 -18.630 -24.333  0.00  0.00    -0.170 NA
ATOM     24  C   UNL     1      35.000 -18.340 -23.045  0.00  0.00    +0.145 C 
ATOM     25  C   UNL     1      34.372 -16.141 -23.254  0.00  0.00    +0.147 C 
ATOM     26  C   UNL     1      34.011 -16.328 -24.573  0.00  0.00    +0.055 C 
ATOM     27  C   UNL     1      34.186 -17.606 -25.064  0.00  0.00    +0.114 C 
ATOM     28  H   UNL     1      35.606 -20.257 -22.676  0.00  0.00    +0.160 HD
BRANCH  25  30
ATOM     29  N   UNL     1      33.868 -12.472 -22.839  0.00  0.00    -0.242 NA
ATOM     30  C   UNL     1      34.238 -14.851 -22.620  0.00  0.00    +0.050 C 
ATOM     31  C   UNL     1      34.343 -14.715 -21.240  0.00  0.00    +0.006 C 
ATOM     32  C   UNL     1      34.002 -13.708 -23.368  0.00  0.00    +0.101 C 
ATOM     33  C   UNL     1      34.211 -13.459 -20.658  0.00  0.00    +0.021 C 
ATOM     34  C   UNL     1      33.976 -12.379 -21.494  0.00  0.00    +0.099 C 
ENDBRANCH  25  30
ENDBRANCH  20  21
ENDBRANCH   1  20
TORSDOF 6
ENDMDL
MODEL 6
REMARK VINA RESULT:     -10.7      3.125      5.534
REMARK  Name = 9865515
REMARK  6 active torsions:
REMARK  status: ('A' for Active; 'I' for Inactive)
REMARK    1  A    between atoms: C_1  and  C_20
REMARK    2  A    between atoms: C_2  and  C_9
REMARK    3  A    between atoms: N_8  and  C_11
REMARK    4  A    between atoms: C_12  and  N_17
REMARK    5  A    between atoms: C_20  and  N_21
REMARK    6  A    between atoms: C_25  and  C_30
REMARK                            x       y       z     vdW  Elec       q    Type
REMARK                         _______ _______ _______ _____ _____    ______ ____
ROOT
ATOM      1  C   UNL     1      35.294 -20.576 -20.010  0.00  0.00    -0.002 C 
ATOM      2  C   UNL     1      35.113 -18.462 -21.821  0.00  0.00    +0.054 C 
ATOM      3  C   UNL     1      36.393 -19.743 -20.222  0.00  0.00    -0.002 C 
ATOM      4  C   UNL     1      34.105 -20.351 -20.703  0.00  0.00    -0.002 C 
ATOM      5  C   UNL     1      36.303 -18.687 -21.128  0.00  0.00    +0.004 C 
ATOM      6  C   UNL     1      34.014 -19.294 -21.608  0.00  0.00    +0.004 C 
ENDROOT
BRANCH   2   9
ATOM      7  O   UNL     1      35.418 -17.532 -23.931  0.00  0.00    -0.270 OA
ATOM      8  N   UNL     1      34.450 -16.179 -22.276  0.00  0.00    -0.279 N 
ATOM      9  C   UNL     1      35.020 -17.361 -22.768  0.00  0.00    +0.250 C 
ATOM     10  H   UNL     1      34.182 -16.194 -21.330  0.00  0.00    +0.155 HD
BRANCH   8  11
ATOM     11  C   UNL     1      34.210 -14.964 -22.966  0.00  0.00    +0.064 C 
ATOM     12  C   UNL     1      34.233 -13.758 -22.285  0.00  0.00    +0.055 C 
ATOM     13  C   UNL     1      33.953 -15.020 -24.326  0.00  0.00    +0.016 C 
ATOM     14  C   UNL     1      33.993 -12.574 -22.985  0.00  0.00    +0.015 C 
ATOM     15  C   UNL     1      33.714 -13.837 -25.025  0.00  0.00    +0.001 C 
ATOM     16  C   UNL     1      33.733 -12.614 -24.354  0.00  0.00    +0.001 C 
BRANCH  12  17
ATOM     17  N   UNL     1      34.495 -13.694 -20.899  0.00  0.00    -0.356 N 
ATOM     18  H   UNL     1      33.754 -13.755 -20.254  0.00  0.00    +0.142 HD
ATOM     19  H   UNL     1      35.420 -13.588 -20.577  0.00  0.00    +0.142 HD
ENDBRANCH  12  17
ENDBRANCH   8  11
ENDBRANCH   2   9
BRANCH   1  20
ATOM     20  C   UNL     1      35.389 -21.705 -19.040  0.00  0.00    +0.124 C 
BRANCH  20  21
ATOM     21  N   UNL     1      34.073 -22.170 -18.657  0.00  0.00    -0.264 N 
ATOM     22  N   UNL     1      34.786 -22.756 -16.499  0.00  0.00    -0.338 NA
ATOM     23  N   UNL     1      32.499 -23.087 -17.179  0.00  0.00    -0.170 NA
ATOM     24  C   UNL     1      33.778 -22.687 -17.407  0.00  0.00    +0.145 C 
ATOM     25  C   UNL     1      34.463 -23.264 -15.293  0.00  0.00    +0.147 C 
ATOM     26  C   UNL     1      33.197 -23.699 -14.958  0.00  0.00    +0.055 C 
ATOM     27  C   UNL     1      32.245 -23.586 -15.950  0.00  0.00    +0.114 C 
ATOM     28  H   UNL     1      33.349 -22.116 -19.322  0.00  0.00    +0.160 HD
BRANCH  25  30
ATOM     29  N   UNL     1      37.929 -23.326 -13.925  0.00  0.00    -0.242 NA
ATOM     30  C   UNL     1      35.549 -23.328 -14.343  0.00  0.00    +0.050 C 
ATOM     31  C   UNL     1      35.302 -23.452 -12.979  0.00  0.00    +0.006 C 
ATOM     32  C   UNL     1      36.869 -23.269 -14.760  0.00  0.00    +0.101 C 
ATOM     33  C   UNL     1      36.368 -23.513 -12.088  0.00  0.00    +0.021 C 
ATOM     34  C   UNL     1      37.652 -23.446 -12.607  0.00  0.00    +0.099 C 
ENDBRANCH  25  30
ENDBRANCH  20  21
ENDBRANCH   1  20
TORSDOF 6
ENDMDL
MODEL 7
REMARK VINA RESULT:     -10.6      8.488     15.623
REMARK  Name = 9865515
REMARK  6 active torsions:
REMARK  status: ('A' for Active; 'I' for Inactive)
REMARK    1  A    between atoms: C_1  and  C_20
REMARK    2  A    between atoms: C_2  and  C_9
REMARK    3  A    between atoms: N_8  and  C_11
REMARK    4  A    between atoms: C_12  and  N_17
REMARK    5  A    between atoms: C_20  and  N_21
REMARK    6  A    between atoms: C_25  and  C_30
REMARK                            x       y       z     vdW  Elec       q    Type
REMARK                         _______ _______ _______ _____ _____    ______ ____
ROOT
ATOM      1  C   UNL     1      33.709 -12.646 -23.370  0.00  0.00    -0.002 C 
ATOM      2  C   UNL     1      34.445 -15.312 -23.005  0.00  0.00    +0.054 C 
ATOM      3  C   UNL     1      34.217 -13.068 -22.141  0.00  0.00    -0.002 C 
ATOM      4  C   UNL     1      33.568 -13.558 -24.416  0.00  0.00    -0.002 C 
ATOM      5  C   UNL     1      34.584 -14.400 -21.958  0.00  0.00    +0.004 C 
ATOM      6  C   UNL     1      33.936 -14.890 -24.234  0.00  0.00    +0.004 C 
ENDROOT
BRANCH   2   9
ATOM      7  O   UNL     1      34.976 -17.429 -23.809  0.00  0.00    -0.270 OA
ATOM      8  N   UNL     1      35.020 -17.106 -21.486  0.00  0.00    -0.279 N 
ATOM      9  C   UNL     1      34.826 -16.703 -22.814  0.00  0.00    +0.250 C 
ATOM     10  H   UNL     1      34.862 -16.417 -20.801  0.00  0.00    +0.155 HD
BRANCH   8  11
ATOM     11  C   UNL     1      35.414 -18.378 -21.000  0.00  0.00    +0.064 C 
ATOM     12  C   UNL     1      36.752 -18.734 -20.978  0.00  0.00    +0.055 C 
ATOM     13  C   UNL     1      34.429 -19.245 -20.554  0.00  0.00    +0.016 C 
ATOM     14  C   UNL     1      37.115 -19.992 -20.496  0.00  0.00    +0.015 C 
ATOM     15  C   UNL     1      34.792 -20.502 -20.073  0.00  0.00    +0.001 C 
ATOM     16  C   UNL     1      36.136 -20.876 -20.043  0.00  0.00    +0.001 C 
BRANCH  12  17
ATOM     17  N   UNL     1      37.761 -17.855 -21.429  0.00  0.00    -0.356 N 
ATOM     18  H   UNL     1      37.526 -17.090 -22.003  0.00  0.00    +0.142 HD
ATOM     19  H   UNL     1      38.699 -18.007 -21.170  0.00  0.00    +0.142 HD
ENDBRANCH  12  17
ENDBRANCH   8  11
ENDBRANCH   2   9
BRANCH   1  20
ATOM     20  C   UNL     1      33.316 -11.220 -23.566  0.00  0.00    +0.124 C 
BRANCH  20  21
ATOM     21  N   UNL     1      32.752 -10.667 -22.354  0.00  0.00    -0.264 N 
ATOM     22  N   UNL     1      32.968  -8.462 -23.127  0.00  0.00    -0.338 NA
ATOM     23  N   UNL     1      32.038  -8.925 -20.953  0.00  0.00    -0.170 NA
ATOM     24  C   UNL     1      32.581  -9.310 -22.139  0.00  0.00    +0.145 C 
ATOM     25  C   UNL     1      32.787  -7.148 -22.884  0.00  0.00    +0.147 C 
ATOM     26  C   UNL     1      32.245  -6.652 -21.716  0.00  0.00    +0.055 C 
ATOM     27  C   UNL     1      31.885  -7.596 -20.776  0.00  0.00    +0.114 C 
ATOM     28  H   UNL     1      32.475 -11.290 -21.644  0.00  0.00    +0.160 HD
BRANCH  25  30
ATOM     29  N   UNL     1      32.597  -4.780 -25.756  0.00  0.00    -0.242 NA
ATOM     30  C   UNL     1      33.204  -6.264 -23.947  0.00  0.00    +0.050 C 
ATOM     31  C   UNL     1      34.552  -6.034 -24.201  0.00  0.00    +0.006 C 
ATOM     32  C   UNL     1      32.275  -5.618 -24.746  0.00  0.00    +0.101 C 
ATOM     33  C   UNL     1      34.924  -5.178 -25.231  0.00  0.00    +0.021 C 
ATOM     34  C   UNL     1      33.916  -4.581 -25.973  0.00  0.00    +0.099 C 
ENDBRANCH  25  30
ENDBRANCH  20  21
ENDBRANCH   1  20
TORSDOF 6
ENDMDL
MODEL 8
REMARK VINA RESULT:     -10.6      4.407      6.859
REMARK  Name = 9865515
REMARK  6 active torsions:
REMARK  status: ('A' for Active; 'I' for Inactive)
REMARK    1  A    between atoms: C_1  and  C_20
REMARK    2  A    between atoms: C_2  and  C_9
REMARK    3  A    between atoms: N_8  and  C_11
REMARK    4  A    between atoms: C_12  and  N_17
REMARK    5  A    between atoms: C_20  and  N_21
REMARK    6  A    between atoms: C_25  and  C_30
REMARK                            x       y       z     vdW  Elec       q    Type
REMARK                         _______ _______ _______ _____ _____    ______ ____
ROOT
ATOM      1  C   UNL     1      34.085 -22.507 -18.536  0.00  0.00    -0.002 C 
ATOM      2  C   UNL     1      34.911 -20.240 -19.935  0.00  0.00    +0.054 C 
ATOM      3  C   UNL     1      33.153 -21.742 -19.237  0.00  0.00    -0.002 C 
ATOM      4  C   UNL     1      35.430 -22.139 -18.535  0.00  0.00    -0.002 C 
ATOM      5  C   UNL     1      33.566 -20.608 -19.936  0.00  0.00    +0.004 C 
ATOM      6  C   UNL     1      35.843 -21.005 -19.234  0.00  0.00    +0.004 C 
ENDROOT
BRANCH   2   9
ATOM      7  O   UNL     1      36.441 -18.547 -20.389  0.00  0.00    -0.270 OA
ATOM      8  N   UNL     1      34.465 -18.594 -21.653  0.00  0.00    -0.279 N 
ATOM      9  C   UNL     1      35.342 -19.056 -20.662  0.00  0.00    +0.250 C 
ATOM     10  H   UNL     1      33.628 -19.102 -21.754  0.00  0.00    +0.155 HD
BRANCH   8  11
ATOM     11  C   UNL     1      34.626 -17.491 -22.528  0.00  0.00    +0.064 C 
ATOM     12  C   UNL     1      34.429 -17.645 -23.891  0.00  0.00    +0.055 C 
ATOM     13  C   UNL     1      34.984 -16.268 -21.985  0.00  0.00    +0.016 C 
ATOM     14  C   UNL     1      34.594 -16.545 -24.733  0.00  0.00    +0.015 C 
ATOM     15  C   UNL     1      35.149 -15.169 -22.826  0.00  0.00    +0.001 C 
ATOM     16  C   UNL     1      34.954 -15.307 -24.201  0.00  0.00    +0.001 C 
BRANCH  12  17
ATOM     17  N   UNL     1      34.063 -18.889 -24.451  0.00  0.00    -0.356 N 
ATOM     18  H   UNL     1      33.129 -19.197 -24.397  0.00  0.00    +0.142 HD
ATOM     19  H   UNL     1      34.741 -19.447 -24.896  0.00  0.00    +0.142 HD
ENDBRANCH  12  17
ENDBRANCH   8  11
ENDBRANCH   2   9
BRANCH   1  20
ATOM     20  C   UNL     1      33.644 -23.721 -17.789  0.00  0.00    +0.124 C 
BRANCH  20  21
ATOM     21  N   UNL     1      33.879 -23.569 -16.370  0.00  0.00    -0.264 N 
ATOM     22  N   UNL     1      31.602 -23.230 -15.916  0.00  0.00    -0.338 NA
ATOM     23  N   UNL     1      33.233 -23.205 -14.143  0.00  0.00    -0.170 NA
ATOM     24  C   UNL     1      32.874 -23.327 -15.449  0.00  0.00    +0.145 C 
ATOM     25  C   UNL     1      30.648 -22.995 -14.992  0.00  0.00    +0.147 C 
ATOM     26  C   UNL     1      30.905 -22.854 -13.643  0.00  0.00    +0.055 C 
ATOM     27  C   UNL     1      32.229 -22.970 -13.272  0.00  0.00    +0.114 C 
ATOM     28  H   UNL     1      34.804 -23.641 -16.041  0.00  0.00    +0.160 HD
BRANCH  25  30
ATOM     29  N   UNL     1      27.732 -23.375 -17.281  0.00  0.00    -0.242 NA
ATOM     30  C   UNL     1      29.303 -22.896 -15.508  0.00  0.00    +0.050 C 
ATOM     31  C   UNL     1      28.302 -22.256 -14.785  0.00  0.00    +0.006 C 
ATOM     32  C   UNL     1      28.969 -23.435 -16.740  0.00  0.00    +0.101 C 
ATOM     33  C   UNL     1      27.017 -22.175 -15.308  0.00  0.00    +0.021 C 
ATOM     34  C   UNL     1      26.785 -22.746 -16.550  0.00  0.00    +0.099 C 
ENDBRANCH  25  30
ENDBRANCH  20  21
ENDBRANCH   1  20
TORSDOF 6
ENDMDL
MODEL 9
REMARK VINA RESULT:     -10.4      1.989      2.685
REMARK  Name = 9865515
REMARK  6 active torsions:
REMARK  status: ('A' for Active; 'I' for Inactive)
REMARK    1  A    between atoms: C_1  and  C_20
REMARK    2  A    between atoms: C_2  and  C_9
REMARK    3  A    between atoms: N_8  and  C_11
REMARK    4  A    between atoms: C_12  and  N_17
REMARK    5  A    between atoms: C_20  and  N_21
REMARK    6  A    between atoms: C_25  and  C_30
REMARK                            x       y       z     vdW  Elec       q    Type
REMARK                         _______ _______ _______ _____ _____    ______ ____
ROOT
ATOM      1  C   UNL     1      34.438 -22.449 -17.740  0.00  0.00    -0.002 C 
ATOM      2  C   UNL     1      35.228 -20.561 -19.634  0.00  0.00    +0.054 C 
ATOM      3  C   UNL     1      33.488 -21.854 -18.569  0.00  0.00    -0.002 C 
ATOM      4  C   UNL     1      35.783 -22.100 -17.857  0.00  0.00    -0.002 C 
ATOM      5  C   UNL     1      33.883 -20.909 -19.516  0.00  0.00    +0.004 C 
ATOM      6  C   UNL     1      36.178 -21.156 -18.804  0.00  0.00    +0.004 C 
ENDROOT
BRANCH   2   9
ATOM      7  O   UNL     1      36.851 -19.405 -20.835  0.00  0.00    -0.270 OA
ATOM      8  N   UNL     1      34.603 -18.897 -21.278  0.00  0.00    -0.279 N 
ATOM      9  C   UNL     1      35.640 -19.574 -20.620  0.00  0.00    +0.250 C 
ATOM     10  H   UNL     1      33.691 -19.138 -20.999  0.00  0.00    +0.155 HD
BRANCH   8  11
ATOM     11  C   UNL     1      34.699 -17.912 -22.292  0.00  0.00    +0.064 C 
ATOM     12  C   UNL     1      34.452 -18.243 -23.614  0.00  0.00    +0.055 C 
ATOM     13  C   UNL     1      35.043 -16.622 -21.924  0.00  0.00    +0.016 C 
ATOM     14  C   UNL     1      34.552 -17.256 -24.595  0.00  0.00    +0.015 C 
ATOM     15  C   UNL     1      35.144 -15.635 -22.904  0.00  0.00    +0.001 C 
ATOM     16  C   UNL     1      34.899 -15.952 -24.241  0.00  0.00    +0.001 C 
BRANCH  12  17
ATOM     17  N   UNL     1      34.099 -19.556 -23.996  0.00  0.00    -0.356 N 
ATOM     18  H   UNL     1      33.549 -20.112 -23.398  0.00  0.00    +0.142 HD
ATOM     19  H   UNL     1      34.403 -19.916 -24.861  0.00  0.00    +0.142 HD
ENDBRANCH  12  17
ENDBRANCH   8  11
ENDBRANCH   2   9
BRANCH   1  20
ATOM     20  C   UNL     1      34.016 -23.461 -16.727  0.00  0.00    +0.124 C 
BRANCH  20  21
ATOM     21  N   UNL     1      34.296 -22.997 -15.385  0.00  0.00    -0.264 N 
ATOM     22  N   UNL     1      35.928 -24.648 -15.037  0.00  0.00    -0.338 NA
ATOM     23  N   UNL     1      35.402 -23.046 -13.316  0.00  0.00    -0.170 NA
ATOM     24  C   UNL     1      35.237 -23.582 -14.555  0.00  0.00    +0.145 C 
ATOM     25  C   UNL     1      36.836 -25.192 -14.202  0.00  0.00    +0.147 C 
ATOM     26  C   UNL     1      37.081 -24.726 -12.926  0.00  0.00    +0.055 C 
ATOM     27  C   UNL     1      36.326 -23.640 -12.533  0.00  0.00    +0.114 C 
ATOM     28  H   UNL     1      33.791 -22.224 -15.045  0.00  0.00    +0.160 HD
BRANCH  25  30
ATOM     29  N   UNL     1      39.666 -27.468 -15.041  0.00  0.00    -0.242 NA
ATOM     30  C   UNL     1      37.559 -26.323 -14.734  0.00  0.00    +0.050 C 
ATOM     31  C   UNL     1      36.901 -27.333 -15.429  0.00  0.00    +0.006 C 
ATOM     32  C   UNL     1      38.930 -26.438 -14.569  0.00  0.00    +0.101 C 
ATOM     33  C   UNL     1      37.624 -28.409 -15.930  0.00  0.00    +0.021 C 
ATOM     34  C   UNL     1      38.992 -28.430 -15.711  0.00  0.00    +0.099 C 
ENDBRANCH  25  30
ENDBRANCH  20  21
ENDBRANCH   1  20
TORSDOF 6
ENDMDL
