MODEL 1
REMARK VINA RESULT:     -11.9      0.000      0.000
REMARK  Name = 3168
REMARK  6 active torsions:
REMARK  status: ('A' for Active; 'I' for Inactive)
REMARK    1  A    between atoms: N_1  and  C_19
REMARK    2  A    between atoms: C_5  and  N_9
REMARK    3  A    between atoms: C_19  and  C_20
REMARK    4  A    between atoms: C_20  and  C_21
REMARK    5  A    between atoms: C_21  and  C_23
REMARK    6  A    between atoms: C_23  and  C_25
REMARK                            x       y       z     vdW  Elec       q    Type
REMARK                         _______ _______ _______ _____ _____    ______ ____
ROOT
ATOM      1  N   UNL     1      34.083 -15.913 -23.740  0.00  0.00    +0.390 N 
ATOM      2  C   UNL     1      34.923 -15.272 -22.720  0.00  0.00    -0.071 C 
ATOM      3  C   UNL     1      34.196 -14.062 -22.114  0.00  0.00    +0.021 C 
ATOM      4  C   UNL     1      33.820 -14.991 -24.857  0.00  0.00    -0.049 C 
ATOM      5  C   UNL     1      33.553 -13.191 -23.157  0.00  0.00    +0.037 C 
ATOM      6  C   UNL     1      33.396 -13.615 -24.420  0.00  0.00    -0.036 C 
ATOM      7  H   UNL     1      33.192 -16.151 -23.305  0.00  0.00    -0.079 HD
ENDROOT
BRANCH   5   9
ATOM      8  O   UNL     1      31.439 -12.447 -21.175  0.00  0.00    -0.246 OA
ATOM      9  N   UNL     1      33.151 -11.946 -22.767  0.00  0.00    -0.263 N 
ATOM     10  N   UNL     1      32.060 -10.237 -21.726  0.00  0.00    -0.305 N 
ATOM     11  C   UNL     1      33.673 -10.726 -23.238  0.00  0.00    +0.083 A 
ATOM     12  C   UNL     1      32.126 -11.656 -21.807  0.00  0.00    +0.332 A 
ATOM     13  C   UNL     1      32.999  -9.689 -22.596  0.00  0.00    +0.076 A 
ATOM     14  C   UNL     1      34.666 -10.468 -24.161  0.00  0.00    +0.019 C 
ATOM     15  C   UNL     1      33.277  -8.361 -22.838  0.00  0.00    +0.019 C 
ATOM     16  C   UNL     1      34.966  -9.127 -24.425  0.00  0.00    +0.002 C 
ATOM     17  C   UNL     1      34.279  -8.085 -23.770  0.00  0.00    +0.002 C 
ATOM     18  H   UNL     1      31.448  -9.725 -21.148  0.00  0.00    +0.170 HD
ENDBRANCH   5   9
BRANCH   1  19
ATOM     19  C   UNL     1      34.695 -17.150 -24.223  0.00  0.00    -0.076 C 
BRANCH  19  20
ATOM     20  C   UNL     1      34.233 -18.334 -23.372  0.00  0.00    -0.015 C 
BRANCH  20  21
ATOM     21  C   UNL     1      35.396 -19.016 -22.645  0.00  0.00    +0.067 C 
BRANCH  21  23
ATOM     22  O   UNL     1      35.675 -17.798 -20.579  0.00  0.00    -0.291 OA
ATOM     23  C   UNL     1      35.346 -18.844 -21.133  0.00  0.00    +0.173 C 
BRANCH  23  25
ATOM     24  F   UNL     1      33.534 -23.104 -18.011  0.00  0.00    -0.204 F 
ATOM     25  C   UNL     1      34.863 -19.983 -20.301  0.00  0.00    +0.035 C 
ATOM     26  C   UNL     1      33.508 -20.211 -20.217  0.00  0.00    +0.005 C 
ATOM     27  C   UNL     1      35.789 -20.763 -19.645  0.00  0.00    +0.005 C 
ATOM     28  C   UNL     1      33.054 -21.275 -19.436  0.00  0.00    +0.030 C 
ATOM     29  C   UNL     1      35.336 -21.827 -18.864  0.00  0.00    +0.030 C 
ATOM     30  C   UNL     1      33.968 -22.083 -18.760  0.00  0.00    +0.140 C 
ENDBRANCH  23  25
ENDBRANCH  21  23
ENDBRANCH  20  21
ENDBRANCH  19  20
ENDBRANCH   1  19
TORSDOF 6
ENDMDL
MODEL 2
REMARK VINA RESULT:     -11.6      3.815     10.073
REMARK  Name = 3168
REMARK  6 active torsions:
REMARK  status: ('A' for Active; 'I' for Inactive)
REMARK    1  A    between atoms: N_1  and  C_19
REMARK    2  A    between atoms: C_5  and  N_9
REMARK    3  A    between atoms: C_19  and  C_20
REMARK    4  A    between atoms: C_20  and  C_21
REMARK    5  A    between atoms: C_21  and  C_23
REMARK    6  A    between atoms: C_23  and  C_25
REMARK                            x       y       z     vdW  Elec       q    Type
REMARK                         _______ _______ _______ _____ _____    ______ ____
ROOT
ATOM      1  N   UNL     1      34.043 -15.795 -23.621  0.00  0.00    +0.390 N 
ATOM      2  C   UNL     1      34.648 -16.961 -24.276  0.00  0.00    -0.071 C 
ATOM      3  C   UNL     1      34.687 -18.155 -23.310  0.00  0.00    +0.021 C 
ATOM      4  C   UNL     1      34.852 -15.364 -22.468  0.00  0.00    -0.049 C 
ATOM      5  C   UNL     1      35.174 -17.776 -21.940  0.00  0.00    +0.037 C 
ATOM      6  C   UNL     1      35.264 -16.492 -21.562  0.00  0.00    -0.036 C 
ATOM      7  H   UNL     1      33.123 -16.071 -23.281  0.00  0.00    -0.079 HD
ENDROOT
BRANCH   5   9
ATOM      8  O   UNL     1      37.913 -18.530 -20.998  0.00  0.00    -0.246 OA
ATOM      9  N   UNL     1      35.538 -18.793 -21.105  0.00  0.00    -0.263 N 
ATOM     10  N   UNL     1      36.765 -20.230 -19.830  0.00  0.00    -0.305 N 
ATOM     11  C   UNL     1      34.664 -19.717 -20.501  0.00  0.00    +0.083 A 
ATOM     12  C   UNL     1      36.876 -19.102 -20.691  0.00  0.00    +0.332 A 
ATOM     13  C   UNL     1      35.424 -20.591 -19.725  0.00  0.00    +0.076 A 
ATOM     14  C   UNL     1      33.292 -19.844 -20.582  0.00  0.00    +0.019 C 
ATOM     15  C   UNL     1      34.863 -21.619 -19.001  0.00  0.00    +0.019 C 
ATOM     16  C   UNL     1      32.698 -20.882 -19.855  0.00  0.00    +0.002 C 
ATOM     17  C   UNL     1      33.476 -21.760 -19.073  0.00  0.00    +0.002 C 
ATOM     18  H   UNL     1      37.516 -20.682 -19.381  0.00  0.00    +0.170 HD
ENDBRANCH   5   9
BRANCH   1  19
ATOM     19  C   UNL     1      33.863 -14.695 -24.567  0.00  0.00    -0.076 C 
BRANCH  19  20
ATOM     20  C   UNL     1      33.085 -13.555 -23.909  0.00  0.00    -0.015 C 
BRANCH  20  21
ATOM     21  C   UNL     1      34.003 -12.432 -23.417  0.00  0.00    +0.067 C 
BRANCH  21  23
ATOM     22  O   UNL     1      33.989 -11.240 -25.516  0.00  0.00    -0.291 OA
ATOM     23  C   UNL     1      33.953 -11.185 -24.289  0.00  0.00    +0.173 C 
BRANCH  23  25
ATOM     24  F   UNL     1      33.515  -6.201 -21.811  0.00  0.00    -0.204 F 
ATOM     25  C   UNL     1      33.838  -9.855 -23.626  0.00  0.00    +0.035 C 
ATOM     26  C   UNL     1      32.707  -9.580 -22.890  0.00  0.00    +0.005 C 
ATOM     27  C   UNL     1      34.864  -8.950 -23.776  0.00  0.00    +0.005 C 
ATOM     28  C   UNL     1      32.597  -8.334 -22.272  0.00  0.00    +0.030 C 
ATOM     29  C   UNL     1      34.755  -7.704 -23.158  0.00  0.00    +0.030 C 
ATOM     30  C   UNL     1      33.621  -7.396 -22.405  0.00  0.00    +0.140 C 
ENDBRANCH  23  25
ENDBRANCH  21  23
ENDBRANCH  20  21
ENDBRANCH  19  20
ENDBRANCH   1  19
TORSDOF 6
ENDMDL
MODEL 3
REMARK VINA RESULT:     -11.5      1.502      2.549
REMARK  Name = 3168
REMARK  6 active torsions:
REMARK  status: ('A' for Active; 'I' for Inactive)
REMARK    1  A    between atoms: N_1  and  C_19
REMARK    2  A    between atoms: C_5  and  N_9
REMARK    3  A    between atoms: C_19  and  C_20
REMARK    4  A    between atoms: C_20  and  C_21
REMARK    5  A    between atoms: C_21  and  C_23
REMARK    6  A    between atoms: C_23  and  C_25
REMARK                            x       y       z     vdW  Elec       q    Type
REMARK                         _______ _______ _______ _____ _____    ______ ____
ROOT
ATOM      1  N   UNL     1      34.735 -15.796 -23.960  0.00  0.00    +0.390 N 
ATOM      2  C   UNL     1      33.474 -15.378 -24.587  0.00  0.00    -0.071 C 
ATOM      3  C   UNL     1      33.413 -13.846 -24.692  0.00  0.00    +0.021 C 
ATOM      4  C   UNL     1      34.828 -15.286 -22.582  0.00  0.00    -0.049 C 
ATOM      5  C   UNL     1      33.838 -13.162 -23.423  0.00  0.00    +0.037 C 
ATOM      6  C   UNL     1      34.474 -13.830 -22.449  0.00  0.00    -0.036 C 
ATOM      7  H   UNL     1      35.500 -15.395 -24.502  0.00  0.00    -0.079 HD
ENDROOT
BRANCH   5   9
ATOM      8  O   UNL     1      34.754 -10.869 -25.113  0.00  0.00    -0.246 OA
ATOM      9  N   UNL     1      33.534 -11.837 -23.298  0.00  0.00    -0.263 N 
ATOM     10  N   UNL     1      33.434  -9.585 -23.637  0.00  0.00    -0.305 N 
ATOM     11  C   UNL     1      32.700 -11.271 -22.315  0.00  0.00    +0.083 A 
ATOM     12  C   UNL     1      34.009 -10.783 -24.146  0.00  0.00    +0.332 A 
ATOM     13  C   UNL     1      32.646  -9.895 -22.531  0.00  0.00    +0.076 A 
ATOM     14  C   UNL     1      32.007 -11.857 -21.276  0.00  0.00    +0.019 C 
ATOM     15  C   UNL     1      31.908  -9.047 -21.735  0.00  0.00    +0.019 C 
ATOM     16  C   UNL     1      31.250 -11.017 -20.452  0.00  0.00    +0.002 C 
ATOM     17  C   UNL     1      31.202  -9.626 -20.679  0.00  0.00    +0.002 C 
ATOM     18  H   UNL     1      33.570  -8.682 -24.007  0.00  0.00    +0.170 HD
ENDBRANCH   5   9
BRANCH   1  19
ATOM     19  C   UNL     1      34.877 -17.250 -23.985  0.00  0.00    -0.076 C 
BRANCH  19  20
ATOM     20  C   UNL     1      35.525 -17.740 -22.689  0.00  0.00    -0.015 C 
BRANCH  20  21
ATOM     21  C   UNL     1      34.834 -18.986 -22.128  0.00  0.00    +0.067 C 
BRANCH  21  23
ATOM     22  O   UNL     1      36.720 -19.343 -20.664  0.00  0.00    -0.291 OA
ATOM     23  C   UNL     1      35.538 -19.572 -20.913  0.00  0.00    +0.173 C 
BRANCH  23  25
ATOM     24  F   UNL     1      32.619 -22.823 -17.437  0.00  0.00    -0.204 F 
ATOM     25  C   UNL     1      34.758 -20.439 -19.984  0.00  0.00    +0.035 C 
ATOM     26  C   UNL     1      35.441 -21.305 -19.159  0.00  0.00    +0.005 C 
ATOM     27  C   UNL     1      33.385 -20.343 -19.986  0.00  0.00    +0.005 C 
ATOM     28  C   UNL     1      34.711 -22.118 -18.291  0.00  0.00    +0.030 C 
ATOM     29  C   UNL     1      32.655 -21.156 -19.119  0.00  0.00    +0.030 C 
ATOM     30  C   UNL     1      33.319 -22.043 -18.271  0.00  0.00    +0.140 C 
ENDBRANCH  23  25
ENDBRANCH  21  23
ENDBRANCH  20  21
ENDBRANCH  19  20
ENDBRANCH   1  19
TORSDOF 6
ENDMDL
MODEL 4
REMARK VINA RESULT:     -11.2      2.798      4.816
REMARK  Name = 3168
REMARK  6 active torsions:
REMARK  status: ('A' for Active; 'I' for Inactive)
REMARK    1  A    between atoms: N_1  and  C_19
REMARK    2  A    between atoms: C_5  and  N_9
REMARK    3  A    between atoms: C_19  and  C_20
REMARK    4  A    between atoms: C_20  and  C_21
REMARK    5  A    between atoms: C_21  and  C_23
REMARK    6  A    between atoms: C_23  and  C_25
REMARK                            x       y       z     vdW  Elec       q    Type
REMARK                         _______ _______ _______ _____ _____    ______ ____
ROOT
ATOM      1  N   UNL     1      32.655 -11.696 -22.005  0.00  0.00    +0.390 N 
ATOM      2  C   UNL     1      33.026 -10.845 -23.142  0.00  0.00    -0.071 C 
ATOM      3  C   UNL     1      33.294  -9.408 -22.668  0.00  0.00    +0.021 C 
ATOM      4  C   UNL     1      31.403 -11.227 -21.387  0.00  0.00    -0.049 C 
ATOM      5  C   UNL     1      32.243  -8.907 -21.717  0.00  0.00    +0.037 C 
ATOM      6  C   UNL     1      31.366  -9.744 -21.143  0.00  0.00    -0.036 C 
ATOM      7  H   UNL     1      33.398 -11.630 -21.310  0.00  0.00    -0.079 HD
ENDROOT
BRANCH   5   9
ATOM      8  O   UNL     1      32.761  -7.455 -19.153  0.00  0.00    -0.246 OA
ATOM      9  N   UNL     1      32.210  -7.563 -21.478  0.00  0.00    -0.263 N 
ATOM     10  N   UNL     1      32.320  -5.532 -20.450  0.00  0.00    -0.305 N 
ATOM     11  C   UNL     1      31.915  -6.564 -22.424  0.00  0.00    +0.083 A 
ATOM     12  C   UNL     1      32.469  -6.928 -20.219  0.00  0.00    +0.332 A 
ATOM     13  C   UNL     1      31.985  -5.327 -21.786  0.00  0.00    +0.076 A 
ATOM     14  C   UNL     1      31.599  -6.658 -23.764  0.00  0.00    +0.019 C 
ATOM     15  C   UNL     1      31.748  -4.138 -22.442  0.00  0.00    +0.019 C 
ATOM     16  C   UNL     1      31.353  -5.465 -24.453  0.00  0.00    +0.002 C 
ATOM     17  C   UNL     1      31.427  -4.218 -23.798  0.00  0.00    +0.002 C 
ATOM     18  H   UNL     1      32.435  -4.825 -19.774  0.00  0.00    +0.170 HD
ENDBRANCH   5   9
BRANCH   1  19
ATOM     19  C   UNL     1      32.540 -13.095 -22.411  0.00  0.00    -0.076 C 
BRANCH  19  20
ATOM     20  C   UNL     1      33.475 -13.383 -23.587  0.00  0.00    -0.015 C 
BRANCH  20  21
ATOM     21  C   UNL     1      34.594 -14.360 -23.214  0.00  0.00    +0.067 C 
BRANCH  21  23
ATOM     22  O   UNL     1      34.198 -15.799 -25.112  0.00  0.00    -0.291 OA
ATOM     23  C   UNL     1      34.481 -15.704 -23.920  0.00  0.00    +0.173 C 
BRANCH  23  25
ATOM     24  F   UNL     1      35.471 -20.353 -20.989  0.00  0.00    -0.204 F 
ATOM     25  C   UNL     1      34.744 -16.946 -23.137  0.00  0.00    +0.035 C 
ATOM     26  C   UNL     1      35.346 -16.834 -21.904  0.00  0.00    +0.005 C 
ATOM     27  C   UNL     1      34.376 -18.158 -23.676  0.00  0.00    +0.005 C 
ATOM     28  C   UNL     1      35.594 -17.995 -21.172  0.00  0.00    +0.030 C 
ATOM     29  C   UNL     1      34.624 -19.319 -22.945  0.00  0.00    +0.030 C 
ATOM     30  C   UNL     1      35.233 -19.238 -21.692  0.00  0.00    +0.140 C 
ENDBRANCH  23  25
ENDBRANCH  21  23
ENDBRANCH  20  21
ENDBRANCH  19  20
ENDBRANCH   1  19
TORSDOF 6
ENDMDL
MODEL 5
REMARK VINA RESULT:     -11.0      2.895      4.947
REMARK  Name = 3168
REMARK  6 active torsions:
REMARK  status: ('A' for Active; 'I' for Inactive)
REMARK    1  A    between atoms: N_1  and  C_19
REMARK    2  A    between atoms: C_5  and  N_9
REMARK    3  A    between atoms: C_19  and  C_20
REMARK    4  A    between atoms: C_20  and  C_21
REMARK    5  A    between atoms: C_21  and  C_23
REMARK    6  A    between atoms: C_23  and  C_25
REMARK                            x       y       z     vdW  Elec       q    Type
REMARK                         _______ _______ _______ _____ _____    ______ ____
ROOT
ATOM      1  N   UNL     1      33.486 -10.813 -24.010  0.00  0.00    +0.390 N 
ATOM      2  C   UNL     1      32.783 -10.906 -22.725  0.00  0.00    -0.071 C 
ATOM      3  C   UNL     1      32.150  -9.553 -22.364  0.00  0.00    +0.021 C 
ATOM      4  C   UNL     1      34.595  -9.848 -23.932  0.00  0.00    -0.049 C 
ATOM      5  C   UNL     1      33.087  -8.399 -22.581  0.00  0.00    +0.037 C 
ATOM      6  C   UNL     1      34.218  -8.542 -23.289  0.00  0.00    -0.036 C 
ATOM      7  H   UNL     1      32.820 -10.479 -24.706  0.00  0.00    -0.079 HD
ENDROOT
BRANCH   5   9
ATOM      8  O   UNL     1      33.023  -7.662 -19.682  0.00  0.00    -0.246 OA
ATOM      9  N   UNL     1      32.747  -7.205 -22.013  0.00  0.00    -0.263 N 
ATOM     10  N   UNL     1      32.321  -5.560 -20.494  0.00  0.00    -0.305 N 
ATOM     11  C   UNL     1      32.346  -6.047 -22.706  0.00  0.00    +0.083 A 
ATOM     12  C   UNL     1      32.737  -6.916 -20.609  0.00  0.00    +0.332 A 
ATOM     13  C   UNL     1      32.088  -5.048 -21.769  0.00  0.00    +0.076 A 
ATOM     14  C   UNL     1      32.196  -5.813 -24.058  0.00  0.00    +0.019 C 
ATOM     15  C   UNL     1      31.673  -3.784 -22.126  0.00  0.00    +0.019 C 
ATOM     16  C   UNL     1      31.774  -4.536 -24.447  0.00  0.00    +0.002 C 
ATOM     17  C   UNL     1      31.516  -3.532 -23.491  0.00  0.00    +0.002 C 
ATOM     18  H   UNL     1      32.215  -5.063 -19.650  0.00  0.00    +0.170 HD
ENDBRANCH   5   9
BRANCH   1  19
ATOM     19  C   UNL     1      33.969 -12.124 -24.441  0.00  0.00    -0.076 C 
BRANCH  19  20
ATOM     20  C   UNL     1      33.393 -13.221 -23.544  0.00  0.00    -0.015 C 
BRANCH  20  21
ATOM     21  C   UNL     1      34.456 -14.232 -23.106  0.00  0.00    +0.067 C 
BRANCH  21  23
ATOM     22  O   UNL     1      34.154 -15.573 -25.090  0.00  0.00    -0.291 OA
ATOM     23  C   UNL     1      34.408 -15.537 -23.888  0.00  0.00    +0.173 C 
BRANCH  23  25
ATOM     24  F   UNL     1      35.495 -20.308 -21.199  0.00  0.00    -0.204 F 
ATOM     25  C   UNL     1      34.696 -16.811 -23.170  0.00  0.00    +0.035 C 
ATOM     26  C   UNL     1      35.295 -16.750 -21.931  0.00  0.00    +0.005 C 
ATOM     27  C   UNL     1      34.355 -18.001 -23.771  0.00  0.00    +0.005 C 
ATOM     28  C   UNL     1      35.567 -17.942 -21.259  0.00  0.00    +0.030 C 
ATOM     29  C   UNL     1      34.628 -19.194 -23.100  0.00  0.00    +0.030 C 
ATOM     30  C   UNL     1      35.234 -19.163 -21.844  0.00  0.00    +0.140 C 
ENDBRANCH  23  25
ENDBRANCH  21  23
ENDBRANCH  20  21
ENDBRANCH  19  20
ENDBRANCH   1  19
TORSDOF 6
ENDMDL
MODEL 6
REMARK VINA RESULT:     -10.8      3.293      5.828
REMARK  Name = 3168
REMARK  6 active torsions:
REMARK  status: ('A' for Active; 'I' for Inactive)
REMARK    1  A    between atoms: N_1  and  C_19
REMARK    2  A    between atoms: C_5  and  N_9
REMARK    3  A    between atoms: C_19  and  C_20
REMARK    4  A    between atoms: C_20  and  C_21
REMARK    5  A    between atoms: C_21  and  C_23
REMARK    6  A    between atoms: C_23  and  C_25
REMARK                            x       y       z     vdW  Elec       q    Type
REMARK                         _______ _______ _______ _____ _____    ______ ____
ROOT
ATOM      1  N   UNL     1      35.846 -19.920 -19.832  0.00  0.00    +0.390 N 
ATOM      2  C   UNL     1      36.934 -19.429 -20.685  0.00  0.00    -0.071 C 
ATOM      3  C   UNL     1      36.545 -18.086 -21.325  0.00  0.00    +0.021 C 
ATOM      4  C   UNL     1      34.634 -20.181 -20.627  0.00  0.00    -0.049 C 
ATOM      5  C   UNL     1      35.150 -18.095 -21.884  0.00  0.00    +0.037 C 
ATOM      6  C   UNL     1      34.280 -19.067 -21.574  0.00  0.00    -0.036 C 
ATOM      7  H   UNL     1      35.631 -19.193 -19.150  0.00  0.00    -0.079 HD
ENDROOT
BRANCH   5   9
ATOM      8  O   UNL     1      34.739 -18.200 -24.846  0.00  0.00    -0.246 OA
ATOM      9  N   UNL     1      34.814 -17.081 -22.734  0.00  0.00    -0.263 N 
ATOM     10  N   UNL     1      34.291 -15.895 -24.609  0.00  0.00    -0.305 N 
ATOM     11  C   UNL     1      34.587 -15.740 -22.370  0.00  0.00    +0.083 A 
ATOM     12  C   UNL     1      34.631 -17.199 -24.151  0.00  0.00    +0.332 A 
ATOM     13  C   UNL     1      34.269 -15.024 -23.522  0.00  0.00    +0.076 A 
ATOM     14  C   UNL     1      34.638 -15.121 -21.137  0.00  0.00    +0.019 C 
ATOM     15  C   UNL     1      33.989 -13.675 -23.505  0.00  0.00    +0.019 C 
ATOM     16  C   UNL     1      34.359 -13.751 -21.093  0.00  0.00    +0.002 C 
ATOM     17  C   UNL     1      34.037 -13.036 -22.265  0.00  0.00    +0.002 C 
ATOM     18  H   UNL     1      34.103 -15.648 -25.544  0.00  0.00    +0.170 HD
ENDBRANCH   5   9
BRANCH   1  19
ATOM     19  C   UNL     1      36.252 -21.119 -19.100  0.00  0.00    -0.076 C 
BRANCH  19  20
ATOM     20  C   UNL     1      35.116 -22.142 -19.089  0.00  0.00    -0.015 C 
BRANCH  20  21
ATOM     21  C   UNL     1      34.610 -22.434 -17.673  0.00  0.00    +0.067 C 
BRANCH  21  23
ATOM     22  O   UNL     1      32.363 -22.125 -18.499  0.00  0.00    -0.291 OA
ATOM     23  C   UNL     1      33.092 -22.451 -17.564  0.00  0.00    +0.173 C 
BRANCH  23  25
ATOM     24  F   UNL     1      30.767 -24.115 -12.769  0.00  0.00    -0.204 F 
ATOM     25  C   UNL     1      32.472 -22.897 -16.284  0.00  0.00    +0.035 C 
ATOM     26  C   UNL     1      31.099 -22.951 -16.200  0.00  0.00    +0.005 C 
ATOM     27  C   UNL     1      33.294 -23.235 -15.233  0.00  0.00    +0.005 C 
ATOM     28  C   UNL     1      30.518 -23.367 -15.001  0.00  0.00    +0.030 C 
ATOM     29  C   UNL     1      32.714 -23.650 -14.035  0.00  0.00    +0.030 C 
ATOM     30  C   UNL     1      31.325 -23.716 -13.919  0.00  0.00    +0.140 C 
ENDBRANCH  23  25
ENDBRANCH  21  23
ENDBRANCH  20  21
ENDBRANCH  19  20
ENDBRANCH   1  19
TORSDOF 6
ENDMDL
MODEL 7
REMARK VINA RESULT:     -10.6      5.402     11.640
REMARK  Name = 3168
REMARK  6 active torsions:
REMARK  status: ('A' for Active; 'I' for Inactive)
REMARK    1  A    between atoms: N_1  and  C_19
REMARK    2  A    between atoms: C_5  and  N_9
REMARK    3  A    between atoms: C_19  and  C_20
REMARK    4  A    between atoms: C_20  and  C_21
REMARK    5  A    between atoms: C_21  and  C_23
REMARK    6  A    between atoms: C_23  and  C_25
REMARK                            x       y       z     vdW  Elec       q    Type
REMARK                         _______ _______ _______ _____ _____    ______ ____
ROOT
ATOM      1  N   UNL     1      34.955 -21.262 -18.842  0.00  0.00    +0.390 N 
ATOM      2  C   UNL     1      34.104 -22.435 -19.071  0.00  0.00    -0.071 C 
ATOM      3  C   UNL     1      33.474 -22.902 -17.748  0.00  0.00    +0.021 C 
ATOM      4  C   UNL     1      36.077 -21.594 -17.948  0.00  0.00    -0.049 C 
ATOM      5  C   UNL     1      34.466 -22.950 -16.620  0.00  0.00    +0.037 C 
ATOM      6  C   UNL     1      35.667 -22.361 -16.722  0.00  0.00    -0.036 C 
ATOM      7  H   UNL     1      34.386 -20.546 -18.390  0.00  0.00    -0.079 HD
ENDROOT
BRANCH   5   9
ATOM      8  O   UNL     1      36.097 -24.829 -14.958  0.00  0.00    -0.246 OA
ATOM      9  N   UNL     1      34.098 -23.632 -15.496  0.00  0.00    -0.263 N 
ATOM     10  N   UNL     1      34.128 -24.992 -13.668  0.00  0.00    -0.305 N 
ATOM     11  C   UNL     1      32.834 -23.582 -14.878  0.00  0.00    +0.083 A 
ATOM     12  C   UNL     1      34.932 -24.522 -14.743  0.00  0.00    +0.332 A 
ATOM     13  C   UNL     1      32.863 -24.417 -13.762  0.00  0.00    +0.076 A 
ATOM     14  C   UNL     1      31.695 -22.879 -15.213  0.00  0.00    +0.019 C 
ATOM     15  C   UNL     1      31.774 -24.590 -12.936  0.00  0.00    +0.019 C 
ATOM     16  C   UNL     1      30.574 -23.038 -14.390  0.00  0.00    +0.002 C 
ATOM     17  C   UNL     1      30.614 -23.885 -13.263  0.00  0.00    +0.002 C 
ATOM     18  H   UNL     1      34.418 -25.624 -12.969  0.00  0.00    +0.170 HD
ENDBRANCH   5   9
BRANCH   1  19
ATOM     19  C   UNL     1      35.445 -20.715 -20.107  0.00  0.00    -0.076 C 
BRANCH  19  20
ATOM     20  C   UNL     1      34.418 -19.748 -20.697  0.00  0.00    -0.015 C 
BRANCH  20  21
ATOM     21  C   UNL     1      34.718 -19.402 -22.159  0.00  0.00    +0.067 C 
BRANCH  21  23
ATOM     22  O   UNL     1      36.840 -18.254 -22.073  0.00  0.00    -0.291 OA
ATOM     23  C   UNL     1      35.637 -18.199 -22.319  0.00  0.00    +0.173 C 
BRANCH  23  25
ATOM     24  F   UNL     1      33.456 -13.397 -24.151  0.00  0.00    -0.204 F 
ATOM     25  C   UNL     1      35.056 -16.917 -22.809  0.00  0.00    +0.035 C 
ATOM     26  C   UNL     1      34.976 -15.853 -21.939  0.00  0.00    +0.005 C 
ATOM     27  C   UNL     1      34.620 -16.844 -24.113  0.00  0.00    +0.005 C 
ATOM     28  C   UNL     1      34.430 -14.653 -22.396  0.00  0.00    +0.030 C 
ATOM     29  C   UNL     1      34.074 -15.645 -24.571  0.00  0.00    +0.030 C 
ATOM     30  C   UNL     1      33.979 -14.549 -23.712  0.00  0.00    +0.140 C 
ENDBRANCH  23  25
ENDBRANCH  21  23
ENDBRANCH  20  21
ENDBRANCH  19  20
ENDBRANCH   1  19
TORSDOF 6
ENDMDL
MODEL 8
REMARK VINA RESULT:     -10.3      5.295      7.536
REMARK  Name = 3168
REMARK  6 active torsions:
REMARK  status: ('A' for Active; 'I' for Inactive)
REMARK    1  A    between atoms: N_1  and  C_19
REMARK    2  A    between atoms: C_5  and  N_9
REMARK    3  A    between atoms: C_19  and  C_20
REMARK    4  A    between atoms: C_20  and  C_21
REMARK    5  A    between atoms: C_21  and  C_23
REMARK    6  A    between atoms: C_23  and  C_25
REMARK                            x       y       z     vdW  Elec       q    Type
REMARK                         _______ _______ _______ _____ _____    ______ ____
ROOT
ATOM      1  N   UNL     1      31.572  -9.490 -20.356  0.00  0.00    +0.390 N 
ATOM      2  C   UNL     1      32.594  -8.543 -19.894  0.00  0.00    -0.071 C 
ATOM      3  C   UNL     1      32.274  -7.127 -20.399  0.00  0.00    +0.021 C 
ATOM      4  C   UNL     1      31.560  -9.572 -21.826  0.00  0.00    -0.049 C 
ATOM      5  C   UNL     1      31.887  -7.104 -21.851  0.00  0.00    +0.037 C 
ATOM      6  C   UNL     1      31.574  -8.231 -22.507  0.00  0.00    -0.036 C 
ATOM      7  H   UNL     1      30.663  -9.145 -20.047  0.00  0.00    -0.079 HD
ENDROOT
BRANCH   5   9
ATOM      8  O   UNL     1      30.027  -4.797 -21.435  0.00  0.00    -0.246 OA
ATOM      9  N   UNL     1      31.883  -5.890 -22.475  0.00  0.00    -0.263 N 
ATOM     10  N   UNL     1      31.342  -3.767 -23.103  0.00  0.00    -0.305 N 
ATOM     11  C   UNL     1      32.786  -5.471 -23.471  0.00  0.00    +0.083 A 
ATOM     12  C   UNL     1      30.959  -4.822 -22.228  0.00  0.00    +0.332 A 
ATOM     13  C   UNL     1      32.447  -4.173 -23.848  0.00  0.00    +0.076 A 
ATOM     14  C   UNL     1      33.852  -6.128 -24.053  0.00  0.00    +0.019 C 
ATOM     15  C   UNL     1      33.142  -3.474 -24.809  0.00  0.00    +0.019 C 
ATOM     16  C   UNL     1      34.574  -5.438 -25.033  0.00  0.00    +0.002 C 
ATOM     17  C   UNL     1      34.223  -4.125 -25.407  0.00  0.00    +0.002 C 
ATOM     18  H   UNL     1      30.897  -2.890 -23.171  0.00  0.00    +0.170 HD
ENDBRANCH   5   9
BRANCH   1  19
ATOM     19  C   UNL     1      31.775 -10.812 -19.765  0.00  0.00    -0.076 C 
BRANCH  19  20
ATOM     20  C   UNL     1      31.661 -11.894 -20.841  0.00  0.00    -0.015 C 
BRANCH  20  21
ATOM     21  C   UNL     1      32.339 -13.203 -20.423  0.00  0.00    +0.067 C 
BRANCH  21  23
ATOM     22  O   UNL     1      34.572 -14.063 -20.738  0.00  0.00    -0.291 OA
ATOM     23  C   UNL     1      33.586 -13.522 -21.234  0.00  0.00    +0.173 C 
BRANCH  23  25
ATOM     24  F   UNL     1      33.648 -12.252 -26.671  0.00  0.00    -0.204 F 
ATOM     25  C   UNL     1      33.601 -13.182 -22.686  0.00  0.00    +0.035 C 
ATOM     26  C   UNL     1      33.385 -14.187 -23.601  0.00  0.00    +0.005 C 
ATOM     27  C   UNL     1      33.833 -11.877 -23.057  0.00  0.00    +0.005 C 
ATOM     28  C   UNL     1      33.401 -13.870 -24.960  0.00  0.00    +0.030 C 
ATOM     29  C   UNL     1      33.849 -11.559 -24.415  0.00  0.00    +0.030 C 
ATOM     30  C   UNL     1      33.633 -12.556 -25.367  0.00  0.00    +0.140 C 
ENDBRANCH  23  25
ENDBRANCH  21  23
ENDBRANCH  20  21
ENDBRANCH  19  20
ENDBRANCH   1  19
TORSDOF 6
ENDMDL
MODEL 9
REMARK VINA RESULT:     -10.3      4.003      6.631
REMARK  Name = 3168
REMARK  6 active torsions:
REMARK  status: ('A' for Active; 'I' for Inactive)
REMARK    1  A    between atoms: N_1  and  C_19
REMARK    2  A    between atoms: C_5  and  N_9
REMARK    3  A    between atoms: C_19  and  C_20
REMARK    4  A    between atoms: C_20  and  C_21
REMARK    5  A    between atoms: C_21  and  C_23
REMARK    6  A    between atoms: C_23  and  C_25
REMARK                            x       y       z     vdW  Elec       q    Type
REMARK                         _______ _______ _______ _____ _____    ______ ____
ROOT
ATOM      1  N   UNL     1      31.605  -9.413 -20.408  0.00  0.00    +0.390 N 
ATOM      2  C   UNL     1      32.642  -8.475 -19.964  0.00  0.00    -0.071 C 
ATOM      3  C   UNL     1      32.329  -7.057 -20.465  0.00  0.00    +0.021 C 
ATOM      4  C   UNL     1      31.569  -9.497 -21.878  0.00  0.00    -0.049 C 
ATOM      5  C   UNL     1      31.918  -7.032 -21.911  0.00  0.00    +0.037 C 
ATOM      6  C   UNL     1      31.585  -8.157 -22.561  0.00  0.00    -0.036 C 
ATOM      7  H   UNL     1      30.705  -9.059 -20.085  0.00  0.00    -0.079 HD
ENDROOT
BRANCH   5   9
ATOM      8  O   UNL     1      30.068  -4.718 -21.492  0.00  0.00    -0.246 OA
ATOM      9  N   UNL     1      31.916  -5.818 -22.537  0.00  0.00    -0.263 N 
ATOM     10  N   UNL     1      31.380  -3.694 -23.166  0.00  0.00    -0.305 N 
ATOM     11  C   UNL     1      32.817  -5.404 -23.537  0.00  0.00    +0.083 A 
ATOM     12  C   UNL     1      30.997  -4.747 -22.288  0.00  0.00    +0.332 A 
ATOM     13  C   UNL     1      32.480  -4.106 -23.914  0.00  0.00    +0.076 A 
ATOM     14  C   UNL     1      33.878  -6.065 -24.122  0.00  0.00    +0.019 C 
ATOM     15  C   UNL     1      33.174  -3.410 -24.880  0.00  0.00    +0.019 C 
ATOM     16  C   UNL     1      34.599  -5.379 -25.106  0.00  0.00    +0.002 C 
ATOM     17  C   UNL     1      34.250  -4.065 -25.481  0.00  0.00    +0.002 C 
ATOM     18  H   UNL     1      30.938  -2.816 -23.234  0.00  0.00    +0.170 HD
ENDBRANCH   5   9
BRANCH   1  19
ATOM     19  C   UNL     1      31.805 -10.736 -19.819  0.00  0.00    -0.076 C 
BRANCH  19  20
ATOM     20  C   UNL     1      31.498 -11.825 -20.849  0.00  0.00    -0.015 C 
BRANCH  20  21
ATOM     21  C   UNL     1      32.583 -12.904 -20.895  0.00  0.00    +0.067 C 
BRANCH  21  23
ATOM     22  O   UNL     1      33.459 -11.985 -22.948  0.00  0.00    -0.291 OA
ATOM     23  C   UNL     1      33.311 -12.971 -22.230  0.00  0.00    +0.173 C 
BRANCH  23  25
ATOM     24  F   UNL     1      35.433 -17.867 -23.876  0.00  0.00    -0.204 F 
ATOM     25  C   UNL     1      33.879 -14.278 -22.669  0.00  0.00    +0.035 C 
ATOM     26  C   UNL     1      33.682 -14.679 -23.972  0.00  0.00    +0.005 C 
ATOM     27  C   UNL     1      34.578 -15.035 -21.757  0.00  0.00    +0.005 C 
ATOM     28  C   UNL     1      34.211 -15.903 -24.383  0.00  0.00    +0.030 C 
ATOM     29  C   UNL     1      35.108 -16.259 -22.167  0.00  0.00    +0.030 C 
ATOM     30  C   UNL     1      34.924 -16.693 -23.481  0.00  0.00    +0.140 C 
ENDBRANCH  23  25
ENDBRANCH  21  23
ENDBRANCH  20  21
ENDBRANCH  19  20
ENDBRANCH   1  19
TORSDOF 6
ENDMDL
