MODEL 1
REMARK VINA RESULT:     -12.3      0.000      0.000
REMARK  Name = 10156987
REMARK  5 active torsions:
REMARK  status: ('A' for Active; 'I' for Inactive)
REMARK    1  A    between atoms: C_2  and  C_23
REMARK    2  A    between atoms: C_9  and  C_13
REMARK    3  A    between atoms: C_23  and  N_24
REMARK    4  A    between atoms: C_25  and  C_31
REMARK    5  A    between atoms: C_31  and  N_32
REMARK                            x       y       z     vdW  Elec       q    Type
REMARK                         _______ _______ _______ _____ _____    ______ ____
ROOT
ATOM      1  N   UNL     1      34.950 -21.485 -18.417  0.00  0.00    -0.312 N 
ATOM      2  C   UNL     1      35.246 -19.269 -21.869  0.00  0.00    -0.043 C 
ATOM      3  C   UNL     1      34.026 -19.716 -21.362  0.00  0.00    -0.005 C 
ATOM      4  C   UNL     1      36.445 -19.552 -21.226  0.00  0.00    -0.005 C 
ATOM      5  C   UNL     1      34.018 -20.471 -20.171  0.00  0.00    +0.014 C 
ATOM      6  C   UNL     1      35.234 -20.744 -19.542  0.00  0.00    +0.048 C 
ATOM      7  C   UNL     1      36.462 -20.299 -20.045  0.00  0.00    +0.014 C 
ATOM      8  C   UNL     1      32.997 -21.074 -19.386  0.00  0.00    +0.016 C 
ATOM      9  C   UNL     1      33.600 -21.690 -18.315  0.00  0.00    +0.053 C 
ATOM     10  H   UNL     1      35.621 -21.821 -17.779  0.00  0.00    +0.152 HD
ENDROOT
BRANCH   9  13
ATOM     11  O   UNL     1      35.298 -23.001 -16.427  0.00  0.00    -0.270 OA
ATOM     12  N   UNL     1      33.533 -23.793 -15.197  0.00  0.00    -0.280 N 
ATOM     13  C   UNL     1      33.114 -22.446 -17.203  0.00  0.00    +0.067 C 
ATOM     14  C   UNL     1      31.789 -22.568 -17.009  0.00  0.00    +0.007 C 
ATOM     15  C   UNL     1      34.082 -23.093 -16.255  0.00  0.00    +0.251 C 
ATOM     16  C   UNL     1      31.258 -23.325 -15.878  0.00  0.00    +0.014 C 
ATOM     17  C   UNL     1      32.151 -23.926 -14.986  0.00  0.00    +0.051 C 
ATOM     18  C   UNL     1      29.883 -23.460 -15.668  0.00  0.00    +0.001 C 
ATOM     19  C   UNL     1      31.682 -24.656 -13.891  0.00  0.00    +0.015 C 
ATOM     20  C   UNL     1      29.411 -24.189 -14.574  0.00  0.00    +0.000 C 
ATOM     21  C   UNL     1      30.308 -24.786 -13.688  0.00  0.00    +0.001 C 
ATOM     22  H   UNL     1      34.145 -24.223 -14.556  0.00  0.00    +0.155 HD
ENDBRANCH   9  13
BRANCH   2  23
ATOM     23  C   UNL     1      35.262 -18.467 -23.137  0.00  0.00    -0.050 C 
BRANCH  23  24
ATOM     24  N   UNL     1      34.597 -17.174 -22.975  0.00  0.00    +0.390 N 
ATOM     25  C   UNL     1      34.437 -14.247 -23.048  0.00  0.00    -0.026 C 
ATOM     26  C   UNL     1      34.568 -15.031 -21.738  0.00  0.00    -0.025 C 
ATOM     27  C   UNL     1      33.792 -15.133 -24.119  0.00  0.00    -0.025 C 
ATOM     28  C   UNL     1      35.283 -16.365 -21.958  0.00  0.00    -0.077 C 
ATOM     29  C   UNL     1      34.532 -16.464 -24.260  0.00  0.00    -0.077 C 
ATOM     30  H   UNL     1      33.641 -17.335 -22.657  0.00  0.00    -0.079 HD
BRANCH  25  31
ATOM     31  C   UNL     1      33.635 -12.964 -22.842  0.00  0.00    -0.086 C 
BRANCH  31  32
ATOM     32  N   UNL     1      34.277 -11.839 -23.505  0.00  0.00    +0.380 N 
ATOM     33  H   UNL     1      34.577 -11.160 -22.806  0.00  0.00    -0.089 HD
ATOM     34  H   UNL     1      33.615 -11.399 -24.144  0.00  0.00    -0.089 HD
ATOM     35  H   UNL     1      35.088 -12.170 -24.028  0.00  0.00    -0.089 HD
ENDBRANCH  31  32
ENDBRANCH  25  31
ENDBRANCH  23  24
ENDBRANCH   2  23
TORSDOF 5
ENDMDL
MODEL 2
REMARK VINA RESULT:     -12.1      3.544     11.479
REMARK  Name = 10156987
REMARK  5 active torsions:
REMARK  status: ('A' for Active; 'I' for Inactive)
REMARK    1  A    between atoms: C_2  and  C_23
REMARK    2  A    between atoms: C_9  and  C_13
REMARK    3  A    between atoms: C_23  and  N_24
REMARK    4  A    between atoms: C_25  and  C_31
REMARK    5  A    between atoms: C_31  and  N_32
REMARK                            x       y       z     vdW  Elec       q    Type
REMARK                         _______ _______ _______ _____ _____    ______ ____
ROOT
ATOM      1  N   UNL     1      33.686 -13.886 -23.803  0.00  0.00    -0.312 N 
ATOM      2  C   UNL     1      35.227 -17.535 -22.695  0.00  0.00    -0.043 C 
ATOM      3  C   UNL     1      35.229 -16.426 -21.848  0.00  0.00    -0.005 C 
ATOM      4  C   UNL     1      34.695 -17.465 -23.977  0.00  0.00    -0.005 C 
ATOM      5  C   UNL     1      34.680 -15.213 -22.311  0.00  0.00    +0.014 C 
ATOM      6  C   UNL     1      34.151 -15.167 -23.603  0.00  0.00    +0.048 C 
ATOM      7  C   UNL     1      34.145 -16.274 -24.458  0.00  0.00    +0.014 C 
ATOM      8  C   UNL     1      34.515 -13.919 -21.745  0.00  0.00    +0.016 C 
ATOM      9  C   UNL     1      33.901 -13.125 -22.686  0.00  0.00    +0.053 C 
ATOM     10  H   UNL     1      33.260 -13.564 -24.631  0.00  0.00    +0.152 HD
ENDROOT
BRANCH   9  13
ATOM     11  O   UNL     1      31.476 -12.193 -21.497  0.00  0.00    -0.270 OA
ATOM     12  N   UNL     1      31.866 -10.016 -22.099  0.00  0.00    -0.280 N 
ATOM     13  C   UNL     1      33.482 -11.758 -22.709  0.00  0.00    +0.067 C 
ATOM     14  C   UNL     1      34.248 -10.837 -23.317  0.00  0.00    +0.007 C 
ATOM     15  C   UNL     1      32.194 -11.358 -22.047  0.00  0.00    +0.251 C 
ATOM     16  C   UNL     1      33.853  -9.430 -23.351  0.00  0.00    +0.014 C 
ATOM     17  C   UNL     1      32.660  -9.046 -22.732  0.00  0.00    +0.051 C 
ATOM     18  C   UNL     1      34.641  -8.463 -23.982  0.00  0.00    +0.001 C 
ATOM     19  C   UNL     1      32.250  -7.710 -22.741  0.00  0.00    +0.015 C 
ATOM     20  C   UNL     1      34.234  -7.127 -23.992  0.00  0.00    +0.000 C 
ATOM     21  C   UNL     1      33.041  -6.752 -23.374  0.00  0.00    +0.001 C 
ATOM     22  H   UNL     1      31.030  -9.725 -21.669  0.00  0.00    +0.155 HD
ENDBRANCH   9  13
BRANCH   2  23
ATOM     23  C   UNL     1      35.813 -18.828 -22.208  0.00  0.00    -0.050 C 
BRANCH  23  24
ATOM     24  N   UNL     1      35.094 -19.351 -21.047  0.00  0.00    +0.390 N 
ATOM     25  C   UNL     1      33.725 -21.424 -19.489  0.00  0.00    -0.026 C 
ATOM     26  C   UNL     1      32.968 -20.310 -20.220  0.00  0.00    -0.025 C 
ATOM     27  C   UNL     1      35.147 -20.957 -19.165  0.00  0.00    -0.025 C 
ATOM     28  C   UNL     1      33.752 -19.809 -21.434  0.00  0.00    -0.077 C 
ATOM     29  C   UNL     1      35.860 -20.434 -20.414  0.00  0.00    -0.077 C 
ATOM     30  H   UNL     1      34.986 -18.602 -20.364  0.00  0.00    -0.079 HD
BRANCH  25  31
ATOM     31  C   UNL     1      32.986 -21.851 -18.223  0.00  0.00    -0.086 C 
BRANCH  31  32
ATOM     32  N   UNL     1      33.207 -23.261 -17.943  0.00  0.00    +0.380 N 
ATOM     33  H   UNL     1      33.308 -23.396 -16.938  0.00  0.00    -0.089 HD
ATOM     34  H   UNL     1      34.056 -23.572 -18.415  0.00  0.00    -0.089 HD
ATOM     35  H   UNL     1      32.412 -23.804 -18.281  0.00  0.00    -0.089 HD
ENDBRANCH  31  32
ENDBRANCH  25  31
ENDBRANCH  23  24
ENDBRANCH   2  23
TORSDOF 5
ENDMDL
MODEL 3
REMARK VINA RESULT:     -11.7      2.046      2.854
REMARK  Name = 10156987
REMARK  5 active torsions:
REMARK  status: ('A' for Active; 'I' for Inactive)
REMARK    1  A    between atoms: C_2  and  C_23
REMARK    2  A    between atoms: C_9  and  C_13
REMARK    3  A    between atoms: C_23  and  N_24
REMARK    4  A    between atoms: C_25  and  C_31
REMARK    5  A    between atoms: C_31  and  N_32
REMARK                            x       y       z     vdW  Elec       q    Type
REMARK                         _______ _______ _______ _____ _____    ______ ____
ROOT
ATOM      1  N   UNL     1      36.177 -20.586 -19.125  0.00  0.00    -0.312 N 
ATOM      2  C   UNL     1      35.297 -18.478 -22.545  0.00  0.00    -0.043 C 
ATOM      3  C   UNL     1      34.353 -19.258 -21.876  0.00  0.00    -0.005 C 
ATOM      4  C   UNL     1      36.603 -18.368 -22.085  0.00  0.00    -0.005 C 
ATOM      5  C   UNL     1      34.743 -19.947 -20.710  0.00  0.00    +0.014 C 
ATOM      6  C   UNL     1      36.061 -19.823 -20.266  0.00  0.00    +0.048 C 
ATOM      7  C   UNL     1      37.012 -19.043 -20.931  0.00  0.00    +0.014 C 
ATOM      8  C   UNL     1      34.074 -20.808 -19.796  0.00  0.00    +0.016 C 
ATOM      9  C   UNL     1      34.981 -21.184 -18.834  0.00  0.00    +0.053 C 
ATOM     10  H   UNL     1      37.001 -20.686 -18.595  0.00  0.00    +0.152 HD
ENDROOT
BRANCH   9  13
ATOM     11  O   UNL     1      32.638 -22.630 -18.069  0.00  0.00    -0.270 OA
ATOM     12  N   UNL     1      33.650 -23.553 -16.231  0.00  0.00    -0.280 N 
ATOM     13  C   UNL     1      34.908 -22.021 -17.677  0.00  0.00    +0.067 C 
ATOM     14  C   UNL     1      35.985 -22.154 -16.882  0.00  0.00    +0.007 C 
ATOM     15  C   UNL     1      33.635 -22.752 -17.358  0.00  0.00    +0.251 C 
ATOM     16  C   UNL     1      35.948 -23.008 -15.697  0.00  0.00    +0.014 C 
ATOM     17  C   UNL     1      34.770 -23.698 -15.396  0.00  0.00    +0.051 C 
ATOM     18  C   UNL     1      37.060 -23.153 -14.864  0.00  0.00    +0.001 C 
ATOM     19  C   UNL     1      34.696 -24.526 -14.273  0.00  0.00    +0.015 C 
ATOM     20  C   UNL     1      36.989 -23.981 -13.740  0.00  0.00    +0.000 C 
ATOM     21  C   UNL     1      35.810 -24.665 -13.446  0.00  0.00    +0.001 C 
ATOM     22  H   UNL     1      32.831 -24.048 -16.002  0.00  0.00    +0.155 HD
ENDBRANCH   9  13
BRANCH   2  23
ATOM     23  C   UNL     1      34.889 -17.742 -23.788  0.00  0.00    -0.050 C 
BRANCH  23  24
ATOM     24  N   UNL     1      34.278 -16.449 -23.484  0.00  0.00    +0.390 N 
ATOM     25  C   UNL     1      34.235 -13.526 -23.249  0.00  0.00    -0.026 C 
ATOM     26  C   UNL     1      34.345 -14.448 -22.030  0.00  0.00    -0.025 C 
ATOM     27  C   UNL     1      33.546 -14.269 -24.398  0.00  0.00    -0.025 C 
ATOM     28  C   UNL     1      35.005 -15.779 -22.396  0.00  0.00    -0.077 C 
ATOM     29  C   UNL     1      34.231 -15.607 -24.687  0.00  0.00    -0.077 C 
ATOM     30  H   UNL     1      33.319 -16.605 -23.172  0.00  0.00    -0.079 HD
BRANCH  25  31
ATOM     31  C   UNL     1      33.487 -12.242 -22.900  0.00  0.00    -0.086 C 
BRANCH  31  32
ATOM     32  N   UNL     1      34.152 -11.082 -23.474  0.00  0.00    +0.380 N 
ATOM     33  H   UNL     1      35.086 -11.346 -23.785  0.00  0.00    -0.089 HD
ATOM     34  H   UNL     1      34.222 -10.348 -22.769  0.00  0.00    -0.089 HD
ATOM     35  H   UNL     1      33.613 -10.740 -24.270  0.00  0.00    -0.089 HD
ENDBRANCH  31  32
ENDBRANCH  25  31
ENDBRANCH  23  24
ENDBRANCH   2  23
TORSDOF 5
ENDMDL
MODEL 4
REMARK VINA RESULT:     -11.6      6.329     10.949
REMARK  Name = 10156987
REMARK  5 active torsions:
REMARK  status: ('A' for Active; 'I' for Inactive)
REMARK    1  A    between atoms: C_2  and  C_23
REMARK    2  A    between atoms: C_9  and  C_13
REMARK    3  A    between atoms: C_23  and  N_24
REMARK    4  A    between atoms: C_25  and  C_31
REMARK    5  A    between atoms: C_31  and  N_32
REMARK                            x       y       z     vdW  Elec       q    Type
REMARK                         _______ _______ _______ _____ _____    ______ ____
ROOT
ATOM      1  N   UNL     1      34.389 -11.994 -23.496  0.00  0.00    -0.312 N 
ATOM      2  C   UNL     1      32.373  -8.542 -22.530  0.00  0.00    -0.043 C 
ATOM      3  C   UNL     1      31.955  -9.804 -22.105  0.00  0.00    -0.005 C 
ATOM      4  C   UNL     1      33.510  -8.381 -23.312  0.00  0.00    -0.005 C 
ATOM      5  C   UNL     1      32.708 -10.934 -22.484  0.00  0.00    +0.014 C 
ATOM      6  C   UNL     1      33.846 -10.749 -23.271  0.00  0.00    +0.048 C 
ATOM      7  C   UNL     1      34.271  -9.487 -23.700  0.00  0.00    +0.014 C 
ATOM      8  C   UNL     1      32.587 -12.331 -22.246  0.00  0.00    +0.016 C 
ATOM      9  C   UNL     1      33.635 -12.956 -22.880  0.00  0.00    +0.053 C 
ATOM     10  H   UNL     1      35.202 -12.168 -24.025  0.00  0.00    +0.152 HD
ENDROOT
BRANCH   9  13
ATOM     11  O   UNL     1      33.542 -14.421 -25.332  0.00  0.00    -0.270 OA
ATOM     12  N   UNL     1      34.402 -16.320 -24.380  0.00  0.00    -0.280 N 
ATOM     13  C   UNL     1      34.046 -14.320 -23.005  0.00  0.00    +0.067 C 
ATOM     14  C   UNL     1      34.505 -14.978 -21.926  0.00  0.00    +0.007 C 
ATOM     15  C   UNL     1      33.972 -15.007 -24.339  0.00  0.00    +0.251 C 
ATOM     16  C   UNL     1      34.942 -16.369 -22.021  0.00  0.00    +0.014 C 
ATOM     17  C   UNL     1      34.883 -17.016 -23.259  0.00  0.00    +0.051 C 
ATOM     18  C   UNL     1      35.419 -17.064 -20.906  0.00  0.00    +0.001 C 
ATOM     19  C   UNL     1      35.294 -18.345 -23.389  0.00  0.00    +0.015 C 
ATOM     20  C   UNL     1      35.831 -18.393 -21.034  0.00  0.00    +0.000 C 
ATOM     21  C   UNL     1      35.768 -19.032 -22.272  0.00  0.00    +0.001 C 
ATOM     22  H   UNL     1      34.369 -16.793 -25.243  0.00  0.00    +0.155 HD
ENDBRANCH   9  13
BRANCH   2  23
ATOM     23  C   UNL     1      31.576  -7.335 -22.131  0.00  0.00    -0.050 C 
BRANCH  23  24
ATOM     24  N   UNL     1      31.936  -6.156 -22.917  0.00  0.00    +0.390 N 
ATOM     25  C   UNL     1      31.386  -3.677 -24.385  0.00  0.00    -0.026 C 
ATOM     26  C   UNL     1      31.701  -4.999 -25.092  0.00  0.00    -0.025 C 
ATOM     27  C   UNL     1      32.000  -3.683 -22.981  0.00  0.00    -0.025 C 
ATOM     28  C   UNL     1      31.291  -6.199 -24.237  0.00  0.00    -0.077 C 
ATOM     29  C   UNL     1      31.580  -4.927 -22.194  0.00  0.00    -0.077 C 
ATOM     30  H   UNL     1      32.946  -6.154 -23.061  0.00  0.00    -0.079 HD
BRANCH  25  31
ATOM     31  C   UNL     1      31.887  -2.486 -25.197  0.00  0.00    -0.086 C 
BRANCH  31  32
ATOM     32  N   UNL     1      32.156  -2.873 -26.573  0.00  0.00    +0.380 N 
ATOM     33  H   UNL     1      32.027  -3.879 -26.674  0.00  0.00    -0.089 HD
ATOM     34  H   UNL     1      33.116  -2.627 -26.814  0.00  0.00    -0.089 HD
ATOM     35  H   UNL     1      31.513  -2.383 -27.197  0.00  0.00    -0.089 HD
ENDBRANCH  31  32
ENDBRANCH  25  31
ENDBRANCH  23  24
ENDBRANCH   2  23
TORSDOF 5
ENDMDL
MODEL 5
REMARK VINA RESULT:     -11.5      4.653     12.422
REMARK  Name = 10156987
REMARK  5 active torsions:
REMARK  status: ('A' for Active; 'I' for Inactive)
REMARK    1  A    between atoms: C_2  and  C_23
REMARK    2  A    between atoms: C_9  and  C_13
REMARK    3  A    between atoms: C_23  and  N_24
REMARK    4  A    between atoms: C_25  and  C_31
REMARK    5  A    between atoms: C_31  and  N_32
REMARK                            x       y       z     vdW  Elec       q    Type
REMARK                         _______ _______ _______ _____ _____    ______ ____
ROOT
ATOM      1  N   UNL     1      33.562 -11.940 -21.521  0.00  0.00    -0.312 N 
ATOM      2  C   UNL     1      34.799 -15.772 -22.360  0.00  0.00    -0.043 C 
ATOM      3  C   UNL     1      34.615 -14.805 -23.349  0.00  0.00    -0.005 C 
ATOM      4  C   UNL     1      34.572 -15.488 -21.019  0.00  0.00    -0.005 C 
ATOM      5  C   UNL     1      34.189 -13.516 -22.970  0.00  0.00    +0.014 C 
ATOM      6  C   UNL     1      33.966 -13.254 -21.617  0.00  0.00    +0.048 C 
ATOM      7  C   UNL     1      34.148 -14.218 -20.620  0.00  0.00    +0.014 C 
ATOM      8  C   UNL     1      33.905 -12.317 -23.681  0.00  0.00    +0.016 C 
ATOM      9  C   UNL     1      33.522 -11.367 -22.763  0.00  0.00    +0.053 C 
ATOM     10  H   UNL     1      33.334 -11.481 -20.681  0.00  0.00    +0.152 HD
ENDROOT
BRANCH   9  13
ATOM     11  O   UNL     1      30.988 -10.390 -21.873  0.00  0.00    -0.270 OA
ATOM     12  N   UNL     1      31.465  -8.230 -22.477  0.00  0.00    -0.280 N 
ATOM     13  C   UNL     1      33.121  -9.998 -22.863  0.00  0.00    +0.067 C 
ATOM     14  C   UNL     1      33.959  -9.096 -23.403  0.00  0.00    +0.007 C 
ATOM     15  C   UNL     1      31.771  -9.573 -22.358  0.00  0.00    +0.251 C 
ATOM     16  C   UNL     1      33.584  -7.688 -23.512  0.00  0.00    +0.014 C 
ATOM     17  C   UNL     1      32.333  -7.281 -23.039  0.00  0.00    +0.051 C 
ATOM     18  C   UNL     1      34.447  -6.742 -24.073  0.00  0.00    +0.001 C 
ATOM     19  C   UNL     1      31.940  -5.943 -23.123  0.00  0.00    +0.015 C 
ATOM     20  C   UNL     1      34.056  -5.403 -24.158  0.00  0.00    +0.000 C 
ATOM     21  C   UNL     1      32.806  -5.005 -23.685  0.00  0.00    +0.001 C 
ATOM     22  H   UNL     1      30.589  -7.923 -22.149  0.00  0.00    +0.155 HD
ENDBRANCH   9  13
BRANCH   2  23
ATOM     23  C   UNL     1      35.252 -17.147 -22.756  0.00  0.00    -0.050 C 
BRANCH  23  24
ATOM     24  N   UNL     1      35.319 -18.053 -21.610  0.00  0.00    +0.390 N 
ATOM     25  C   UNL     1      35.795 -20.628 -20.290  0.00  0.00    -0.026 C 
ATOM     26  C   UNL     1      34.386 -20.088 -20.555  0.00  0.00    -0.025 C 
ATOM     27  C   UNL     1      36.788 -19.464 -20.205  0.00  0.00    -0.025 C 
ATOM     28  C   UNL     1      34.366 -19.160 -21.771  0.00  0.00    -0.077 C 
ATOM     29  C   UNL     1      36.689 -18.556 -21.432  0.00  0.00    -0.077 C 
ATOM     30  H   UNL     1      35.063 -17.537 -20.769  0.00  0.00    -0.079 HD
BRANCH  25  31
ATOM     31  C   UNL     1      35.830 -21.472 -19.019  0.00  0.00    -0.086 C 
BRANCH  31  32
ATOM     32  N   UNL     1      36.792 -20.939 -18.067  0.00  0.00    +0.380 N 
ATOM     33  H   UNL     1      37.679 -21.433 -18.169  0.00  0.00    -0.089 HD
ATOM     34  H   UNL     1      36.439 -21.067 -17.119  0.00  0.00    -0.089 HD
ATOM     35  H   UNL     1      36.934 -19.945 -18.247  0.00  0.00    -0.089 HD
ENDBRANCH  31  32
ENDBRANCH  25  31
ENDBRANCH  23  24
ENDBRANCH   2  23
TORSDOF 5
ENDMDL
MODEL 6
REMARK VINA RESULT:     -11.4      6.446     10.691
REMARK  Name = 10156987
REMARK  5 active torsions:
REMARK  status: ('A' for Active; 'I' for Inactive)
REMARK    1  A    between atoms: C_2  and  C_23
REMARK    2  A    between atoms: C_9  and  C_13
REMARK    3  A    between atoms: C_23  and  N_24
REMARK    4  A    between atoms: C_25  and  C_31
REMARK    5  A    between atoms: C_31  and  N_32
REMARK                            x       y       z     vdW  Elec       q    Type
REMARK                         _______ _______ _______ _____ _____    ______ ____
ROOT
ATOM      1  N   UNL     1      32.619 -12.678 -21.874  0.00  0.00    -0.312 N 
ATOM      2  C   UNL     1      31.990  -8.636 -22.308  0.00  0.00    -0.043 C 
ATOM      3  C   UNL     1      32.854  -9.358 -23.132  0.00  0.00    -0.005 C 
ATOM      4  C   UNL     1      31.284  -9.253 -21.283  0.00  0.00    -0.005 C 
ATOM      5  C   UNL     1      33.009 -10.742 -22.911  0.00  0.00    +0.014 C 
ATOM      6  C   UNL     1      32.291 -11.340 -21.874  0.00  0.00    +0.048 C 
ATOM      7  C   UNL     1      31.422 -10.623 -21.045  0.00  0.00    +0.014 C 
ATOM      8  C   UNL     1      33.779 -11.765 -23.531  0.00  0.00    +0.016 C 
ATOM      9  C   UNL     1      33.518 -12.943 -22.872  0.00  0.00    +0.053 C 
ATOM     10  H   UNL     1      32.260 -13.346 -21.247  0.00  0.00    +0.152 HD
ENDROOT
BRANCH   9  13
ATOM     11  O   UNL     1      33.454 -14.365 -25.349  0.00  0.00    -0.270 OA
ATOM     12  N   UNL     1      34.394 -16.248 -24.441  0.00  0.00    -0.280 N 
ATOM     13  C   UNL     1      33.979 -14.288 -23.026  0.00  0.00    +0.067 C 
ATOM     14  C   UNL     1      34.472 -14.948 -21.964  0.00  0.00    +0.007 C 
ATOM     15  C   UNL     1      33.916 -14.953 -24.372  0.00  0.00    +0.251 C 
ATOM     16  C   UNL     1      34.960 -16.320 -22.089  0.00  0.00    +0.014 C 
ATOM     17  C   UNL     1      34.912 -16.946 -23.338  0.00  0.00    +0.051 C 
ATOM     18  C   UNL     1      35.473 -17.017 -20.991  0.00  0.00    +0.001 C 
ATOM     19  C   UNL     1      35.371 -18.256 -23.497  0.00  0.00    +0.015 C 
ATOM     20  C   UNL     1      35.934 -18.327 -21.148  0.00  0.00    +0.000 C 
ATOM     21  C   UNL     1      35.882 -18.945 -22.397  0.00  0.00    +0.001 C 
ATOM     22  H   UNL     1      34.371 -16.706 -25.312  0.00  0.00    +0.155 HD
ENDBRANCH   9  13
BRANCH   2  23
ATOM     23  C   UNL     1      31.821  -7.163 -22.537  0.00  0.00    -0.050 C 
BRANCH  23  24
ATOM     24  N   UNL     1      32.655  -6.681 -23.637  0.00  0.00    +0.390 N 
ATOM     25  C   UNL     1      34.128  -4.649 -25.155  0.00  0.00    -0.026 C 
ATOM     26  C   UNL     1      32.774  -5.198 -25.615  0.00  0.00    -0.025 C 
ATOM     27  C   UNL     1      34.830  -5.681 -24.267  0.00  0.00    -0.025 C 
ATOM     28  C   UNL     1      31.934  -5.674 -24.428  0.00  0.00    -0.077 C 
ATOM     29  C   UNL     1      33.922  -6.142 -23.124  0.00  0.00    -0.077 C 
ATOM     30  H   UNL     1      32.874  -7.466 -24.251  0.00  0.00    -0.079 HD
BRANCH  25  31
ATOM     31  C   UNL     1      35.001  -4.269 -26.349  0.00  0.00    -0.086 C 
BRANCH  31  32
ATOM     32  N   UNL     1      34.185  -3.987 -27.519  0.00  0.00    +0.380 N 
ATOM     33  H   UNL     1      33.819  -3.037 -27.457  0.00  0.00    -0.089 HD
ATOM     34  H   UNL     1      33.408  -4.648 -27.560  0.00  0.00    -0.089 HD
ATOM     35  H   UNL     1      34.753  -4.078 -28.361  0.00  0.00    -0.089 HD
ENDBRANCH  31  32
ENDBRANCH  25  31
ENDBRANCH  23  24
ENDBRANCH   2  23
TORSDOF 5
ENDMDL
MODEL 7
REMARK VINA RESULT:     -11.4      0.811      1.268
REMARK  Name = 10156987
REMARK  5 active torsions:
REMARK  status: ('A' for Active; 'I' for Inactive)
REMARK    1  A    between atoms: C_2  and  C_23
REMARK    2  A    between atoms: C_9  and  C_13
REMARK    3  A    between atoms: C_23  and  N_24
REMARK    4  A    between atoms: C_25  and  C_31
REMARK    5  A    between atoms: C_31  and  N_32
REMARK                            x       y       z     vdW  Elec       q    Type
REMARK                         _______ _______ _______ _____ _____    ______ ____
ROOT
ATOM      1  N   UNL     1      35.441 -20.837 -18.924  0.00  0.00    -0.312 N 
ATOM      2  C   UNL     1      35.368 -18.739 -22.461  0.00  0.00    -0.043 C 
ATOM      3  C   UNL     1      34.242 -19.375 -21.938  0.00  0.00    -0.005 C 
ATOM      4  C   UNL     1      36.592 -18.780 -21.806  0.00  0.00    -0.005 C 
ATOM      5  C   UNL     1      34.358 -20.072 -20.718  0.00  0.00    +0.014 C 
ATOM      6  C   UNL     1      35.599 -20.101 -20.078  0.00  0.00    +0.048 C 
ATOM      7  C   UNL     1      36.732 -19.465 -20.596  0.00  0.00    +0.014 C 
ATOM      8  C   UNL     1      33.454 -20.816 -19.910  0.00  0.00    +0.016 C 
ATOM      9  C   UNL     1      34.149 -21.273 -18.815  0.00  0.00    +0.053 C 
ATOM     10  H   UNL     1      36.156 -21.023 -18.273  0.00  0.00    +0.152 HD
ENDROOT
BRANCH   9  13
ATOM     11  O   UNL     1      36.060 -22.409 -17.020  0.00  0.00    -0.270 OA
ATOM     12  N   UNL     1      34.446 -23.346 -15.690  0.00  0.00    -0.280 N 
ATOM     13  C   UNL     1      33.795 -22.060 -17.675  0.00  0.00    +0.067 C 
ATOM     14  C   UNL     1      32.500 -22.298 -17.406  0.00  0.00    +0.007 C 
ATOM     15  C   UNL     1      34.870 -22.609 -16.779  0.00  0.00    +0.251 C 
ATOM     16  C   UNL     1      32.103 -23.090 -16.244  0.00  0.00    +0.014 C 
ATOM     17  C   UNL     1      33.095 -23.600 -15.401  0.00  0.00    +0.051 C 
ATOM     18  C   UNL     1      30.760 -23.346 -15.956  0.00  0.00    +0.001 C 
ATOM     19  C   UNL     1      32.755 -24.360 -14.278  0.00  0.00    +0.015 C 
ATOM     20  C   UNL     1      30.418 -24.105 -14.834  0.00  0.00    +0.000 C 
ATOM     21  C   UNL     1      31.413 -24.611 -13.998  0.00  0.00    +0.001 C 
ATOM     22  H   UNL     1      35.129 -23.713 -15.083  0.00  0.00    +0.155 HD
ENDBRANCH   9  13
BRANCH   2  23
ATOM     23  C   UNL     1      35.251 -17.996 -23.760  0.00  0.00    -0.050 C 
BRANCH  23  24
ATOM     24  N   UNL     1      35.091 -16.557 -23.555  0.00  0.00    +0.390 N 
ATOM     25  C   UNL     1      33.631 -14.134 -22.780  0.00  0.00    -0.026 C 
ATOM     26  C   UNL     1      33.872 -14.517 -24.244  0.00  0.00    -0.025 C 
ATOM     27  C   UNL     1      34.717 -14.758 -21.897  0.00  0.00    -0.025 C 
ATOM     28  C   UNL     1      34.016 -16.031 -24.408  0.00  0.00    -0.077 C 
ATOM     29  C   UNL     1      34.833 -16.265 -22.138  0.00  0.00    -0.077 C 
ATOM     30  H   UNL     1      35.959 -16.090 -23.819  0.00  0.00    -0.079 HD
BRANCH  25  31
ATOM     31  C   UNL     1      33.588 -12.618 -22.608  0.00  0.00    -0.086 C 
BRANCH  31  32
ATOM     32  N   UNL     1      34.217 -11.950 -23.736  0.00  0.00    +0.380 N 
ATOM     33  H   UNL     1      33.535 -11.348 -24.198  0.00  0.00    -0.089 HD
ATOM     34  H   UNL     1      34.557 -12.648 -24.398  0.00  0.00    -0.089 HD
ATOM     35  H   UNL     1      35.000 -11.386 -23.405  0.00  0.00    -0.089 HD
ENDBRANCH  31  32
ENDBRANCH  25  31
ENDBRANCH  23  24
ENDBRANCH   2  23
TORSDOF 5
ENDMDL
MODEL 8
REMARK VINA RESULT:     -11.2      3.585     11.112
REMARK  Name = 10156987
REMARK  5 active torsions:
REMARK  status: ('A' for Active; 'I' for Inactive)
REMARK    1  A    between atoms: C_2  and  C_23
REMARK    2  A    between atoms: C_9  and  C_13
REMARK    3  A    between atoms: C_23  and  N_24
REMARK    4  A    between atoms: C_25  and  C_31
REMARK    5  A    between atoms: C_31  and  N_32
REMARK                            x       y       z     vdW  Elec       q    Type
REMARK                         _______ _______ _______ _____ _____    ______ ____
ROOT
ATOM      1  N   UNL     1      33.772 -14.382 -23.894  0.00  0.00    -0.312 N 
ATOM      2  C   UNL     1      35.339 -17.909 -22.472  0.00  0.00    -0.043 C 
ATOM      3  C   UNL     1      35.334 -16.730 -21.726  0.00  0.00    -0.005 C 
ATOM      4  C   UNL     1      34.806 -17.956 -23.754  0.00  0.00    -0.005 C 
ATOM      5  C   UNL     1      34.776 -15.567 -22.292  0.00  0.00    +0.014 C 
ATOM      6  C   UNL     1      34.247 -15.637 -23.583  0.00  0.00    +0.048 C 
ATOM      7  C   UNL     1      34.248 -16.815 -24.337  0.00  0.00    +0.014 C 
ATOM      8  C   UNL     1      34.602 -14.229 -21.842  0.00  0.00    +0.016 C 
ATOM      9  C   UNL     1      33.983 -13.525 -22.848  0.00  0.00    +0.053 C 
ATOM     10  H   UNL     1      33.343 -14.137 -24.746  0.00  0.00    +0.152 HD
ENDROOT
BRANCH   9  13
ATOM     11  O   UNL     1      34.297 -12.006 -25.248  0.00  0.00    -0.270 OA
ATOM     12  N   UNL     1      33.296 -10.147 -24.355  0.00  0.00    -0.280 N 
ATOM     13  C   UNL     1      33.554 -12.168 -22.989  0.00  0.00    +0.067 C 
ATOM     14  C   UNL     1      32.969 -11.543 -21.952  0.00  0.00    +0.007 C 
ATOM     15  C   UNL     1      33.751 -11.451 -24.294  0.00  0.00    +0.251 C 
ATOM     16  C   UNL     1      32.511 -10.161 -22.066  0.00  0.00    +0.014 C 
ATOM     17  C   UNL     1      32.684  -9.486 -23.278  0.00  0.00    +0.051 C 
ATOM     18  C   UNL     1      31.904  -9.500 -20.994  0.00  0.00    +0.001 C 
ATOM     19  C   UNL     1      32.257  -8.164 -23.425  0.00  0.00    +0.015 C 
ATOM     20  C   UNL     1      31.475  -8.178 -21.139  0.00  0.00    +0.000 C 
ATOM     21  C   UNL     1      31.652  -7.512 -22.352  0.00  0.00    +0.001 C 
ATOM     22  H   UNL     1      33.407  -9.655 -25.201  0.00  0.00    +0.155 HD
ENDBRANCH   9  13
BRANCH   2  23
ATOM     23  C   UNL     1      35.934 -19.151 -21.875  0.00  0.00    -0.050 C 
BRANCH  23  24
ATOM     24  N   UNL     1      35.157 -19.636 -20.735  0.00  0.00    +0.390 N 
ATOM     25  C   UNL     1      33.584 -21.615 -19.247  0.00  0.00    -0.026 C 
ATOM     26  C   UNL     1      32.942 -20.416 -19.954  0.00  0.00    -0.025 C 
ATOM     27  C   UNL     1      35.040 -21.289 -18.897  0.00  0.00    -0.025 C 
ATOM     28  C   UNL     1      33.783 -19.958 -21.147  0.00  0.00    -0.077 C 
ATOM     29  C   UNL     1      35.813 -20.801 -20.125  0.00  0.00    -0.077 C 
ATOM     30  H   UNL     1      35.110 -18.898 -20.033  0.00  0.00    -0.079 HD
BRANCH  25  31
ATOM     31  C   UNL     1      32.794 -22.005 -18.001  0.00  0.00    -0.086 C 
BRANCH  31  32
ATOM     32  N   UNL     1      33.589 -22.854 -17.127  0.00  0.00    +0.380 N 
ATOM     33  H   UNL     1      34.355 -23.265 -17.659  0.00  0.00    -0.089 HD
ATOM     34  H   UNL     1      33.001 -23.597 -16.749  0.00  0.00    -0.089 HD
ATOM     35  H   UNL     1      33.967 -22.296 -16.361  0.00  0.00    -0.089 HD
ENDBRANCH  31  32
ENDBRANCH  25  31
ENDBRANCH  23  24
ENDBRANCH   2  23
TORSDOF 5
ENDMDL
MODEL 9
REMARK VINA RESULT:     -11.0      2.461      3.594
REMARK  Name = 10156987
REMARK  5 active torsions:
REMARK  status: ('A' for Active; 'I' for Inactive)
REMARK    1  A    between atoms: C_2  and  C_23
REMARK    2  A    between atoms: C_9  and  C_13
REMARK    3  A    between atoms: C_23  and  N_24
REMARK    4  A    between atoms: C_25  and  C_31
REMARK    5  A    between atoms: C_31  and  N_32
REMARK                            x       y       z     vdW  Elec       q    Type
REMARK                         _______ _______ _______ _____ _____    ______ ____
ROOT
ATOM      1  N   UNL     1      34.211 -21.930 -17.764  0.00  0.00    -0.312 N 
ATOM      2  C   UNL     1      35.096 -19.859 -21.206  0.00  0.00    -0.043 C 
ATOM      3  C   UNL     1      36.076 -20.288 -20.310  0.00  0.00    -0.005 C 
ATOM      4  C   UNL     1      33.749 -20.114 -20.981  0.00  0.00    -0.005 C 
ATOM      5  C   UNL     1      35.682 -20.992 -19.154  0.00  0.00    +0.014 C 
ATOM      6  C   UNL     1      34.322 -21.236 -18.948  0.00  0.00    +0.048 C 
ATOM      7  C   UNL     1      33.334 -20.810 -19.842  0.00  0.00    +0.014 C 
ATOM      8  C   UNL     1      36.380 -21.563 -18.055  0.00  0.00    +0.016 C 
ATOM      9  C   UNL     1      35.449 -22.133 -17.217  0.00  0.00    +0.053 C 
ATOM     10  H   UNL     1      33.363 -22.237 -17.368  0.00  0.00    +0.152 HD
ENDROOT
BRANCH   9  13
ATOM     11  O   UNL     1      33.168 -23.034 -15.751  0.00  0.00    -0.270 OA
ATOM     12  N   UNL     1      34.444 -23.976 -14.096  0.00  0.00    -0.280 N 
ATOM     13  C   UNL     1      35.533 -22.840 -15.977  0.00  0.00    +0.067 C 
ATOM     14  C   UNL     1      36.737 -23.109 -15.444  0.00  0.00    +0.007 C 
ATOM     15  C   UNL     1      34.278 -23.285 -15.281  0.00  0.00    +0.251 C 
ATOM     16  C   UNL     1      36.858 -23.837 -14.183  0.00  0.00    +0.014 C 
ATOM     17  C   UNL     1      35.697 -24.262 -13.531  0.00  0.00    +0.051 C 
ATOM     18  C   UNL     1      38.105 -24.121 -13.618  0.00  0.00    +0.001 C 
ATOM     19  C   UNL     1      35.773 -24.963 -12.325  0.00  0.00    +0.015 C 
ATOM     20  C   UNL     1      38.183 -24.822 -12.413  0.00  0.00    +0.000 C 
ATOM     21  C   UNL     1      37.020 -25.242 -11.768  0.00  0.00    +0.001 C 
ATOM     22  H   UNL     1      33.638 -24.285 -13.621  0.00  0.00    +0.155 HD
ENDBRANCH   9  13
BRANCH   2  23
ATOM     23  C   UNL     1      35.509 -19.108 -22.438  0.00  0.00    -0.050 C 
BRANCH  23  24
ATOM     24  N   UNL     1      34.829 -17.818 -22.546  0.00  0.00    +0.390 N 
ATOM     25  C   UNL     1      34.649 -14.960 -23.179  0.00  0.00    -0.026 C 
ATOM     26  C   UNL     1      34.741 -15.479 -21.741  0.00  0.00    -0.025 C 
ATOM     27  C   UNL     1      34.048 -16.042 -24.082  0.00  0.00    -0.025 C 
ATOM     28  C   UNL     1      35.474 -16.821 -21.679  0.00  0.00    -0.077 C 
ATOM     29  C   UNL     1      34.803 -17.366 -23.944  0.00  0.00    -0.077 C 
ATOM     30  H   UNL     1      33.864 -17.929 -22.234  0.00  0.00    -0.079 HD
BRANCH  25  31
ATOM     31  C   UNL     1      33.831 -13.673 -23.247  0.00  0.00    -0.086 C 
BRANCH  31  32
ATOM     32  N   UNL     1      33.072 -13.605 -24.486  0.00  0.00    +0.380 N 
ATOM     33  H   UNL     1      33.712 -13.488 -25.271  0.00  0.00    -0.089 HD
ATOM     34  H   UNL     1      32.432 -12.811 -24.449  0.00  0.00    -0.089 HD
ATOM     35  H   UNL     1      32.539 -14.467 -24.606  0.00  0.00    -0.089 HD
ENDBRANCH  31  32
ENDBRANCH  25  31
ENDBRANCH  23  24
ENDBRANCH   2  23
TORSDOF 5
ENDMDL
