MODEL 1
REMARK VINA RESULT:     -13.1      0.000      0.000
REMARK  Name = 4369496
REMARK  6 active torsions:
REMARK  status: ('A' for Active; 'I' for Inactive)
REMARK    1  A    between atoms: N_2  and  C_21
REMARK    2  A    between atoms: C_3  and  C_10
REMARK    3  A    between atoms: C_5  and  C_11
REMARK    4  A    between atoms: C_11  and  N_12
REMARK    5  A    between atoms: C_23  and  N_27
REMARK    6  A    between atoms: C_31  and  C_36
REMARK                            x       y       z     vdW  Elec       q    Type
REMARK                         _______ _______ _______ _____ _____    ______ ____
ROOT
ATOM      1  O   UNL     1      36.511 -18.754 -22.002  0.00  0.00    -0.270 OA
ATOM      2  N   UNL     1      34.403 -18.869 -20.978  0.00  0.00    -0.280 N 
ATOM      3  C   UNL     1      35.366 -18.305 -21.827  0.00  0.00    +0.249 C 
ATOM      4  H   UNL     1      33.539 -18.400 -20.943  0.00  0.00    +0.155 HD
ENDROOT
BRANCH   3  10
ATOM      5  C   UNL     1      34.208 -14.770 -23.839  0.00  0.00    -0.043 C 
ATOM      6  C   UNL     1      34.591 -14.704 -22.507  0.00  0.00    -0.006 C 
ATOM      7  C   UNL     1      34.200 -15.978 -24.522  0.00  0.00    -0.006 C 
ATOM      8  C   UNL     1      34.974 -15.870 -21.844  0.00  0.00    +0.004 C 
ATOM      9  C   UNL     1      34.583 -17.144 -23.858  0.00  0.00    +0.004 C 
ATOM     10  C   UNL     1      34.969 -17.090 -22.519  0.00  0.00    +0.054 C 
BRANCH   5  11
ATOM     11  C   UNL     1      33.796 -13.512 -24.557  0.00  0.00    -0.050 C 
BRANCH  11  12
ATOM     12  N   UNL     1      33.691 -12.375 -23.644  0.00  0.00    +0.387 N 
ATOM     13  N   UNL     1      32.411  -9.983 -22.645  0.00  0.00    +0.383 N 
ATOM     14  C   UNL     1      32.449 -12.444 -22.866  0.00  0.00    -0.100 C 
ATOM     15  C   UNL     1      33.764 -11.107 -24.380  0.00  0.00    -0.100 C 
ATOM     16  C   UNL     1      32.337 -11.251 -21.910  0.00  0.00    -0.101 C 
ATOM     17  C   UNL     1      33.653  -9.914 -23.425  0.00  0.00    -0.101 C 
ATOM     18  C   UNL     1      32.308  -8.847 -21.732  0.00  0.00    -0.101 C 
ATOM     19  H   UNL     1      34.478 -12.417 -22.997  0.00  0.00    -0.079 HD
ATOM     20  H   UNL     1      31.622  -9.939 -23.292  0.00  0.00    -0.080 HD
ENDBRANCH  11  12
ENDBRANCH   5  11
ENDBRANCH   3  10
BRANCH   2  21
ATOM     21  C   UNL     1      34.511 -20.024 -20.165  0.00  0.00    +0.052 C 
ATOM     22  C   UNL     1      33.371 -20.549 -19.582  0.00  0.00    +0.030 C 
ATOM     23  C   UNL     1      33.478 -21.686 -18.779  0.00  0.00    +0.059 C 
ATOM     24  C   UNL     1      35.755 -20.601 -19.973  0.00  0.00    +0.015 C 
ATOM     25  C   UNL     1      34.723 -22.280 -18.575  0.00  0.00    +0.015 C 
ATOM     26  C   UNL     1      35.861 -21.738 -19.172  0.00  0.00    +0.003 C 
BRANCH  23  27
ATOM     27  N   UNL     1      32.326 -22.235 -18.177  0.00  0.00    -0.247 N 
ATOM     28  N   UNL     1      33.151 -22.890 -16.080  0.00  0.00    -0.337 NA
ATOM     29  N   UNL     1      30.842 -23.249 -16.671  0.00  0.00    -0.170 NA
ATOM     30  C   UNL     1      32.096 -22.819 -16.917  0.00  0.00    +0.149 C 
ATOM     31  C   UNL     1      32.893 -23.455 -14.882  0.00  0.00    +0.147 C 
ATOM     32  C   UNL     1      31.654 -23.933 -14.511  0.00  0.00    +0.055 C 
ATOM     33  C   UNL     1      30.656 -23.803 -15.454  0.00  0.00    +0.114 C 
ATOM     34  H   UNL     1      31.528 -22.205 -18.752  0.00  0.00    +0.165 HD
BRANCH  31  36
ATOM     35  N   UNL     1      34.915 -24.202 -11.842  0.00  0.00    -0.242 NA
ATOM     36  C   UNL     1      34.022 -23.530 -13.986  0.00  0.00    +0.050 C 
ATOM     37  C   UNL     1      35.267 -23.034 -14.356  0.00  0.00    +0.006 C 
ATOM     38  C   UNL     1      33.900 -24.100 -12.728  0.00  0.00    +0.101 C 
ATOM     39  C   UNL     1      36.336 -23.121 -13.470  0.00  0.00    +0.021 C 
ATOM     40  C   UNL     1      36.109 -23.709 -12.237  0.00  0.00    +0.099 C 
ENDBRANCH  31  36
ENDBRANCH  23  27
ENDBRANCH   2  21
TORSDOF 6
ENDMDL
MODEL 2
REMARK VINA RESULT:     -13.0      2.565      5.785
REMARK  Name = 4369496
REMARK  6 active torsions:
REMARK  status: ('A' for Active; 'I' for Inactive)
REMARK    1  A    between atoms: N_2  and  C_21
REMARK    2  A    between atoms: C_3  and  C_10
REMARK    3  A    between atoms: C_5  and  C_11
REMARK    4  A    between atoms: C_11  and  N_12
REMARK    5  A    between atoms: C_23  and  N_27
REMARK    6  A    between atoms: C_31  and  C_36
REMARK                            x       y       z     vdW  Elec       q    Type
REMARK                         _______ _______ _______ _____ _____    ______ ____
ROOT
ATOM      1  O   UNL     1      33.564 -23.639 -18.787  0.00  0.00    -0.270 OA
ATOM      2  N   UNL     1      33.488 -22.040 -17.072  0.00  0.00    -0.280 N 
ATOM      3  C   UNL     1      33.761 -22.485 -18.373  0.00  0.00    +0.249 C 
ATOM      4  H   UNL     1      33.698 -21.096 -16.890  0.00  0.00    +0.155 HD
ENDROOT
BRANCH   3  10
ATOM      5  C   UNL     1      35.451 -19.620 -20.985  0.00  0.00    -0.043 C 
ATOM      6  C   UNL     1      36.284 -20.397 -20.193  0.00  0.00    -0.006 C 
ATOM      7  C   UNL     1      34.072 -19.767 -20.933  0.00  0.00    -0.006 C 
ATOM      8  C   UNL     1      35.726 -21.343 -19.332  0.00  0.00    +0.004 C 
ATOM      9  C   UNL     1      33.515 -20.713 -20.073  0.00  0.00    +0.004 C 
ATOM     10  C   UNL     1      34.342 -21.501 -19.272  0.00  0.00    +0.054 C 
BRANCH   5  11
ATOM     11  C   UNL     1      36.052 -18.600 -21.915  0.00  0.00    -0.050 C 
BRANCH  11  12
ATOM     12  N   UNL     1      35.093 -17.556 -22.272  0.00  0.00    +0.387 N 
ATOM     13  N   UNL     1      34.359 -15.038 -23.488  0.00  0.00    +0.383 N 
ATOM     14  C   UNL     1      34.995 -17.414 -23.729  0.00  0.00    -0.100 C 
ATOM     15  C   UNL     1      35.463 -16.276 -21.656  0.00  0.00    -0.100 C 
ATOM     16  C   UNL     1      33.991 -16.319 -24.104  0.00  0.00    -0.101 C 
ATOM     17  C   UNL     1      34.459 -15.180 -22.030  0.00  0.00    -0.101 C 
ATOM     18  C   UNL     1      33.398 -13.996 -23.844  0.00  0.00    -0.101 C 
ATOM     19  H   UNL     1      34.179 -17.833 -21.914  0.00  0.00    -0.079 HD
ATOM     20  H   UNL     1      35.273 -14.760 -23.847  0.00  0.00    -0.080 HD
ENDBRANCH  11  12
ENDBRANCH   5  11
ENDBRANCH   3  10
BRANCH   2  21
ATOM     21  C   UNL     1      32.951 -22.771 -15.984  0.00  0.00    +0.052 C 
ATOM     22  C   UNL     1      33.667 -22.849 -14.802  0.00  0.00    +0.030 C 
ATOM     23  C   UNL     1      33.138 -23.571 -13.731  0.00  0.00    +0.059 C 
ATOM     24  C   UNL     1      31.722 -23.391 -16.129  0.00  0.00    +0.015 C 
ATOM     25  C   UNL     1      31.901 -24.202 -13.859  0.00  0.00    +0.015 C 
ATOM     26  C   UNL     1      31.193 -24.112 -15.058  0.00  0.00    +0.003 C 
BRANCH  23  27
ATOM     27  N   UNL     1      33.853 -23.660 -12.518  0.00  0.00    -0.247 N 
ATOM     28  N   UNL     1      35.630 -25.072 -13.115  0.00  0.00    -0.337 NA
ATOM     29  N   UNL     1      35.437 -24.204 -10.875  0.00  0.00    -0.170 NA
ATOM     30  C   UNL     1      35.029 -24.344 -12.153  0.00  0.00    +0.149 C 
ATOM     31  C   UNL     1      36.753 -25.713 -12.729  0.00  0.00    +0.147 C 
ATOM     32  C   UNL     1      37.272 -25.649 -11.453  0.00  0.00    +0.055 C 
ATOM     33  C   UNL     1      36.566 -24.872 -10.559  0.00  0.00    +0.114 C 
ATOM     34  H   UNL     1      33.451 -23.142 -11.784  0.00  0.00    +0.165 HD
BRANCH  31  36
ATOM     35  N   UNL     1      37.241 -27.653 -15.875  0.00  0.00    -0.242 NA
ATOM     36  C   UNL     1      37.398 -26.491 -13.759  0.00  0.00    +0.050 C 
ATOM     37  C   UNL     1      38.743 -26.833 -13.665  0.00  0.00    +0.006 C 
ATOM     38  C   UNL     1      36.698 -26.923 -14.875  0.00  0.00    +0.101 C 
ATOM     39  C   UNL     1      39.337 -27.584 -14.673  0.00  0.00    +0.021 C 
ATOM     40  C   UNL     1      38.549 -27.965 -15.747  0.00  0.00    +0.099 C 
ENDBRANCH  31  36
ENDBRANCH  23  27
ENDBRANCH   2  21
TORSDOF 6
ENDMDL
MODEL 3
REMARK VINA RESULT:     -12.6      2.738     13.814
REMARK  Name = 4369496
REMARK  6 active torsions:
REMARK  status: ('A' for Active; 'I' for Inactive)
REMARK    1  A    between atoms: N_2  and  C_21
REMARK    2  A    between atoms: C_3  and  C_10
REMARK    3  A    between atoms: C_5  and  C_11
REMARK    4  A    between atoms: C_11  and  N_12
REMARK    5  A    between atoms: C_23  and  N_27
REMARK    6  A    between atoms: C_31  and  C_36
REMARK                            x       y       z     vdW  Elec       q    Type
REMARK                         _______ _______ _______ _____ _____    ______ ____
ROOT
ATOM      1  O   UNL     1      33.887 -15.453 -24.938  0.00  0.00    -0.270 OA
ATOM      2  N   UNL     1      34.323 -14.149 -23.038  0.00  0.00    -0.280 N 
ATOM      3  C   UNL     1      34.287 -15.345 -23.768  0.00  0.00    +0.249 C 
ATOM      4  H   UNL     1      34.666 -14.220 -22.118  0.00  0.00    +0.155 HD
ENDROOT
BRANCH   3  10
ATOM      5  C   UNL     1      35.593 -18.804 -21.713  0.00  0.00    -0.043 C 
ATOM      6  C   UNL     1      35.045 -18.929 -22.981  0.00  0.00    -0.006 C 
ATOM      7  C   UNL     1      35.720 -17.562 -21.108  0.00  0.00    -0.006 C 
ATOM      8  C   UNL     1      34.615 -17.788 -23.660  0.00  0.00    +0.004 C 
ATOM      9  C   UNL     1      35.290 -16.421 -21.786  0.00  0.00    +0.004 C 
ATOM     10  C   UNL     1      34.737 -16.534 -23.062  0.00  0.00    +0.054 C 
BRANCH   5  11
ATOM     11  C   UNL     1      36.058 -20.035 -20.981  0.00  0.00    -0.050 C 
BRANCH  11  12
ATOM     12  N   UNL     1      35.163 -20.384 -19.880  0.00  0.00    +0.387 N 
ATOM     13  N   UNL     1      33.311 -22.141 -18.523  0.00  0.00    +0.383 N 
ATOM     14  C   UNL     1      35.626 -21.598 -19.197  0.00  0.00    -0.100 C 
ATOM     15  C   UNL     1      33.788 -20.560 -20.362  0.00  0.00    -0.100 C 
ATOM     16  C   UNL     1      34.687 -21.966 -18.043  0.00  0.00    -0.101 C 
ATOM     17  C   UNL     1      32.848 -20.928 -19.208  0.00  0.00    -0.101 C 
ATOM     18  C   UNL     1      32.417 -22.489 -17.421  0.00  0.00    -0.101 C 
ATOM     19  H   UNL     1      35.173 -19.615 -19.210  0.00  0.00    -0.079 HD
ATOM     20  H   UNL     1      33.300 -22.912 -19.192  0.00  0.00    -0.080 HD
ENDBRANCH  11  12
ENDBRANCH   5  11
ENDBRANCH   3  10
BRANCH   2  21
ATOM     21  C   UNL     1      33.928 -12.852 -23.449  0.00  0.00    +0.052 C 
ATOM     22  C   UNL     1      33.453 -11.959 -22.504  0.00  0.00    +0.030 C 
ATOM     23  C   UNL     1      33.062 -10.682 -22.910  0.00  0.00    +0.059 C 
ATOM     24  C   UNL     1      34.027 -12.509 -24.786  0.00  0.00    +0.015 C 
ATOM     25  C   UNL     1      33.156 -10.319 -24.254  0.00  0.00    +0.015 C 
ATOM     26  C   UNL     1      33.638 -11.232 -25.191  0.00  0.00    +0.003 C 
BRANCH  23  27
ATOM     27  N   UNL     1      32.576  -9.758 -21.961  0.00  0.00    -0.247 N 
ATOM     28  N   UNL     1      32.929  -7.715 -23.060  0.00  0.00    -0.337 NA
ATOM     29  N   UNL     1      31.954  -7.784 -20.858  0.00  0.00    -0.170 NA
ATOM     30  C   UNL     1      32.482  -8.353 -21.960  0.00  0.00    +0.149 C 
ATOM     31  C   UNL     1      32.823  -6.371 -23.024  0.00  0.00    +0.147 C 
ATOM     32  C   UNL     1      32.301  -5.671 -21.956  0.00  0.00    +0.055 C 
ATOM     33  C   UNL     1      31.878  -6.437 -20.890  0.00  0.00    +0.114 C 
ATOM     34  H   UNL     1      32.238 -10.179 -21.138  0.00  0.00    +0.165 HD
BRANCH  31  36
ATOM     35  N   UNL     1      32.796  -4.485 -26.239  0.00  0.00    -0.242 NA
ATOM     36  C   UNL     1      33.300  -5.687 -24.203  0.00  0.00    +0.050 C 
ATOM     37  C   UNL     1      34.662  -5.559 -24.456  0.00  0.00    +0.006 C 
ATOM     38  C   UNL     1      32.417  -5.137 -25.118  0.00  0.00    +0.101 C 
ATOM     39  C   UNL     1      35.091  -4.895 -25.600  0.00  0.00    +0.021 C 
ATOM     40  C   UNL     1      34.127  -4.380 -26.451  0.00  0.00    +0.099 C 
ENDBRANCH  31  36
ENDBRANCH  23  27
ENDBRANCH   2  21
TORSDOF 6
ENDMDL
MODEL 4
REMARK VINA RESULT:     -12.4      3.185      5.273
REMARK  Name = 4369496
REMARK  6 active torsions:
REMARK  status: ('A' for Active; 'I' for Inactive)
REMARK    1  A    between atoms: N_2  and  C_21
REMARK    2  A    between atoms: C_3  and  C_10
REMARK    3  A    between atoms: C_5  and  C_11
REMARK    4  A    between atoms: C_11  and  N_12
REMARK    5  A    between atoms: C_23  and  N_27
REMARK    6  A    between atoms: C_31  and  C_36
REMARK                            x       y       z     vdW  Elec       q    Type
REMARK                         _______ _______ _______ _____ _____    ______ ____
ROOT
ATOM      1  O   UNL     1      36.842 -21.272 -18.598  0.00  0.00    -0.270 OA
ATOM      2  N   UNL     1      34.513 -21.523 -18.480  0.00  0.00    -0.280 N 
ATOM      3  C   UNL     1      35.705 -21.044 -19.041  0.00  0.00    +0.249 C 
ATOM      4  H   UNL     1      33.686 -21.258 -18.943  0.00  0.00    +0.155 HD
ENDROOT
BRANCH   3  10
ATOM      5  C   UNL     1      35.282 -18.577 -22.450  0.00  0.00    -0.043 C 
ATOM      6  C   UNL     1      36.486 -18.590 -21.762  0.00  0.00    -0.006 C 
ATOM      7  C   UNL     1      34.213 -19.361 -22.037  0.00  0.00    -0.006 C 
ATOM      8  C   UNL     1      36.626 -19.405 -20.638  0.00  0.00    +0.004 C 
ATOM      9  C   UNL     1      34.353 -20.175 -20.914  0.00  0.00    +0.004 C 
ATOM     10  C   UNL     1      35.560 -20.197 -20.213  0.00  0.00    +0.054 C 
BRANCH   5  11
ATOM     11  C   UNL     1      35.130 -17.699 -23.664  0.00  0.00    -0.050 C 
BRANCH  11  12
ATOM     12  N   UNL     1      34.398 -16.471 -23.360  0.00  0.00    +0.387 N 
ATOM     13  N   UNL     1      34.159 -13.596 -23.163  0.00  0.00    +0.383 N 
ATOM     14  C   UNL     1      34.265 -15.634 -24.558  0.00  0.00    -0.100 C 
ATOM     15  C   UNL     1      35.060 -15.724 -22.284  0.00  0.00    -0.100 C 
ATOM     16  C   UNL     1      33.500 -14.345 -24.240  0.00  0.00    -0.101 C 
ATOM     17  C   UNL     1      34.295 -14.434 -21.964  0.00  0.00    -0.101 C 
ATOM     18  C   UNL     1      33.427 -12.370 -22.858  0.00  0.00    -0.101 C 
ATOM     19  H   UNL     1      33.465 -16.731 -23.044  0.00  0.00    -0.079 HD
ATOM     20  H   UNL     1      35.094 -13.335 -23.479  0.00  0.00    -0.080 HD
ENDBRANCH  11  12
ENDBRANCH   5  11
ENDBRANCH   3  10
BRANCH   2  21
ATOM     21  C   UNL     1      34.342 -22.340 -17.335  0.00  0.00    +0.052 C 
ATOM     22  C   UNL     1      35.304 -22.318 -16.340  0.00  0.00    +0.030 C 
ATOM     23  C   UNL     1      35.136 -23.124 -15.213  0.00  0.00    +0.059 C 
ATOM     24  C   UNL     1      33.217 -23.141 -17.238  0.00  0.00    +0.015 C 
ATOM     25  C   UNL     1      34.009 -23.937 -15.099  0.00  0.00    +0.015 C 
ATOM     26  C   UNL     1      33.049 -23.946 -16.111  0.00  0.00    +0.003 C 
BRANCH  23  27
ATOM     27  N   UNL     1      36.106 -23.114 -14.188  0.00  0.00    -0.247 N 
ATOM     28  N   UNL     1      37.256 -25.118 -14.599  0.00  0.00    -0.337 NA
ATOM     29  N   UNL     1      37.888 -23.680 -12.771  0.00  0.00    -0.170 NA
ATOM     30  C   UNL     1      37.131 -24.013 -13.837  0.00  0.00    +0.149 C 
ATOM     31  C   UNL     1      38.247 -25.956 -14.234  0.00  0.00    +0.147 C 
ATOM     32  C   UNL     1      39.089 -25.728 -13.165  0.00  0.00    +0.055 C 
ATOM     33  C   UNL     1      38.860 -24.563 -12.462  0.00  0.00    +0.114 C 
ATOM     34  H   UNL     1      36.055 -22.323 -13.604  0.00  0.00    +0.165 HD
BRANCH  31  36
ATOM     35  N   UNL     1      37.323 -28.948 -16.255  0.00  0.00    -0.242 NA
ATOM     36  C   UNL     1      38.382 -27.139 -15.050  0.00  0.00    +0.050 C 
ATOM     37  C   UNL     1      39.635 -27.615 -15.423  0.00  0.00    +0.006 C 
ATOM     38  C   UNL     1      37.268 -27.836 -15.488  0.00  0.00    +0.101 C 
ATOM     39  C   UNL     1      39.732 -28.757 -16.211  0.00  0.00    +0.021 C 
ATOM     40  C   UNL     1      38.557 -29.381 -16.597  0.00  0.00    +0.099 C 
ENDBRANCH  31  36
ENDBRANCH  23  27
ENDBRANCH   2  21
TORSDOF 6
ENDMDL
MODEL 5
REMARK VINA RESULT:     -11.7      2.270      5.518
REMARK  Name = 4369496
REMARK  6 active torsions:
REMARK  status: ('A' for Active; 'I' for Inactive)
REMARK    1  A    between atoms: N_2  and  C_21
REMARK    2  A    between atoms: C_3  and  C_10
REMARK    3  A    between atoms: C_5  and  C_11
REMARK    4  A    between atoms: C_11  and  N_12
REMARK    5  A    between atoms: C_23  and  N_27
REMARK    6  A    between atoms: C_31  and  C_36
REMARK                            x       y       z     vdW  Elec       q    Type
REMARK                         _______ _______ _______ _____ _____    ______ ____
ROOT
ATOM      1  O   UNL     1      34.395 -22.899 -17.244  0.00  0.00    -0.270 OA
ATOM      2  N   UNL     1      32.221 -22.049 -17.477  0.00  0.00    -0.280 N 
ATOM      3  C   UNL     1      33.564 -22.202 -17.848  0.00  0.00    +0.249 C 
ATOM      4  H   UNL     1      31.682 -21.463 -18.054  0.00  0.00    +0.155 HD
ENDROOT
BRANCH   3  10
ATOM      5  C   UNL     1      34.795 -20.028 -21.261  0.00  0.00    -0.043 C 
ATOM      6  C   UNL     1      33.447 -20.089 -20.940  0.00  0.00    -0.006 C 
ATOM      7  C   UNL     1      35.746 -20.668 -20.479  0.00  0.00    -0.006 C 
ATOM      8  C   UNL     1      33.041 -20.806 -19.814  0.00  0.00    +0.004 C 
ATOM      9  C   UNL     1      35.340 -21.384 -19.353  0.00  0.00    +0.004 C 
ATOM     10  C   UNL     1      33.987 -21.454 -19.021  0.00  0.00    +0.054 C 
BRANCH   5  11
ATOM     11  C   UNL     1      35.234 -19.253 -22.475  0.00  0.00    -0.050 C 
BRANCH  11  12
ATOM     12  N   UNL     1      34.662 -17.908 -22.499  0.00  0.00    +0.387 N 
ATOM     13  N   UNL     1      34.809 -15.053 -22.928  0.00  0.00    +0.383 N 
ATOM     14  C   UNL     1      34.715 -17.343 -23.853  0.00  0.00    -0.100 C 
ATOM     15  C   UNL     1      35.355 -17.030 -21.550  0.00  0.00    -0.100 C 
ATOM     16  C   UNL     1      34.117 -15.932 -23.879  0.00  0.00    -0.101 C 
ATOM     17  C   UNL     1      34.758 -15.619 -21.574  0.00  0.00    -0.101 C 
ATOM     18  C   UNL     1      34.236 -13.709 -22.952  0.00  0.00    -0.101 C 
ATOM     19  H   UNL     1      33.684 -17.977 -22.219  0.00  0.00    -0.079 HD
ATOM     20  H   UNL     1      35.788 -14.982 -23.210  0.00  0.00    -0.080 HD
ENDBRANCH  11  12
ENDBRANCH   5  11
ENDBRANCH   3  10
BRANCH   2  21
ATOM     21  C   UNL     1      31.538 -22.628 -16.379  0.00  0.00    +0.052 C 
ATOM     22  C   UNL     1      32.263 -23.049 -15.277  0.00  0.00    +0.030 C 
ATOM     23  C   UNL     1      31.590 -23.620 -14.197  0.00  0.00    +0.059 C 
ATOM     24  C   UNL     1      30.161 -22.759 -16.433  0.00  0.00    +0.015 C 
ATOM     25  C   UNL     1      30.203 -23.760 -14.234  0.00  0.00    +0.015 C 
ATOM     26  C   UNL     1      29.488 -23.330 -15.352  0.00  0.00    +0.003 C 
BRANCH  23  27
ATOM     27  N   UNL     1      32.312 -24.054 -13.065  0.00  0.00    -0.247 N 
ATOM     28  N   UNL     1      34.520 -23.568 -13.694  0.00  0.00    -0.337 NA
ATOM     29  N   UNL     1      34.034 -24.565 -11.555  0.00  0.00    -0.170 NA
ATOM     30  C   UNL     1      33.687 -24.063 -12.758  0.00  0.00    +0.149 C 
ATOM     31  C   UNL     1      35.829 -23.592 -13.366  0.00  0.00    +0.147 C 
ATOM     32  C   UNL     1      36.309 -24.079 -12.168  0.00  0.00    +0.055 C 
ATOM     33  C   UNL     1      35.357 -24.558 -11.293  0.00  0.00    +0.114 C 
ATOM     34  H   UNL     1      31.744 -24.424 -12.351  0.00  0.00    +0.165 HD
BRANCH  31  36
ATOM     35  N   UNL     1      37.255 -21.299 -15.935  0.00  0.00    -0.242 NA
ATOM     36  C   UNL     1      36.722 -23.062 -14.368  0.00  0.00    +0.050 C 
ATOM     37  C   UNL     1      37.872 -23.750 -14.740  0.00  0.00    +0.006 C 
ATOM     38  C   UNL     1      36.461 -21.852 -14.990  0.00  0.00    +0.101 C 
ATOM     39  C   UNL     1      38.713 -23.213 -15.709  0.00  0.00    +0.021 C 
ATOM     40  C   UNL     1      38.363 -21.996 -16.270  0.00  0.00    +0.099 C 
ENDBRANCH  31  36
ENDBRANCH  23  27
ENDBRANCH   2  21
TORSDOF 6
ENDMDL
MODEL 6
REMARK VINA RESULT:     -11.6      1.833      2.816
REMARK  Name = 4369496
REMARK  6 active torsions:
REMARK  status: ('A' for Active; 'I' for Inactive)
REMARK    1  A    between atoms: N_2  and  C_21
REMARK    2  A    between atoms: C_3  and  C_10
REMARK    3  A    between atoms: C_5  and  C_11
REMARK    4  A    between atoms: C_11  and  N_12
REMARK    5  A    between atoms: C_23  and  N_27
REMARK    6  A    between atoms: C_31  and  C_36
REMARK                            x       y       z     vdW  Elec       q    Type
REMARK                         _______ _______ _______ _____ _____    ______ ____
ROOT
ATOM      1  O   UNL     1      34.474 -17.017 -24.178  0.00  0.00    -0.270 OA
ATOM      2  N   UNL     1      34.936 -16.518 -21.933  0.00  0.00    -0.280 N 
ATOM      3  C   UNL     1      34.565 -16.201 -23.247  0.00  0.00    +0.249 C 
ATOM      4  H   UNL     1      34.964 -15.763 -21.303  0.00  0.00    +0.155 HD
ENDROOT
BRANCH   3  10
ATOM      5  C   UNL     1      33.784 -12.114 -24.009  0.00  0.00    -0.043 C 
ATOM      6  C   UNL     1      34.246 -12.500 -22.759  0.00  0.00    -0.006 C 
ATOM      7  C   UNL     1      33.574 -13.049 -25.014  0.00  0.00    -0.006 C 
ATOM      8  C   UNL     1      34.505 -13.848 -22.508  0.00  0.00    +0.004 C 
ATOM      9  C   UNL     1      33.833 -14.396 -24.762  0.00  0.00    +0.004 C 
ATOM     10  C   UNL     1      34.298 -14.796 -23.510  0.00  0.00    +0.054 C 
BRANCH   5  11
ATOM     11  C   UNL     1      33.506 -10.660 -24.281  0.00  0.00    -0.050 C 
BRANCH  11  12
ATOM     12  N   UNL     1      33.467  -9.873 -23.049  0.00  0.00    +0.387 N 
ATOM     13  N   UNL     1      32.536  -7.666 -21.430  0.00  0.00    +0.383 N 
ATOM     14  C   UNL     1      32.114  -9.864 -22.481  0.00  0.00    -0.100 C 
ATOM     15  C   UNL     1      33.931  -8.502 -23.291  0.00  0.00    -0.100 C 
ATOM     16  C   UNL     1      32.071  -9.038 -21.190  0.00  0.00    -0.101 C 
ATOM     17  C   UNL     1      33.889  -7.676 -22.001  0.00  0.00    -0.101 C 
ATOM     18  C   UNL     1      32.498  -6.882 -20.199  0.00  0.00    -0.101 C 
ATOM     19  H   UNL     1      34.095 -10.311 -22.376  0.00  0.00    -0.079 HD
ATOM     20  H   UNL     1      31.907  -7.227 -22.103  0.00  0.00    -0.080 HD
ENDBRANCH  11  12
ENDBRANCH   5  11
ENDBRANCH   3  10
BRANCH   2  21
ATOM     21  C   UNL     1      35.276 -17.783 -21.393  0.00  0.00    +0.052 C 
ATOM     22  C   UNL     1      34.277 -18.586 -20.871  0.00  0.00    +0.030 C 
ATOM     23  C   UNL     1      34.613 -19.831 -20.337  0.00  0.00    +0.059 C 
ATOM     24  C   UNL     1      36.600 -18.186 -21.400  0.00  0.00    +0.015 C 
ATOM     25  C   UNL     1      35.942 -20.254 -20.337  0.00  0.00    +0.015 C 
ATOM     26  C   UNL     1      36.936 -19.432 -20.868  0.00  0.00    +0.003 C 
BRANCH  23  27
ATOM     27  N   UNL     1      33.607 -20.663 -19.802  0.00  0.00    -0.247 N 
ATOM     28  N   UNL     1      34.737 -21.690 -18.019  0.00  0.00    -0.337 NA
ATOM     29  N   UNL     1      32.430 -22.208 -18.486  0.00  0.00    -0.170 NA
ATOM     30  C   UNL     1      33.591 -21.562 -18.719  0.00  0.00    +0.149 C 
ATOM     31  C   UNL     1      34.684 -22.559 -16.989  0.00  0.00    +0.147 C 
ATOM     32  C   UNL     1      33.557 -23.279 -16.650  0.00  0.00    +0.055 C 
ATOM     33  C   UNL     1      32.449 -23.061 -17.441  0.00  0.00    +0.114 C 
ATOM     34  H   UNL     1      32.749 -20.604 -20.281  0.00  0.00    +0.165 HD
BRANCH  31  36
ATOM     35  N   UNL     1      37.065 -23.588 -14.312  0.00  0.00    -0.242 NA
ATOM     36  C   UNL     1      35.910 -22.695 -16.240  0.00  0.00    +0.050 C 
ATOM     37  C   UNL     1      37.089 -22.100 -16.678  0.00  0.00    +0.006 C 
ATOM     38  C   UNL     1      35.952 -23.422 -15.061  0.00  0.00    +0.101 C 
ATOM     39  C   UNL     1      38.255 -22.248 -15.934  0.00  0.00    +0.021 C 
ATOM     40  C   UNL     1      38.190 -22.996 -14.770  0.00  0.00    +0.099 C 
ENDBRANCH  31  36
ENDBRANCH  23  27
ENDBRANCH   2  21
TORSDOF 6
ENDMDL
MODEL 7
REMARK VINA RESULT:     -11.4      1.436      2.693
REMARK  Name = 4369496
REMARK  6 active torsions:
REMARK  status: ('A' for Active; 'I' for Inactive)
REMARK    1  A    between atoms: N_2  and  C_21
REMARK    2  A    between atoms: C_3  and  C_10
REMARK    3  A    between atoms: C_5  and  C_11
REMARK    4  A    between atoms: C_11  and  N_12
REMARK    5  A    between atoms: C_23  and  N_27
REMARK    6  A    between atoms: C_31  and  C_36
REMARK                            x       y       z     vdW  Elec       q    Type
REMARK                         _______ _______ _______ _____ _____    ______ ____
ROOT
ATOM      1  O   UNL     1      36.369 -18.679 -22.132  0.00  0.00    -0.270 OA
ATOM      2  N   UNL     1      34.258 -18.719 -21.110  0.00  0.00    -0.280 N 
ATOM      3  C   UNL     1      35.248 -18.180 -21.943  0.00  0.00    +0.249 C 
ATOM      4  H   UNL     1      33.418 -18.209 -21.061  0.00  0.00    +0.155 HD
ENDROOT
BRANCH   3  10
ATOM      5  C   UNL     1      34.266 -14.537 -23.856  0.00  0.00    -0.043 C 
ATOM      6  C   UNL     1      34.591 -14.535 -22.507  0.00  0.00    -0.006 C 
ATOM      7  C   UNL     1      34.258 -15.716 -24.587  0.00  0.00    -0.006 C 
ATOM      8  C   UNL     1      34.916 -15.736 -21.877  0.00  0.00    +0.004 C 
ATOM      9  C   UNL     1      34.583 -16.917 -23.957  0.00  0.00    +0.004 C 
ATOM     10  C   UNL     1      34.912 -16.928 -22.601  0.00  0.00    +0.054 C 
BRANCH   5  11
ATOM     11  C   UNL     1      33.917 -13.241 -24.537  0.00  0.00    -0.050 C 
BRANCH  11  12
ATOM     12  N   UNL     1      33.735 -12.153 -23.578  0.00  0.00    +0.387 N 
ATOM     13  N   UNL     1      32.336  -9.851 -22.527  0.00  0.00    +0.383 N 
ATOM     14  C   UNL     1      32.461 -12.297 -22.863  0.00  0.00    -0.100 C 
ATOM     15  C   UNL     1      33.801 -10.850 -24.249  0.00  0.00    -0.100 C 
ATOM     16  C   UNL     1      32.268 -11.156 -21.858  0.00  0.00    -0.101 C 
ATOM     17  C   UNL     1      33.609  -9.708 -23.244  0.00  0.00    -0.101 C 
ATOM     18  C   UNL     1      32.155  -8.765 -21.567  0.00  0.00    -0.101 C 
ATOM     19  H   UNL     1      34.492 -12.204 -22.897  0.00  0.00    -0.079 HD
ATOM     20  H   UNL     1      31.576  -9.800 -23.208  0.00  0.00    -0.080 HD
ENDBRANCH  11  12
ENDBRANCH   5  11
ENDBRANCH   3  10
BRANCH   2  21
ATOM     21  C   UNL     1      34.309 -19.900 -20.330  0.00  0.00    +0.052 C 
ATOM     22  C   UNL     1      35.447 -20.174 -19.591  0.00  0.00    +0.030 C 
ATOM     23  C   UNL     1      35.497 -21.339 -18.824  0.00  0.00    +0.059 C 
ATOM     24  C   UNL     1      33.219 -20.753 -20.325  0.00  0.00    +0.015 C 
ATOM     25  C   UNL     1      34.407 -22.210 -18.807  0.00  0.00    +0.015 C 
ATOM     26  C   UNL     1      33.269 -21.917 -19.558  0.00  0.00    +0.003 C 
BRANCH  23  27
ATOM     27  N   UNL     1      36.648 -21.633 -18.064  0.00  0.00    -0.247 N 
ATOM     28  N   UNL     1      35.715 -22.604 -16.142  0.00  0.00    -0.337 NA
ATOM     29  N   UNL     1      38.100 -22.353 -16.368  0.00  0.00    -0.170 NA
ATOM     30  C   UNL     1      36.829 -22.224 -16.798  0.00  0.00    +0.149 C 
ATOM     31  C   UNL     1      35.926 -23.167 -14.934  0.00  0.00    +0.147 C 
ATOM     32  C   UNL     1      37.177 -23.354 -14.384  0.00  0.00    +0.055 C 
ATOM     33  C   UNL     1      38.238 -22.923 -15.153  0.00  0.00    +0.114 C 
ATOM     34  H   UNL     1      37.489 -21.374 -18.504  0.00  0.00    +0.165 HD
BRANCH  31  36
ATOM     35  N   UNL     1      33.707 -24.365 -12.189  0.00  0.00    -0.242 NA
ATOM     36  C   UNL     1      34.733 -23.574 -14.231  0.00  0.00    +0.050 C 
ATOM     37  C   UNL     1      33.494 -23.581 -14.863  0.00  0.00    +0.006 C 
ATOM     38  C   UNL     1      34.785 -23.972 -12.905  0.00  0.00    +0.101 C 
ATOM     39  C   UNL     1      32.363 -23.979 -14.160  0.00  0.00    +0.021 C 
ATOM     40  C   UNL     1      32.521 -24.358 -12.837  0.00  0.00    +0.099 C 
ENDBRANCH  31  36
ENDBRANCH  23  27
ENDBRANCH   2  21
TORSDOF 6
ENDMDL
MODEL 8
REMARK VINA RESULT:     -11.2      6.268     15.720
REMARK  Name = 4369496
REMARK  6 active torsions:
REMARK  status: ('A' for Active; 'I' for Inactive)
REMARK    1  A    between atoms: N_2  and  C_21
REMARK    2  A    between atoms: C_3  and  C_10
REMARK    3  A    between atoms: C_5  and  C_11
REMARK    4  A    between atoms: C_11  and  N_12
REMARK    5  A    between atoms: C_23  and  N_27
REMARK    6  A    between atoms: C_31  and  C_36
REMARK                            x       y       z     vdW  Elec       q    Type
REMARK                         _______ _______ _______ _____ _____    ______ ____
ROOT
ATOM      1  O   UNL     1      34.472  -8.690 -23.652  0.00  0.00    -0.270 OA
ATOM      2  N   UNL     1      32.541  -9.061 -22.372  0.00  0.00    -0.280 N 
ATOM      3  C   UNL     1      33.577  -9.443 -23.236  0.00  0.00    +0.249 C 
ATOM      4  H   UNL     1      31.904  -9.770 -22.129  0.00  0.00    +0.155 HD
ENDROOT
BRANCH   3  10
ATOM      5  C   UNL     1      33.519 -13.472 -24.522  0.00  0.00    -0.043 C 
ATOM      6  C   UNL     1      33.178 -13.168 -23.212  0.00  0.00    -0.006 C 
ATOM      7  C   UNL     1      33.879 -12.474 -25.417  0.00  0.00    -0.006 C 
ATOM      8  C   UNL     1      33.196 -11.839 -22.788  0.00  0.00    +0.004 C 
ATOM      9  C   UNL     1      33.897 -11.146 -24.994  0.00  0.00    +0.004 C 
ATOM     10  C   UNL     1      33.556 -10.828 -23.679  0.00  0.00    +0.054 C 
BRANCH   5  11
ATOM     11  C   UNL     1      33.499 -14.906 -24.981  0.00  0.00    -0.050 C 
BRANCH  11  12
ATOM     12  N   UNL     1      33.886 -15.825 -23.912  0.00  0.00    +0.387 N 
ATOM     13  N   UNL     1      35.760 -17.569 -22.567  0.00  0.00    +0.383 N 
ATOM     14  C   UNL     1      35.013 -15.284 -23.143  0.00  0.00    -0.100 C 
ATOM     15  C   UNL     1      34.225 -17.145 -24.457  0.00  0.00    -0.100 C 
ATOM     16  C   UNL     1      35.422 -16.247 -22.024  0.00  0.00    -0.101 C 
ATOM     17  C   UNL     1      34.633 -18.109 -23.338  0.00  0.00    -0.101 C 
ATOM     18  C   UNL     1      36.146 -18.487 -21.498  0.00  0.00    -0.101 C 
ATOM     19  H   UNL     1      33.091 -15.931 -23.284  0.00  0.00    -0.079 HD
ATOM     20  H   UNL     1      36.558 -17.463 -23.195  0.00  0.00    -0.080 HD
ENDBRANCH  11  12
ENDBRANCH   5  11
ENDBRANCH   3  10
BRANCH   2  21
ATOM     21  C   UNL     1      32.291  -7.788 -21.804  0.00  0.00    +0.052 C 
ATOM     22  C   UNL     1      31.686  -6.810 -22.574  0.00  0.00    +0.030 C 
ATOM     23  C   UNL     1      31.442  -5.555 -22.014  0.00  0.00    +0.059 C 
ATOM     24  C   UNL     1      32.658  -7.551 -20.490  0.00  0.00    +0.015 C 
ATOM     25  C   UNL     1      31.805  -5.299 -20.692  0.00  0.00    +0.015 C 
ATOM     26  C   UNL     1      32.413  -6.297 -19.930  0.00  0.00    +0.003 C 
BRANCH  23  27
ATOM     27  N   UNL     1      30.825  -4.547 -22.784  0.00  0.00    -0.247 N 
ATOM     28  N   UNL     1      32.513  -4.027 -24.329  0.00  0.00    -0.337 NA
ATOM     29  N   UNL     1      30.392  -2.885 -24.382  0.00  0.00    -0.170 NA
ATOM     30  C   UNL     1      31.264  -3.784 -23.883  0.00  0.00    +0.149 C 
ATOM     31  C   UNL     1      32.901  -3.278 -25.382  0.00  0.00    +0.147 C 
ATOM     32  C   UNL     1      32.101  -2.327 -25.982  0.00  0.00    +0.055 C 
ATOM     33  C   UNL     1      30.844  -2.171 -25.434  0.00  0.00    +0.114 C 
ATOM     34  H   UNL     1      29.908  -4.335 -22.496  0.00  0.00    +0.165 HD
BRANCH  31  36
ATOM     35  N   UNL     1      36.182  -2.771 -27.075  0.00  0.00    -0.242 NA
ATOM     36  C   UNL     1      34.237  -3.538 -25.860  0.00  0.00    +0.050 C 
ATOM     37  C   UNL     1      34.872  -4.747 -25.594  0.00  0.00    +0.006 C 
ATOM     38  C   UNL     1      34.930  -2.592 -26.599  0.00  0.00    +0.101 C 
ATOM     39  C   UNL     1      36.160  -4.968 -26.068  0.00  0.00    +0.021 C 
ATOM     40  C   UNL     1      36.766  -3.957 -26.797  0.00  0.00    +0.099 C 
ENDBRANCH  31  36
ENDBRANCH  23  27
ENDBRANCH   2  21
TORSDOF 6
ENDMDL
MODEL 9
REMARK VINA RESULT:     -10.9      4.016     14.996
REMARK  Name = 4369496
REMARK  6 active torsions:
REMARK  status: ('A' for Active; 'I' for Inactive)
REMARK    1  A    between atoms: N_2  and  C_21
REMARK    2  A    between atoms: C_3  and  C_10
REMARK    3  A    between atoms: C_5  and  C_11
REMARK    4  A    between atoms: C_11  and  N_12
REMARK    5  A    between atoms: C_23  and  N_27
REMARK    6  A    between atoms: C_31  and  C_36
REMARK                            x       y       z     vdW  Elec       q    Type
REMARK                         _______ _______ _______ _____ _____    ______ ____
ROOT
ATOM      1  O   UNL     1      32.442 -12.286 -22.657  0.00  0.00    -0.270 OA
ATOM      2  N   UNL     1      34.495 -11.645 -23.595  0.00  0.00    -0.280 N 
ATOM      3  C   UNL     1      33.562 -12.573 -23.110  0.00  0.00    +0.249 C 
ATOM      4  H   UNL     1      35.342 -12.023 -23.923  0.00  0.00    +0.155 HD
ENDROOT
BRANCH   3  10
ATOM      5  C   UNL     1      34.777 -16.623 -23.170  0.00  0.00    -0.043 C 
ATOM      6  C   UNL     1      34.216 -16.062 -24.307  0.00  0.00    -0.006 C 
ATOM      7  C   UNL     1      34.947 -15.877 -22.012  0.00  0.00    -0.006 C 
ATOM      8  C   UNL     1      33.816 -14.726 -24.288  0.00  0.00    +0.004 C 
ATOM      9  C   UNL     1      34.547 -14.541 -21.993  0.00  0.00    +0.004 C 
ATOM     10  C   UNL     1      33.981 -13.965 -23.131  0.00  0.00    +0.054 C 
BRANCH   5  11
ATOM     11  C   UNL     1      35.211 -18.066 -23.190  0.00  0.00    -0.050 C 
BRANCH  11  12
ATOM     12  N   UNL     1      35.329 -18.618 -21.842  0.00  0.00    +0.387 N 
ATOM     13  N   UNL     1      35.938 -20.734 -19.969  0.00  0.00    +0.383 N 
ATOM     14  C   UNL     1      36.715 -19.008 -21.558  0.00  0.00    -0.100 C 
ATOM     15  C   UNL     1      34.428 -19.763 -21.667  0.00  0.00    -0.100 C 
ATOM     16  C   UNL     1      36.839 -19.589 -20.145  0.00  0.00    -0.101 C 
ATOM     17  C   UNL     1      34.551 -20.345 -20.255  0.00  0.00    -0.101 C 
ATOM     18  C   UNL     1      36.055 -21.284 -18.620  0.00  0.00    -0.101 C 
ATOM     19  H   UNL     1      35.057 -17.892 -21.179  0.00  0.00    -0.079 HD
ATOM     20  H   UNL     1      36.210 -21.462 -20.631  0.00  0.00    -0.080 HD
ENDBRANCH  11  12
ENDBRANCH   5  11
ENDBRANCH   3  10
BRANCH   2  21
ATOM     21  C   UNL     1      34.378 -10.236 -23.676  0.00  0.00    +0.052 C 
ATOM     22  C   UNL     1      33.584  -9.570 -22.757  0.00  0.00    +0.030 C 
ATOM     23  C   UNL     1      33.467  -8.182 -22.838  0.00  0.00    +0.059 C 
ATOM     24  C   UNL     1      35.060  -9.557 -24.671  0.00  0.00    +0.015 C 
ATOM     25  C   UNL     1      34.148  -7.482 -23.835  0.00  0.00    +0.015 C 
ATOM     26  C   UNL     1      34.944  -8.169 -24.751  0.00  0.00    +0.003 C 
BRANCH  23  27
ATOM     27  N   UNL     1      32.664  -7.487 -21.910  0.00  0.00    -0.247 N 
ATOM     28  N   UNL     1      32.245  -5.479 -23.052  0.00  0.00    -0.337 NA
ATOM     29  N   UNL     1      31.342  -5.863 -20.851  0.00  0.00    -0.170 NA
ATOM     30  C   UNL     1      32.056  -6.217 -21.939  0.00  0.00    +0.149 C 
ATOM     31  C   UNL     1      31.648  -4.269 -23.045  0.00  0.00    +0.147 C 
ATOM     32  C   UNL     1      30.893  -3.794 -21.993  0.00  0.00    +0.055 C 
ATOM     33  C   UNL     1      30.773  -4.642 -20.912  0.00  0.00    +0.114 C 
ATOM     34  H   UNL     1      32.496  -7.987 -21.079  0.00  0.00    +0.165 HD
BRANCH  31  36
ATOM     35  N   UNL     1      30.960  -1.924 -25.858  0.00  0.00    -0.242 NA
ATOM     36  C   UNL     1      31.850  -3.480 -24.235  0.00  0.00    +0.050 C 
ATOM     37  C   UNL     1      33.069  -3.490 -24.906  0.00  0.00    +0.006 C 
ATOM     38  C   UNL     1      30.837  -2.687 -24.749  0.00  0.00    +0.101 C 
ATOM     39  C   UNL     1      33.234  -2.719 -26.051  0.00  0.00    +0.021 C 
ATOM     40  C   UNL     1      32.158  -1.960 -26.481  0.00  0.00    +0.099 C 
ENDBRANCH  31  36
ENDBRANCH  23  27
ENDBRANCH   2  21
TORSDOF 6
ENDMDL
