MODEL 1
REMARK VINA RESULT:     -11.0      0.000      0.000
REMARK  Name = 11234049
REMARK  5 active torsions:
REMARK  status: ('A' for Active; 'I' for Inactive)
REMARK    1  A    between atoms: C_2  and  N_10
REMARK    2  A    between atoms: C_5  and  C_18
REMARK    3  A    between atoms: C_11  and  C_14
REMARK    4  A    between atoms: C_14  and  O_15
REMARK    5  A    between atoms: C_22  and  C_27
REMARK                            x       y       z     vdW  Elec       q    Type
REMARK                         _______ _______ _______ _____ _____    ______ ____
ROOT
ATOM      1  F   UNL     1      33.258 -22.594 -17.744  0.00  0.00    -0.204 F 
ATOM      2  C   UNL     1      36.008 -23.257 -15.454  0.00  0.00    +0.059 C 
ATOM      3  C   UNL     1      34.737 -23.284 -16.039  0.00  0.00    +0.045 C 
ATOM      4  C   UNL     1      37.021 -22.495 -16.044  0.00  0.00    +0.015 C 
ATOM      5  C   UNL     1      35.498 -21.797 -17.784  0.00  0.00    +0.029 C 
ATOM      6  C   UNL     1      34.482 -22.556 -17.200  0.00  0.00    +0.141 C 
ATOM      7  C   UNL     1      36.767 -21.768 -17.207  0.00  0.00    +0.004 C 
ENDROOT
BRANCH   2  10
ATOM      8  O   UNL     1      36.698 -25.689 -12.834  0.00  0.00    -0.434 OA
ATOM      9  O   UNL     1      36.502 -26.228 -15.028  0.00  0.00    -0.226 OA
ATOM     10  N   UNL     1      36.267 -24.000 -14.267  0.00  0.00    -0.221 N 
ATOM     11  C   UNL     1      36.838 -24.479 -12.077  0.00  0.00    +0.220 C 
ATOM     12  C   UNL     1      36.219 -23.413 -12.955  0.00  0.00    +0.148 C 
ATOM     13  C   UNL     1      36.494 -25.369 -14.158  0.00  0.00    +0.409 C 
BRANCH  11  14
ATOM     14  C   UNL     1      38.315 -24.242 -11.796  0.00  0.00    +0.183 C 
BRANCH  14  15
ATOM     15  O   UNL     1      38.455 -23.007 -11.116  0.00  0.00    -0.378 OA
ATOM     16  H   UNL     1      39.331 -22.964 -10.702  0.00  0.00    +0.211 HD
ENDBRANCH  14  15
ENDBRANCH  11  14
ENDBRANCH   2  10
BRANCH   5  18
ATOM     17  N   UNL     1      36.096 -19.699 -20.807  0.00  0.00    -0.234 NA
ATOM     18  C   UNL     1      35.239 -21.040 -18.991  0.00  0.00    +0.021 C 
ATOM     19  C   UNL     1      33.950 -20.916 -19.492  0.00  0.00    +0.004 C 
ATOM     20  C   UNL     1      36.269 -20.419 -19.676  0.00  0.00    +0.100 C 
ATOM     21  C   UNL     1      33.732 -20.183 -20.653  0.00  0.00    +0.029 C 
ATOM     22  C   UNL     1      34.829 -19.599 -21.267  0.00  0.00    +0.146 C 
BRANCH  22  27
ATOM     23  N   UNL     1      34.965 -17.533 -22.556  0.00  0.00    -0.105 NA
ATOM     24  N   UNL     1      34.632 -17.322 -23.837  0.00  0.00    -0.113 N 
ATOM     25  N   UNL     1      34.177 -19.371 -23.619  0.00  0.00    -0.085 NA
ATOM     26  N   UNL     1      34.160 -18.384 -24.506  0.00  0.00    -0.018 NA
ATOM     27  C   UNL     1      34.662 -18.829 -22.467  0.00  0.00    +0.092 C 
ATOM     28  C   UNL     1      34.771 -16.031 -24.459  0.00  0.00    +0.163 C 
ENDBRANCH  22  27
ENDBRANCH   5  18
TORSDOF 5
ENDMDL
MODEL 2
REMARK VINA RESULT:     -10.7      4.776     10.031
REMARK  Name = 11234049
REMARK  5 active torsions:
REMARK  status: ('A' for Active; 'I' for Inactive)
REMARK    1  A    between atoms: C_2  and  N_10
REMARK    2  A    between atoms: C_5  and  C_18
REMARK    3  A    between atoms: C_11  and  C_14
REMARK    4  A    between atoms: C_14  and  O_15
REMARK    5  A    between atoms: C_22  and  C_27
REMARK                            x       y       z     vdW  Elec       q    Type
REMARK                         _______ _______ _______ _____ _____    ______ ____
ROOT
ATOM      1  F   UNL     1      33.035 -20.999 -19.569  0.00  0.00    -0.204 F 
ATOM      2  C   UNL     1      35.022 -18.892 -21.773  0.00  0.00    +0.059 C 
ATOM      3  C   UNL     1      33.928 -19.560 -21.214  0.00  0.00    +0.045 C 
ATOM      4  C   UNL     1      36.287 -19.039 -21.195  0.00  0.00    +0.015 C 
ATOM      5  C   UNL     1      35.362 -20.509 -19.517  0.00  0.00    +0.029 C 
ATOM      6  C   UNL     1      34.096 -20.367 -20.089  0.00  0.00    +0.141 C 
ATOM      7  C   UNL     1      36.456 -19.844 -20.069  0.00  0.00    +0.004 C 
ENDROOT
BRANCH   2  10
ATOM      8  O   UNL     1      34.230 -17.313 -24.957  0.00  0.00    -0.434 OA
ATOM      9  O   UNL     1      33.559 -19.403 -24.390  0.00  0.00    -0.226 OA
ATOM     10  N   UNL     1      34.850 -18.070 -22.922  0.00  0.00    -0.221 N 
ATOM     11  C   UNL     1      34.796 -16.189 -24.269  0.00  0.00    +0.220 C 
ATOM     12  C   UNL     1      35.498 -16.795 -23.073  0.00  0.00    +0.148 C 
ATOM     13  C   UNL     1      34.151 -18.378 -24.087  0.00  0.00    +0.409 C 
BRANCH  11  14
ATOM     14  C   UNL     1      33.676 -15.231 -23.885  0.00  0.00    +0.183 C 
BRANCH  14  15
ATOM     15  O   UNL     1      33.251 -14.543 -25.048  0.00  0.00    -0.378 OA
ATOM     16  H   UNL     1      33.965 -14.545 -25.704  0.00  0.00    +0.211 HD
ENDBRANCH  14  15
ENDBRANCH  11  14
ENDBRANCH   2  10
BRANCH   5  18
ATOM     17  N   UNL     1      34.614 -22.941 -16.791  0.00  0.00    -0.234 NA
ATOM     18  C   UNL     1      35.542 -21.345 -18.348  0.00  0.00    +0.021 C 
ATOM     19  C   UNL     1      36.755 -21.375 -17.673  0.00  0.00    +0.004 C 
ATOM     20  C   UNL     1      34.511 -22.137 -17.875  0.00  0.00    +0.100 C 
ATOM     21  C   UNL     1      36.899 -22.188 -16.554  0.00  0.00    +0.029 C 
ATOM     22  C   UNL     1      35.808 -22.944 -16.158  0.00  0.00    +0.146 C 
BRANCH  22  27
ATOM     23  N   UNL     1      35.583 -23.408 -13.774  0.00  0.00    -0.105 NA
ATOM     24  N   UNL     1      35.839 -24.546 -13.115  0.00  0.00    -0.113 N 
ATOM     25  N   UNL     1      36.320 -25.093 -15.095  0.00  0.00    -0.085 NA
ATOM     26  N   UNL     1      36.279 -25.572 -13.859  0.00  0.00    -0.018 NA
ATOM     27  C   UNL     1      35.899 -23.800 -15.010  0.00  0.00    +0.092 C 
ATOM     28  C   UNL     1      35.656 -24.662 -11.691  0.00  0.00    +0.163 C 
ENDBRANCH  22  27
ENDBRANCH   5  18
TORSDOF 5
ENDMDL
MODEL 3
REMARK VINA RESULT:     -10.7     10.136     14.761
REMARK  Name = 11234049
REMARK  5 active torsions:
REMARK  status: ('A' for Active; 'I' for Inactive)
REMARK    1  A    between atoms: C_2  and  N_10
REMARK    2  A    between atoms: C_5  and  C_18
REMARK    3  A    between atoms: C_11  and  C_14
REMARK    4  A    between atoms: C_14  and  O_15
REMARK    5  A    between atoms: C_22  and  C_27
REMARK                            x       y       z     vdW  Elec       q    Type
REMARK                         _______ _______ _______ _____ _____    ______ ____
ROOT
ATOM      1  F   UNL     1      31.480 -11.156 -21.955  0.00  0.00    -0.204 F 
ATOM      2  C   UNL     1      33.098  -8.022 -22.853  0.00  0.00    +0.059 C 
ATOM      3  C   UNL     1      32.186  -8.931 -22.305  0.00  0.00    +0.045 C 
ATOM      4  C   UNL     1      34.191  -8.499 -23.582  0.00  0.00    +0.015 C 
ATOM      5  C   UNL     1      33.459 -10.771 -23.216  0.00  0.00    +0.029 C 
ATOM      6  C   UNL     1      32.365 -10.302 -22.487  0.00  0.00    +0.141 C 
ATOM      7  C   UNL     1      34.372  -9.869 -23.762  0.00  0.00    +0.004 C 
ENDROOT
BRANCH   2  10
ATOM      8  O   UNL     1      32.738  -4.404 -23.047  0.00  0.00    -0.434 OA
ATOM      9  O   UNL     1      33.193  -5.719 -24.837  0.00  0.00    -0.226 OA
ATOM     10  N   UNL     1      32.914  -6.622 -22.668  0.00  0.00    -0.221 N 
ATOM     11  C   UNL     1      32.301  -4.614 -21.697  0.00  0.00    +0.220 C 
ATOM     12  C   UNL     1      32.748  -6.022 -21.371  0.00  0.00    +0.148 C 
ATOM     13  C   UNL     1      32.964  -5.626 -23.640  0.00  0.00    +0.409 C 
BRANCH  11  14
ATOM     14  C   UNL     1      30.790  -4.434 -21.635  0.00  0.00    +0.183 C 
BRANCH  14  15
ATOM     15  O   UNL     1      30.499  -3.048 -21.593  0.00  0.00    -0.378 OA
ATOM     16  H   UNL     1      29.978  -2.804 -22.373  0.00  0.00    +0.211 HD
ENDBRANCH  14  15
ENDBRANCH  11  14
ENDBRANCH   2  10
BRANCH   5  18
ATOM     17  N   UNL     1      34.286 -14.331 -22.481  0.00  0.00    -0.234 NA
ATOM     18  C   UNL     1      33.650 -12.194 -23.407  0.00  0.00    +0.021 C 
ATOM     19  C   UNL     1      33.397 -12.789 -24.636  0.00  0.00    +0.004 C 
ATOM     20  C   UNL     1      34.089 -12.998 -22.370  0.00  0.00    +0.100 C 
ATOM     21  C   UNL     1      33.590 -14.157 -24.789  0.00  0.00    +0.029 C 
ATOM     22  C   UNL     1      34.032 -14.877 -23.691  0.00  0.00    +0.146 C 
BRANCH  22  27
ATOM     23  N   UNL     1      34.890 -17.005 -22.864  0.00  0.00    -0.105 NA
ATOM     24  N   UNL     1      34.813 -18.216 -23.433  0.00  0.00    -0.113 N 
ATOM     25  N   UNL     1      33.811 -17.023 -24.855  0.00  0.00    -0.085 NA
ATOM     26  N   UNL     1      34.182 -18.274 -24.614  0.00  0.00    -0.018 NA
ATOM     27  C   UNL     1      34.248 -16.292 -23.792  0.00  0.00    +0.092 C 
ATOM     28  C   UNL     1      35.377 -19.387 -22.813  0.00  0.00    +0.163 C 
ENDBRANCH  22  27
ENDBRANCH   5  18
TORSDOF 5
ENDMDL
MODEL 4
REMARK VINA RESULT:     -10.7     10.386     15.015
REMARK  Name = 11234049
REMARK  5 active torsions:
REMARK  status: ('A' for Active; 'I' for Inactive)
REMARK    1  A    between atoms: C_2  and  N_10
REMARK    2  A    between atoms: C_5  and  C_18
REMARK    3  A    between atoms: C_11  and  C_14
REMARK    4  A    between atoms: C_14  and  O_15
REMARK    5  A    between atoms: C_22  and  C_27
REMARK                            x       y       z     vdW  Elec       q    Type
REMARK                         _______ _______ _______ _____ _____    ______ ____
ROOT
ATOM      1  F   UNL     1      35.454 -10.156 -24.384  0.00  0.00    -0.204 F 
ATOM      2  C   UNL     1      33.049  -7.841 -22.936  0.00  0.00    +0.059 C 
ATOM      3  C   UNL     1      34.171  -8.332 -23.611  0.00  0.00    +0.045 C 
ATOM      4  C   UNL     1      32.128  -8.738 -22.388  0.00  0.00    +0.015 C 
ATOM      5  C   UNL     1      33.448 -10.597 -23.184  0.00  0.00    +0.029 C 
ATOM      6  C   UNL     1      34.371  -9.706 -23.735  0.00  0.00    +0.141 C 
ATOM      7  C   UNL     1      32.326 -10.113 -22.512  0.00  0.00    +0.004 C 
ENDROOT
BRANCH   2  10
ATOM      8  O   UNL     1      32.584  -4.246 -23.285  0.00  0.00    -0.434 OA
ATOM      9  O   UNL     1      32.920  -5.646 -25.038  0.00  0.00    -0.226 OA
ATOM     10  N   UNL     1      32.845  -6.437 -22.809  0.00  0.00    -0.221 N 
ATOM     11  C   UNL     1      32.267  -4.392 -21.895  0.00  0.00    +0.220 C 
ATOM     12  C   UNL     1      32.774  -5.772 -21.536  0.00  0.00    +0.148 C 
ATOM     13  C   UNL     1      32.790  -5.493 -23.832  0.00  0.00    +0.409 C 
BRANCH  11  14
ATOM     14  C   UNL     1      30.762  -4.241 -21.714  0.00  0.00    +0.183 C 
BRANCH  14  15
ATOM     15  O   UNL     1      30.447  -2.860 -21.670  0.00  0.00    -0.378 OA
ATOM     16  H   UNL     1      29.704  -2.718 -21.064  0.00  0.00    +0.211 HD
ENDBRANCH  14  15
ENDBRANCH  11  14
ENDBRANCH   2  10
BRANCH   5  18
ATOM     17  N   UNL     1      33.611 -13.999 -24.702  0.00  0.00    -0.234 NA
ATOM     18  C   UNL     1      33.651 -12.025 -23.310  0.00  0.00    +0.021 C 
ATOM     19  C   UNL     1      34.065 -12.785 -22.225  0.00  0.00    +0.004 C 
ATOM     20  C   UNL     1      33.439 -12.670 -24.516  0.00  0.00    +0.100 C 
ATOM     21  C   UNL     1      34.251 -14.155 -22.376  0.00  0.00    +0.029 C 
ATOM     22  C   UNL     1      34.013 -14.708 -23.624  0.00  0.00    +0.146 C 
BRANCH  22  27
ATOM     23  N   UNL     1      34.764 -16.928 -22.948  0.00  0.00    -0.105 NA
ATOM     24  N   UNL     1      34.675 -18.083 -23.622  0.00  0.00    -0.113 N 
ATOM     25  N   UNL     1      33.777 -16.738 -24.977  0.00  0.00    -0.085 NA
ATOM     26  N   UNL     1      34.097 -18.017 -24.830  0.00  0.00    -0.018 NA
ATOM     27  C   UNL     1      34.188 -16.116 -23.837  0.00  0.00    +0.092 C 
ATOM     28  C   UNL     1      35.171 -19.322 -23.082  0.00  0.00    +0.163 C 
ENDBRANCH  22  27
ENDBRANCH   5  18
TORSDOF 5
ENDMDL
MODEL 5
REMARK VINA RESULT:     -10.3     10.083     14.943
REMARK  Name = 11234049
REMARK  5 active torsions:
REMARK  status: ('A' for Active; 'I' for Inactive)
REMARK    1  A    between atoms: C_2  and  N_10
REMARK    2  A    between atoms: C_5  and  C_18
REMARK    3  A    between atoms: C_11  and  C_14
REMARK    4  A    between atoms: C_14  and  O_15
REMARK    5  A    between atoms: C_22  and  C_27
REMARK                            x       y       z     vdW  Elec       q    Type
REMARK                         _______ _______ _______ _____ _____    ______ ____
ROOT
ATOM      1  F   UNL     1      34.970 -10.039 -24.368  0.00  0.00    -0.204 F 
ATOM      2  C   UNL     1      32.454  -7.936 -22.790  0.00  0.00    +0.059 C 
ATOM      3  C   UNL     1      33.571  -8.330 -23.533  0.00  0.00    +0.045 C 
ATOM      4  C   UNL     1      31.663  -8.907 -22.168  0.00  0.00    +0.015 C 
ATOM      5  C   UNL     1      33.100 -10.646 -23.029  0.00  0.00    +0.029 C 
ATOM      6  C   UNL     1      33.894  -9.681 -23.653  0.00  0.00    +0.141 C 
ATOM      7  C   UNL     1      31.984 -10.258 -22.289  0.00  0.00    +0.004 C 
ENDROOT
BRANCH   2  10
ATOM      8  O   UNL     1      31.864  -4.467 -21.852  0.00  0.00    -0.434 OA
ATOM      9  O   UNL     1      32.799  -6.002 -20.468  0.00  0.00    -0.226 OA
ATOM     10  N   UNL     1      32.125  -6.556 -22.668  0.00  0.00    -0.221 N 
ATOM     11  C   UNL     1      31.561  -4.389 -23.251  0.00  0.00    +0.220 C 
ATOM     12  C   UNL     1      31.411  -5.831 -23.685  0.00  0.00    +0.148 C 
ATOM     13  C   UNL     1      32.326  -5.732 -21.563  0.00  0.00    +0.409 C 
BRANCH  11  14
ATOM     14  C   UNL     1      32.696  -3.664 -23.961  0.00  0.00    +0.183 C 
BRANCH  14  15
ATOM     15  O   UNL     1      33.196  -4.501 -24.989  0.00  0.00    -0.378 OA
ATOM     16  H   UNL     1      33.003  -5.426 -24.775  0.00  0.00    +0.211 HD
ENDBRANCH  14  15
ENDBRANCH  11  14
ENDBRANCH   2  10
BRANCH   5  18
ATOM     17  N   UNL     1      33.606 -14.014 -24.544  0.00  0.00    -0.234 NA
ATOM     18  C   UNL     1      33.431 -12.050 -23.150  0.00  0.00    +0.021 C 
ATOM     19  C   UNL     1      33.878 -12.775 -22.054  0.00  0.00    +0.004 C 
ATOM     20  C   UNL     1      33.313 -12.707 -24.363  0.00  0.00    +0.100 C 
ATOM     21  C   UNL     1      34.188 -14.122 -22.200  0.00  0.00    +0.029 C 
ATOM     22  C   UNL     1      34.036 -14.690 -23.455  0.00  0.00    +0.146 C 
BRANCH  22  27
ATOM     23  N   UNL     1      34.889 -16.857 -22.731  0.00  0.00    -0.105 NA
ATOM     24  N   UNL     1      34.956 -18.004 -23.422  0.00  0.00    -0.113 N 
ATOM     25  N   UNL     1      34.092 -16.708 -24.846  0.00  0.00    -0.085 NA
ATOM     26  N   UNL     1      34.494 -17.961 -24.680  0.00  0.00    -0.018 NA
ATOM     27  C   UNL     1      34.341 -16.076 -23.664  0.00  0.00    +0.092 C 
ATOM     28  C   UNL     1      35.493 -19.210 -22.848  0.00  0.00    +0.163 C 
ENDBRANCH  22  27
ENDBRANCH   5  18
TORSDOF 5
ENDMDL
MODEL 6
REMARK VINA RESULT:     -10.1      7.884     11.512
REMARK  Name = 11234049
REMARK  5 active torsions:
REMARK  status: ('A' for Active; 'I' for Inactive)
REMARK    1  A    between atoms: C_2  and  N_10
REMARK    2  A    between atoms: C_5  and  C_18
REMARK    3  A    between atoms: C_11  and  C_14
REMARK    4  A    between atoms: C_14  and  O_15
REMARK    5  A    between atoms: C_22  and  C_27
REMARK                            x       y       z     vdW  Elec       q    Type
REMARK                         _______ _______ _______ _____ _____    ______ ____
ROOT
ATOM      1  F   UNL     1      33.314 -12.971 -25.128  0.00  0.00    -0.204 F 
ATOM      2  C   UNL     1      34.456 -15.386 -22.657  0.00  0.00    +0.059 C 
ATOM      3  C   UNL     1      34.062 -14.828 -23.878  0.00  0.00    +0.045 C 
ATOM      4  C   UNL     1      34.474 -14.588 -21.509  0.00  0.00    +0.015 C 
ATOM      5  C   UNL     1      33.710 -12.695 -22.799  0.00  0.00    +0.029 C 
ATOM      6  C   UNL     1      33.690 -13.486 -23.949  0.00  0.00    +0.141 C 
ATOM      7  C   UNL     1      34.103 -13.246 -21.580  0.00  0.00    +0.004 C 
ENDROOT
BRANCH   2  10
ATOM      8  O   UNL     1      35.247 -18.910 -23.123  0.00  0.00    -0.434 OA
ATOM      9  O   UNL     1      34.436 -17.576 -24.767  0.00  0.00    -0.226 OA
ATOM     10  N   UNL     1      34.835 -16.757 -22.584  0.00  0.00    -0.221 N 
ATOM     11  C   UNL     1      35.799 -18.714 -21.814  0.00  0.00    +0.220 C 
ATOM     12  C   UNL     1      35.216 -17.396 -21.353  0.00  0.00    +0.148 C 
ATOM     13  C   UNL     1      34.804 -17.699 -23.609  0.00  0.00    +0.409 C 
BRANCH  11  14
ATOM     14  C   UNL     1      37.318 -18.694 -21.918  0.00  0.00    +0.183 C 
BRANCH  14  15
ATOM     15  O   UNL     1      37.857 -18.396 -20.642  0.00  0.00    -0.378 OA
ATOM     16  H   UNL     1      38.117 -17.462 -20.611  0.00  0.00    +0.211 HD
ENDBRANCH  14  15
ENDBRANCH  11  14
ENDBRANCH   2  10
BRANCH   5  18
ATOM     17  N   UNL     1      31.790  -9.552 -22.221  0.00  0.00    -0.234 NA
ATOM     18  C   UNL     1      33.324 -11.301 -22.868  0.00  0.00    +0.021 C 
ATOM     19  C   UNL     1      34.068 -10.391 -23.606  0.00  0.00    +0.004 C 
ATOM     20  C   UNL     1      32.204 -10.839 -22.199  0.00  0.00    +0.100 C 
ATOM     21  C   UNL     1      33.673  -9.058 -23.654  0.00  0.00    +0.029 C 
ATOM     22  C   UNL     1      32.537  -8.693 -22.950  0.00  0.00    +0.146 C 
BRANCH  22  27
ATOM     23  N   UNL     1      32.466  -6.439 -23.879  0.00  0.00    -0.105 NA
ATOM     24  N   UNL     1      31.776  -5.376 -23.444  0.00  0.00    -0.113 N 
ATOM     25  N   UNL     1      31.216  -6.843 -22.034  0.00  0.00    -0.085 NA
ATOM     26  N   UNL     1      31.022  -5.569 -22.353  0.00  0.00    -0.018 NA
ATOM     27  C   UNL     1      32.083  -7.332 -22.964  0.00  0.00    +0.092 C 
ATOM     28  C   UNL     1      31.842  -4.100 -24.107  0.00  0.00    +0.163 C 
ENDBRANCH  22  27
ENDBRANCH   5  18
TORSDOF 5
ENDMDL
MODEL 7
REMARK VINA RESULT:     -10.1      1.581      2.184
REMARK  Name = 11234049
REMARK  5 active torsions:
REMARK  status: ('A' for Active; 'I' for Inactive)
REMARK    1  A    between atoms: C_2  and  N_10
REMARK    2  A    between atoms: C_5  and  C_18
REMARK    3  A    between atoms: C_11  and  C_14
REMARK    4  A    between atoms: C_14  and  O_15
REMARK    5  A    between atoms: C_22  and  C_27
REMARK                            x       y       z     vdW  Elec       q    Type
REMARK                         _______ _______ _______ _____ _____    ______ ____
ROOT
ATOM      1  F   UNL     1      33.653 -23.245 -16.673  0.00  0.00    -0.204 F 
ATOM      2  C   UNL     1      36.355 -23.846 -14.310  0.00  0.00    +0.059 C 
ATOM      3  C   UNL     1      35.100 -23.898 -14.926  0.00  0.00    +0.045 C 
ATOM      4  C   UNL     1      37.370 -23.073 -14.881  0.00  0.00    +0.015 C 
ATOM      5  C   UNL     1      35.881 -22.412 -16.664  0.00  0.00    +0.029 C 
ATOM      6  C   UNL     1      34.863 -23.183 -16.099  0.00  0.00    +0.141 C 
ATOM      7  C   UNL     1      37.134 -22.359 -16.055  0.00  0.00    +0.004 C 
ENDROOT
BRANCH   2  10
ATOM      8  O   UNL     1      36.337 -25.540 -11.087  0.00  0.00    -0.434 OA
ATOM      9  O   UNL     1      34.564 -24.393 -11.914  0.00  0.00    -0.226 OA
ATOM     10  N   UNL     1      36.596 -24.576 -13.111  0.00  0.00    -0.221 N 
ATOM     11  C   UNL     1      37.581 -26.030 -11.605  0.00  0.00    +0.220 C 
ATOM     12  C   UNL     1      37.884 -25.121 -12.776  0.00  0.00    +0.148 C 
ATOM     13  C   UNL     1      35.711 -24.789 -12.057  0.00  0.00    +0.409 C 
BRANCH  11  14
ATOM     14  C   UNL     1      37.407 -27.488 -12.007  0.00  0.00    +0.183 C 
BRANCH  14  15
ATOM     15  O   UNL     1      37.411 -28.285 -10.835  0.00  0.00    -0.378 OA
ATOM     16  H   UNL     1      37.984 -29.055 -10.970  0.00  0.00    +0.211 HD
ENDBRANCH  14  15
ENDBRANCH  11  14
ENDBRANCH   2  10
BRANCH   5  18
ATOM     17  N   UNL     1      36.494 -20.223 -19.618  0.00  0.00    -0.234 NA
ATOM     18  C   UNL     1      35.640 -21.668 -17.882  0.00  0.00    +0.021 C 
ATOM     19  C   UNL     1      34.388 -21.669 -18.483  0.00  0.00    +0.004 C 
ATOM     20  C   UNL     1      36.651 -20.937 -18.481  0.00  0.00    +0.100 C 
ATOM     21  C   UNL     1      34.187 -20.945 -19.653  0.00  0.00    +0.029 C 
ATOM     22  C   UNL     1      35.262 -20.245 -20.175  0.00  0.00    +0.146 C 
BRANCH  22  27
ATOM     23  N   UNL     1      34.094 -19.637 -22.228  0.00  0.00    -0.105 NA
ATOM     24  N   UNL     1      34.429 -18.715 -23.141  0.00  0.00    -0.113 N 
ATOM     25  N   UNL     1      36.008 -18.524 -21.754  0.00  0.00    -0.085 NA
ATOM     26  N   UNL     1      35.557 -18.031 -22.900  0.00  0.00    -0.018 NA
ATOM     27  C   UNL     1      35.112 -19.480 -21.380  0.00  0.00    +0.092 C 
ATOM     28  C   UNL     1      33.627 -18.473 -24.312  0.00  0.00    +0.163 C 
ENDBRANCH  22  27
ENDBRANCH   5  18
TORSDOF 5
ENDMDL
MODEL 8
REMARK VINA RESULT:     -10.1      4.798      9.982
REMARK  Name = 11234049
REMARK  5 active torsions:
REMARK  status: ('A' for Active; 'I' for Inactive)
REMARK    1  A    between atoms: C_2  and  N_10
REMARK    2  A    between atoms: C_5  and  C_18
REMARK    3  A    between atoms: C_11  and  C_14
REMARK    4  A    between atoms: C_14  and  O_15
REMARK    5  A    between atoms: C_22  and  C_27
REMARK                            x       y       z     vdW  Elec       q    Type
REMARK                         _______ _______ _______ _____ _____    ______ ____
ROOT
ATOM      1  F   UNL     1      37.335 -20.080 -19.461  0.00  0.00    -0.204 F 
ATOM      2  C   UNL     1      34.830 -18.911 -21.829  0.00  0.00    +0.059 C 
ATOM      3  C   UNL     1      36.058 -19.090 -21.183  0.00  0.00    +0.045 C 
ATOM      4  C   UNL     1      33.696 -19.573 -21.349  0.00  0.00    +0.015 C 
ATOM      5  C   UNL     1      35.013 -20.579 -19.592  0.00  0.00    +0.029 C 
ATOM      6  C   UNL     1      36.150 -19.922 -20.067  0.00  0.00    +0.141 C 
ATOM      7  C   UNL     1      33.788 -20.405 -20.234  0.00  0.00    +0.004 C 
ENDROOT
BRANCH   2  10
ATOM      8  O   UNL     1      34.218 -17.236 -25.004  0.00  0.00    -0.434 OA
ATOM      9  O   UNL     1      33.412 -19.293 -24.492  0.00  0.00    -0.226 OA
ATOM     10  N   UNL     1      34.737 -18.061 -22.968  0.00  0.00    -0.221 N 
ATOM     11  C   UNL     1      34.829 -16.158 -24.281  0.00  0.00    +0.220 C 
ATOM     12  C   UNL     1      35.462 -16.823 -23.078  0.00  0.00    +0.148 C 
ATOM     13  C   UNL     1      34.053 -18.308 -24.156  0.00  0.00    +0.409 C 
BRANCH  11  14
ATOM     14  C   UNL     1      33.757 -15.143 -23.910  0.00  0.00    +0.183 C 
BRANCH  14  15
ATOM     15  O   UNL     1      34.361 -14.091 -23.178  0.00  0.00    -0.378 OA
ATOM     16  H   UNL     1      33.685 -13.444 -22.924  0.00  0.00    +0.211 HD
ENDBRANCH  14  15
ENDBRANCH  11  14
ENDBRANCH   2  10
BRANCH   5  18
ATOM     17  N   UNL     1      36.450 -22.391 -16.668  0.00  0.00    -0.234 NA
ATOM     18  C   UNL     1      35.103 -21.444 -18.435  0.00  0.00    +0.021 C 
ATOM     19  C   UNL     1      33.992 -22.137 -17.974  0.00  0.00    +0.004 C 
ATOM     20  C   UNL     1      36.299 -21.601 -17.756  0.00  0.00    +0.100 C 
ATOM     21  C   UNL     1      34.109 -22.961 -16.860  0.00  0.00    +0.029 C 
ATOM     22  C   UNL     1      35.349 -23.052 -16.248  0.00  0.00    +0.146 C 
BRANCH  22  27
ATOM     23  N   UNL     1      35.425 -23.441 -13.842  0.00  0.00    -0.105 NA
ATOM     24  N   UNL     1      35.673 -24.583 -13.185  0.00  0.00    -0.113 N 
ATOM     25  N   UNL     1      35.819 -25.214 -15.193  0.00  0.00    -0.085 NA
ATOM     26  N   UNL     1      35.912 -25.660 -13.947  0.00  0.00    -0.018 NA
ATOM     27  C   UNL     1      35.527 -23.887 -15.095  0.00  0.00    +0.092 C 
ATOM     28  C   UNL     1      35.684 -24.649 -11.747  0.00  0.00    +0.163 C 
ENDBRANCH  22  27
ENDBRANCH   5  18
TORSDOF 5
ENDMDL
MODEL 9
REMARK VINA RESULT:     -10.0     10.722     14.670
REMARK  Name = 11234049
REMARK  5 active torsions:
REMARK  status: ('A' for Active; 'I' for Inactive)
REMARK    1  A    between atoms: C_2  and  N_10
REMARK    2  A    between atoms: C_5  and  C_18
REMARK    3  A    between atoms: C_11  and  C_14
REMARK    4  A    between atoms: C_14  and  O_15
REMARK    5  A    between atoms: C_22  and  C_27
REMARK                            x       y       z     vdW  Elec       q    Type
REMARK                         _______ _______ _______ _____ _____    ______ ____
ROOT
ATOM      1  F   UNL     1      35.127 -10.627 -24.598  0.00  0.00    -0.204 F 
ATOM      2  C   UNL     1      32.697  -8.391 -23.070  0.00  0.00    +0.059 C 
ATOM      3  C   UNL     1      33.768  -8.851 -23.842  0.00  0.00    +0.045 C 
ATOM      4  C   UNL     1      31.956  -9.300 -22.309  0.00  0.00    +0.015 C 
ATOM      5  C   UNL     1      33.352 -11.109 -23.090  0.00  0.00    +0.029 C 
ATOM      6  C   UNL     1      34.096 -10.206 -23.852  0.00  0.00    +0.141 C 
ATOM      7  C   UNL     1      32.282 -10.655 -22.320  0.00  0.00    +0.004 C 
ENDROOT
BRANCH   2  10
ATOM      8  O   UNL     1      31.456  -5.005 -23.575  0.00  0.00    -0.434 OA
ATOM      9  O   UNL     1      30.856  -6.768 -24.868  0.00  0.00    -0.226 OA
ATOM     10  N   UNL     1      32.363  -7.006 -23.060  0.00  0.00    -0.221 N 
ATOM     11  C   UNL     1      32.129  -4.827 -22.321  0.00  0.00    +0.220 C 
ATOM     12  C   UNL     1      32.994  -6.059 -22.180  0.00  0.00    +0.148 C 
ATOM     13  C   UNL     1      31.496  -6.337 -23.920  0.00  0.00    +0.409 C 
BRANCH  11  14
ATOM     14  C   UNL     1      31.088  -4.695 -21.217  0.00  0.00    +0.183 C 
BRANCH  14  15
ATOM     15  O   UNL     1      30.444  -3.439 -21.348  0.00  0.00    -0.378 OA
ATOM     16  H   UNL     1      29.503  -3.535 -21.134  0.00  0.00    +0.211 HD
ENDBRANCH  14  15
ENDBRANCH  11  14
ENDBRANCH   2  10
BRANCH   5  18
ATOM     17  N   UNL     1      33.764 -14.613 -24.295  0.00  0.00    -0.234 NA
ATOM     18  C   UNL     1      33.688 -12.517 -23.097  0.00  0.00    +0.021 C 
ATOM     19  C   UNL     1      34.237 -13.125 -21.976  0.00  0.00    +0.004 C 
ATOM     20  C   UNL     1      33.472 -13.294 -24.222  0.00  0.00    +0.100 C 
ATOM     21  C   UNL     1      34.550 -14.480 -22.013  0.00  0.00    +0.029 C 
ATOM     22  C   UNL     1      34.295 -15.173 -23.186  0.00  0.00    +0.146 C 
BRANCH  22  27
ATOM     23  N   UNL     1      34.054 -17.381 -24.192  0.00  0.00    -0.105 NA
ATOM     24  N   UNL     1      34.655 -18.529 -23.846  0.00  0.00    -0.113 N 
ATOM     25  N   UNL     1      35.471 -17.189 -22.435  0.00  0.00    -0.085 NA
ATOM     26  N   UNL     1      35.503 -18.461 -22.810  0.00  0.00    -0.018 NA
ATOM     27  C   UNL     1      34.597 -16.572 -23.280  0.00  0.00    +0.092 C 
ATOM     28  C   UNL     1      34.403 -19.762 -24.545  0.00  0.00    +0.163 C 
ENDBRANCH  22  27
ENDBRANCH   5  18
TORSDOF 5
ENDMDL
