MODEL 1
REMARK VINA RESULT:     -12.1      0.000      0.000
REMARK  Name = 9969613
REMARK  5 active torsions:
REMARK  status: ('A' for Active; 'I' for Inactive)
REMARK    1  A    between atoms: C_3  and  O_7
REMARK    2  A    between atoms: C_4  and  O_17
REMARK    3  A    between atoms: O_7  and  C_13
REMARK    4  A    between atoms: O_17  and  C_21
REMARK    5  A    between atoms: C_18  and  N_24
REMARK                            x       y       z     vdW  Elec       q    Type
REMARK                         _______ _______ _______ _____ _____    ______ ____
ROOT
ATOM      1  N   UNL     1      35.379 -17.510 -22.878  0.00  0.00    -0.283 NA
ATOM      2  N   UNL     1      33.925 -17.683 -24.793  0.00  0.00    -0.151 NA
ATOM      3  C   UNL     1      35.044 -18.774 -22.574  0.00  0.00    +0.296 C 
ATOM      4  C   UNL     1      34.789 -17.031 -23.991  0.00  0.00    +0.260 C 
ATOM      5  C   UNL     1      34.178 -19.554 -23.300  0.00  0.00    +0.094 C 
ATOM      6  C   UNL     1      33.641 -18.948 -24.417  0.00  0.00    +0.119 C 
ENDROOT
BRANCH   3   7
ATOM      7  O   UNL     1      35.626 -19.311 -21.437  0.00  0.00    -0.427 OA
BRANCH   7  13
ATOM      8  O   UNL     1      34.935 -22.531 -17.915  0.00  0.00    -0.435 OA
ATOM      9  O   UNL     1      32.544 -22.252 -18.011  0.00  0.00    -0.435 OA
ATOM     10  C   UNL     1      34.558 -21.625 -18.857  0.00  0.00    +0.179 C 
ATOM     11  C   UNL     1      33.192 -21.464 -18.912  0.00  0.00    +0.177 C 
ATOM     12  C   UNL     1      35.405 -20.920 -19.688  0.00  0.00    +0.078 C 
ATOM     13  C   UNL     1      34.830 -20.029 -20.597  0.00  0.00    +0.151 C 
ATOM     14  C   UNL     1      32.599 -20.592 -19.802  0.00  0.00    +0.043 C 
ATOM     15  C   UNL     1      33.654 -22.923 -17.383  0.00  0.00    +0.429 C 
ATOM     16  C   UNL     1      33.435 -19.866 -20.654  0.00  0.00    +0.041 C 
ENDBRANCH   7  13
ENDBRANCH   3   7
BRANCH   4  17
ATOM     17  O   UNL     1      35.102 -15.740 -24.345  0.00  0.00    -0.383 OA
BRANCH  17  21
ATOM     18  C   UNL     1      33.051 -12.695 -22.406  0.00  0.00    +0.057 C 
ATOM     19  C   UNL     1      33.824 -13.594 -21.671  0.00  0.00    +0.018 C 
ATOM     20  C   UNL     1      32.968 -12.820 -23.793  0.00  0.00    +0.018 C 
ATOM     21  C   UNL     1      34.421 -14.729 -23.701  0.00  0.00    +0.160 C 
ATOM     22  C   UNL     1      34.514 -14.617 -22.323  0.00  0.00    +0.040 C 
ATOM     23  C   UNL     1      33.657 -13.843 -24.444  0.00  0.00    +0.040 C 
BRANCH  18  24
ATOM     24  N   UNL     1      32.368 -11.681 -21.761  0.00  0.00    -0.246 N 
ATOM     25  N   UNL     1      31.511  -9.662 -21.364  0.00  0.00    -0.224 NA
ATOM     26  C   UNL     1      31.710 -11.773 -20.561  0.00  0.00    +0.092 C 
ATOM     27  C   UNL     1      32.217 -10.390 -22.200  0.00  0.00    +0.172 C 
ATOM     28  C   UNL     1      31.192 -10.519 -20.339  0.00  0.00    +0.117 C 
ENDBRANCH  18  24
ENDBRANCH  17  21
ENDBRANCH   4  17
TORSDOF 5
ENDMDL
MODEL 2
REMARK VINA RESULT:     -12.0      4.231      8.168
REMARK  Name = 9969613
REMARK  5 active torsions:
REMARK  status: ('A' for Active; 'I' for Inactive)
REMARK    1  A    between atoms: C_3  and  O_7
REMARK    2  A    between atoms: C_4  and  O_17
REMARK    3  A    between atoms: O_7  and  C_13
REMARK    4  A    between atoms: O_17  and  C_21
REMARK    5  A    between atoms: C_18  and  N_24
REMARK                            x       y       z     vdW  Elec       q    Type
REMARK                         _______ _______ _______ _____ _____    ______ ____
ROOT
ATOM      1  N   UNL     1      33.388 -23.370 -16.030  0.00  0.00    -0.283 NA
ATOM      2  N   UNL     1      35.666 -22.695 -16.437  0.00  0.00    -0.151 NA
ATOM      3  C   UNL     1      33.632 -23.224 -14.718  0.00  0.00    +0.296 C 
ATOM      4  C   UNL     1      34.439 -23.091 -16.826  0.00  0.00    +0.260 C 
ATOM      5  C   UNL     1      34.833 -22.828 -14.182  0.00  0.00    +0.094 C 
ATOM      6  C   UNL     1      35.829 -22.573 -15.102  0.00  0.00    +0.119 C 
ENDROOT
BRANCH   3   7
ATOM      7  O   UNL     1      32.581 -23.500 -13.860  0.00  0.00    -0.427 OA
BRANCH   7  13
ATOM      8  O   UNL     1      28.822 -22.078 -16.525  0.00  0.00    -0.435 OA
ATOM      9  O   UNL     1      27.646 -24.143 -16.123  0.00  0.00    -0.435 OA
ATOM     10  C   UNL     1      29.530 -22.930 -15.735  0.00  0.00    +0.179 C 
ATOM     11  C   UNL     1      28.859 -24.110 -15.506  0.00  0.00    +0.177 C 
ATOM     12  C   UNL     1      30.779 -22.691 -15.200  0.00  0.00    +0.078 C 
ATOM     13  C   UNL     1      31.350 -23.691 -14.409  0.00  0.00    +0.151 C 
ATOM     14  C   UNL     1      29.400 -25.114 -14.728  0.00  0.00    +0.043 C 
ATOM     15  C   UNL     1      27.631 -22.852 -16.767  0.00  0.00    +0.429 C 
ATOM     16  C   UNL     1      30.664 -24.895 -14.174  0.00  0.00    +0.041 C 
ENDBRANCH   7  13
ENDBRANCH   3   7
BRANCH   4  17
ATOM     17  O   UNL     1      34.237 -23.225 -18.180  0.00  0.00    -0.383 OA
BRANCH  17  21
ATOM     18  C   UNL     1      34.797 -19.844 -20.521  0.00  0.00    +0.057 C 
ATOM     19  C   UNL     1      35.898 -20.578 -20.082  0.00  0.00    +0.018 C 
ATOM     20  C   UNL     1      33.506 -20.246 -20.173  0.00  0.00    +0.018 C 
ATOM     21  C   UNL     1      34.422 -22.102 -18.957  0.00  0.00    +0.160 C 
ATOM     22  C   UNL     1      35.709 -21.715 -19.296  0.00  0.00    +0.040 C 
ATOM     23  C   UNL     1      33.319 -21.382 -19.386  0.00  0.00    +0.040 C 
BRANCH  18  24
ATOM     24  N   UNL     1      34.982 -18.717 -21.301  0.00  0.00    -0.246 N 
ATOM     25  N   UNL     1      35.054 -17.416 -23.110  0.00  0.00    -0.224 NA
ATOM     26  C   UNL     1      35.382 -17.479 -20.867  0.00  0.00    +0.092 C 
ATOM     27  C   UNL     1      34.798 -18.624 -22.658  0.00  0.00    +0.172 C 
ATOM     28  C   UNL     1      35.419 -16.698 -21.998  0.00  0.00    +0.117 C 
ENDBRANCH  18  24
ENDBRANCH  17  21
ENDBRANCH   4  17
TORSDOF 5
ENDMDL
MODEL 3
REMARK VINA RESULT:     -11.7      4.718      8.693
REMARK  Name = 9969613
REMARK  5 active torsions:
REMARK  status: ('A' for Active; 'I' for Inactive)
REMARK    1  A    between atoms: C_3  and  O_7
REMARK    2  A    between atoms: C_4  and  O_17
REMARK    3  A    between atoms: O_7  and  C_13
REMARK    4  A    between atoms: O_17  and  C_21
REMARK    5  A    between atoms: C_18  and  N_24
REMARK                            x       y       z     vdW  Elec       q    Type
REMARK                         _______ _______ _______ _____ _____    ______ ____
ROOT
ATOM      1  N   UNL     1      34.652 -23.050 -16.223  0.00  0.00    -0.283 NA
ATOM      2  N   UNL     1      32.258 -23.286 -16.390  0.00  0.00    -0.151 NA
ATOM      3  C   UNL     1      34.494 -22.905 -14.897  0.00  0.00    +0.296 C 
ATOM      4  C   UNL     1      33.503 -23.235 -16.902  0.00  0.00    +0.260 C 
ATOM      5  C   UNL     1      33.288 -22.936 -14.242  0.00  0.00    +0.094 C 
ATOM      6  C   UNL     1      32.187 -23.132 -15.050  0.00  0.00    +0.119 C 
ENDROOT
BRANCH   3   7
ATOM      7  O   UNL     1      35.648 -22.712 -14.156  0.00  0.00    -0.427 OA
BRANCH   7  13
ATOM      8  O   UNL     1      37.315 -27.190 -13.513  0.00  0.00    -0.435 OA
ATOM      9  O   UNL     1      37.384 -26.913 -11.120  0.00  0.00    -0.435 OA
ATOM     10  C   UNL     1      36.895 -25.956 -13.123  0.00  0.00    +0.179 C 
ATOM     11  C   UNL     1      36.935 -25.797 -11.757  0.00  0.00    +0.177 C 
ATOM     12  C   UNL     1      36.470 -24.944 -13.959  0.00  0.00    +0.078 C 
ATOM     13  C   UNL     1      36.075 -23.739 -13.371  0.00  0.00    +0.151 C 
ATOM     14  C   UNL     1      36.551 -24.618 -11.151  0.00  0.00    +0.043 C 
ATOM     15  C   UNL     1      37.623 -27.791 -12.239  0.00  0.00    +0.429 C 
ATOM     16  C   UNL     1      36.114 -23.578 -11.976  0.00  0.00    +0.041 C 
ENDBRANCH   7  13
ENDBRANCH   3   7
BRANCH   4  17
ATOM     17  O   UNL     1      33.613 -23.389 -18.265  0.00  0.00    -0.383 OA
BRANCH  17  21
ATOM     18  C   UNL     1      34.567 -20.012 -20.481  0.00  0.00    +0.057 C 
ATOM     19  C   UNL     1      35.581 -20.841 -20.002  0.00  0.00    +0.018 C 
ATOM     20  C   UNL     1      33.232 -20.318 -20.216  0.00  0.00    +0.018 C 
ATOM     21  C   UNL     1      33.930 -22.268 -19.001  0.00  0.00    +0.160 C 
ATOM     22  C   UNL     1      35.260 -21.976 -19.257  0.00  0.00    +0.040 C 
ATOM     23  C   UNL     1      32.912 -21.453 -19.471  0.00  0.00    +0.040 C 
BRANCH  18  24
ATOM     24  N   UNL     1      34.884 -18.887 -21.220  0.00  0.00    -0.246 N 
ATOM     25  N   UNL     1      35.569 -16.817 -21.685  0.00  0.00    -0.224 NA
ATOM     26  C   UNL     1      34.788 -18.748 -22.581  0.00  0.00    +0.092 C 
ATOM     27  C   UNL     1      35.360 -17.696 -20.731  0.00  0.00    +0.172 C 
ATOM     28  C   UNL     1      35.214 -17.466 -22.842  0.00  0.00    +0.117 C 
ENDBRANCH  18  24
ENDBRANCH  17  21
ENDBRANCH   4  17
TORSDOF 5
ENDMDL
MODEL 4
REMARK VINA RESULT:     -11.6      4.453      8.496
REMARK  Name = 9969613
REMARK  5 active torsions:
REMARK  status: ('A' for Active; 'I' for Inactive)
REMARK    1  A    between atoms: C_3  and  O_7
REMARK    2  A    between atoms: C_4  and  O_17
REMARK    3  A    between atoms: O_7  and  C_13
REMARK    4  A    between atoms: O_17  and  C_21
REMARK    5  A    between atoms: C_18  and  N_24
REMARK                            x       y       z     vdW  Elec       q    Type
REMARK                         _______ _______ _______ _____ _____    ______ ____
ROOT
ATOM      1  N   UNL     1      34.574 -23.099 -16.158  0.00  0.00    -0.283 NA
ATOM      2  N   UNL     1      32.192 -23.284 -16.481  0.00  0.00    -0.151 NA
ATOM      3  C   UNL     1      34.333 -22.944 -14.846  0.00  0.00    +0.296 C 
ATOM      4  C   UNL     1      33.468 -23.262 -16.911  0.00  0.00    +0.260 C 
ATOM      5  C   UNL     1      33.086 -22.945 -14.272  0.00  0.00    +0.094 C 
ATOM      6  C   UNL     1      32.037 -23.121 -15.149  0.00  0.00    +0.119 C 
ENDROOT
BRANCH   3   7
ATOM      7  O   UNL     1      35.439 -22.772 -14.031  0.00  0.00    -0.427 OA
BRANCH   7  13
ATOM      8  O   UNL     1      39.872 -24.536 -14.737  0.00  0.00    -0.435 OA
ATOM      9  O   UNL     1      39.227 -26.713 -13.931  0.00  0.00    -0.435 OA
ATOM     10  C   UNL     1      38.564 -24.582 -14.365  0.00  0.00    +0.179 C 
ATOM     11  C   UNL     1      38.195 -25.825 -13.903  0.00  0.00    +0.177 C 
ATOM     12  C   UNL     1      37.667 -23.535 -14.423  0.00  0.00    +0.078 C 
ATOM     13  C   UNL     1      36.359 -23.775 -13.994  0.00  0.00    +0.151 C 
ATOM     14  C   UNL     1      36.910 -26.090 -13.475  0.00  0.00    +0.043 C 
ATOM     15  C   UNL     1      40.286 -25.888 -14.459  0.00  0.00    +0.429 C 
ATOM     16  C   UNL     1      35.983 -25.045 -13.524  0.00  0.00    +0.041 C 
ENDBRANCH   7  13
ENDBRANCH   3   7
BRANCH   4  17
ATOM     17  O   UNL     1      33.664 -23.425 -18.262  0.00  0.00    -0.383 OA
BRANCH  17  21
ATOM     18  C   UNL     1      34.588 -20.030 -20.465  0.00  0.00    +0.057 C 
ATOM     19  C   UNL     1      35.611 -20.826 -19.947  0.00  0.00    +0.018 C 
ATOM     20  C   UNL     1      33.255 -20.376 -20.243  0.00  0.00    +0.018 C 
ATOM     21  C   UNL     1      33.971 -22.298 -18.994  0.00  0.00    +0.160 C 
ATOM     22  C   UNL     1      35.299 -21.967 -19.207  0.00  0.00    +0.040 C 
ATOM     23  C   UNL     1      32.945 -21.517 -19.502  0.00  0.00    +0.040 C 
BRANCH  18  24
ATOM     24  N   UNL     1      34.895 -18.900 -21.199  0.00  0.00    -0.246 N 
ATOM     25  N   UNL     1      35.046 -17.514 -22.939  0.00  0.00    -0.224 NA
ATOM     26  C   UNL     1      35.516 -17.768 -20.735  0.00  0.00    +0.092 C 
ATOM     27  C   UNL     1      34.634 -18.694 -22.530  0.00  0.00    +0.172 C 
ATOM     28  C   UNL     1      35.598 -16.932 -21.825  0.00  0.00    +0.117 C 
ENDBRANCH  18  24
ENDBRANCH  17  21
ENDBRANCH   4  17
TORSDOF 5
ENDMDL
MODEL 5
REMARK VINA RESULT:     -11.3      7.177     11.038
REMARK  Name = 9969613
REMARK  5 active torsions:
REMARK  status: ('A' for Active; 'I' for Inactive)
REMARK    1  A    between atoms: C_3  and  O_7
REMARK    2  A    between atoms: C_4  and  O_17
REMARK    3  A    between atoms: O_7  and  C_13
REMARK    4  A    between atoms: O_17  and  C_21
REMARK    5  A    between atoms: C_18  and  N_24
REMARK                            x       y       z     vdW  Elec       q    Type
REMARK                         _______ _______ _______ _____ _____    ______ ____
ROOT
ATOM      1  N   UNL     1      34.245 -24.171 -14.087  0.00  0.00    -0.283 NA
ATOM      2  N   UNL     1      34.758 -23.831 -11.756  0.00  0.00    -0.151 NA
ATOM      3  C   UNL     1      35.468 -23.696 -14.372  0.00  0.00    +0.296 C 
ATOM      4  C   UNL     1      33.958 -24.210 -12.771  0.00  0.00    +0.260 C 
ATOM      5  C   UNL     1      36.384 -23.275 -13.441  0.00  0.00    +0.094 C 
ATOM      6  C   UNL     1      35.969 -23.366 -12.129  0.00  0.00    +0.119 C 
ENDROOT
BRANCH   3   7
ATOM      7  O   UNL     1      35.809 -23.636 -15.714  0.00  0.00    -0.427 OA
BRANCH   7  13
ATOM      8  O   UNL     1      34.751 -20.818 -19.481  0.00  0.00    -0.435 OA
ATOM      9  O   UNL     1      32.385 -21.176 -19.193  0.00  0.00    -0.435 OA
ATOM     10  C   UNL     1      34.476 -21.637 -18.430  0.00  0.00    +0.179 C 
ATOM     11  C   UNL     1      33.125 -21.843 -18.266  0.00  0.00    +0.177 C 
ATOM     12  C   UNL     1      35.405 -22.222 -17.594  0.00  0.00    +0.078 C 
ATOM     13  C   UNL     1      34.930 -23.038 -16.564  0.00  0.00    +0.151 C 
ATOM     14  C   UNL     1      32.629 -22.643 -17.256  0.00  0.00    +0.043 C 
ATOM     15  C   UNL     1      33.422 -20.530 -19.960  0.00  0.00    +0.429 C 
ATOM     16  C   UNL     1      33.550 -23.246 -16.396  0.00  0.00    +0.041 C 
ENDBRANCH   7  13
ENDBRANCH   3   7
BRANCH   4  17
ATOM     17  O   UNL     1      32.715 -24.690 -12.428  0.00  0.00    -0.383 OA
BRANCH  17  21
ATOM     18  C   UNL     1      29.518 -23.547 -14.816  0.00  0.00    +0.057 C 
ATOM     19  C   UNL     1      30.315 -22.578 -14.208  0.00  0.00    +0.018 C 
ATOM     20  C   UNL     1      29.795 -24.901 -14.622  0.00  0.00    +0.018 C 
ATOM     21  C   UNL     1      31.654 -24.311 -13.221  0.00  0.00    +0.160 C 
ATOM     22  C   UNL     1      31.390 -22.963 -13.405  0.00  0.00    +0.040 C 
ATOM     23  C   UNL     1      30.870 -25.285 -13.820  0.00  0.00    +0.040 C 
BRANCH  18  24
ATOM     24  N   UNL     1      28.453 -23.167 -15.612  0.00  0.00    -0.246 N 
ATOM     25  N   UNL     1      27.076 -23.090 -17.363  0.00  0.00    -0.224 NA
ATOM     26  C   UNL     1      27.489 -22.242 -15.301  0.00  0.00    +0.092 C 
ATOM     27  C   UNL     1      28.156 -23.647 -16.863  0.00  0.00    +0.172 C 
ATOM     28  C   UNL     1      26.655 -22.213 -16.394  0.00  0.00    +0.117 C 
ENDBRANCH  18  24
ENDBRANCH  17  21
ENDBRANCH   4  17
TORSDOF 5
ENDMDL
MODEL 6
REMARK VINA RESULT:     -11.3      2.915      9.025
REMARK  Name = 9969613
REMARK  5 active torsions:
REMARK  status: ('A' for Active; 'I' for Inactive)
REMARK    1  A    between atoms: C_3  and  O_7
REMARK    2  A    between atoms: C_4  and  O_17
REMARK    3  A    between atoms: O_7  and  C_13
REMARK    4  A    between atoms: O_17  and  C_21
REMARK    5  A    between atoms: C_18  and  N_24
REMARK                            x       y       z     vdW  Elec       q    Type
REMARK                         _______ _______ _______ _____ _____    ______ ____
ROOT
ATOM      1  N   UNL     1      34.554 -15.299 -22.692  0.00  0.00    -0.283 NA
ATOM      2  N   UNL     1      34.258 -15.663 -25.056  0.00  0.00    -0.151 NA
ATOM      3  C   UNL     1      33.749 -14.231 -22.807  0.00  0.00    +0.296 C 
ATOM      4  C   UNL     1      34.765 -15.963 -23.845  0.00  0.00    +0.260 C 
ATOM      5  C   UNL     1      33.165 -13.810 -23.976  0.00  0.00    +0.094 C 
ATOM      6  C   UNL     1      33.459 -14.575 -25.086  0.00  0.00    +0.119 C 
ENDROOT
BRANCH   3   7
ATOM      7  O   UNL     1      33.503 -13.515 -21.647  0.00  0.00    -0.427 OA
BRANCH   7  13
ATOM      8  O   UNL     1      33.123  -9.084 -23.511  0.00  0.00    -0.435 OA
ATOM      9  O   UNL     1      31.138  -8.620 -22.226  0.00  0.00    -0.435 OA
ATOM     10  C   UNL     1      32.760 -10.133 -22.725  0.00  0.00    +0.179 C 
ATOM     11  C   UNL     1      31.625  -9.869 -21.991  0.00  0.00    +0.177 C 
ATOM     12  C   UNL     1      33.416 -11.344 -22.635  0.00  0.00    +0.078 C 
ATOM     13  C   UNL     1      32.890 -12.305 -21.768  0.00  0.00    +0.151 C 
ATOM     14  C   UNL     1      31.086 -10.801 -21.128  0.00  0.00    +0.043 C 
ATOM     15  C   UNL     1      32.092  -8.129 -23.190  0.00  0.00    +0.429 C 
ATOM     16  C   UNL     1      31.732 -12.035 -21.018  0.00  0.00    +0.041 C 
ENDBRANCH   7  13
ENDBRANCH   3   7
BRANCH   4  17
ATOM     17  O   UNL     1      35.584 -17.066 -23.777  0.00  0.00    -0.383 OA
BRANCH  17  21
ATOM     18  C   UNL     1      34.797 -19.830 -20.782  0.00  0.00    +0.057 C 
ATOM     19  C   UNL     1      35.879 -18.959 -20.660  0.00  0.00    +0.018 C 
ATOM     20  C   UNL     1      33.978 -19.772 -21.911  0.00  0.00    +0.018 C 
ATOM     21  C   UNL     1      35.322 -17.984 -22.783  0.00  0.00    +0.160 C 
ATOM     22  C   UNL     1      36.143 -18.030 -21.667  0.00  0.00    +0.040 C 
ATOM     23  C   UNL     1      34.243 -18.843 -22.917  0.00  0.00    +0.040 C 
BRANCH  18  24
ATOM     24  N   UNL     1      34.534 -20.751 -19.785  0.00  0.00    -0.246 N 
ATOM     25  N   UNL     1      34.897 -22.274 -18.198  0.00  0.00    -0.224 NA
ATOM     26  C   UNL     1      33.300 -21.104 -19.303  0.00  0.00    +0.092 C 
ATOM     27  C   UNL     1      35.460 -21.484 -19.085  0.00  0.00    +0.172 C 
ATOM     28  C   UNL     1      33.550 -22.042 -18.329  0.00  0.00    +0.117 C 
ENDBRANCH  18  24
ENDBRANCH  17  21
ENDBRANCH   4  17
TORSDOF 5
ENDMDL
MODEL 7
REMARK VINA RESULT:     -11.1      6.402     12.245
REMARK  Name = 9969613
REMARK  5 active torsions:
REMARK  status: ('A' for Active; 'I' for Inactive)
REMARK    1  A    between atoms: C_3  and  O_7
REMARK    2  A    between atoms: C_4  and  O_17
REMARK    3  A    between atoms: O_7  and  C_13
REMARK    4  A    between atoms: O_17  and  C_21
REMARK    5  A    between atoms: C_18  and  N_24
REMARK                            x       y       z     vdW  Elec       q    Type
REMARK                         _______ _______ _______ _____ _____    ______ ____
ROOT
ATOM      1  N   UNL     1      34.506 -23.190 -16.208  0.00  0.00    -0.283 NA
ATOM      2  N   UNL     1      32.994 -23.060 -14.335  0.00  0.00    -0.151 NA
ATOM      3  C   UNL     1      33.429 -23.217 -17.010  0.00  0.00    +0.296 C 
ATOM      4  C   UNL     1      34.219 -23.112 -14.894  0.00  0.00    +0.260 C 
ATOM      5  C   UNL     1      32.127 -23.171 -16.578  0.00  0.00    +0.094 C 
ATOM      6  C   UNL     1      31.967 -23.092 -15.210  0.00  0.00    +0.119 C 
ENDROOT
BRANCH   3   7
ATOM      7  O   UNL     1      33.675 -23.298 -18.371  0.00  0.00    -0.427 OA
BRANCH   7  13
ATOM      8  O   UNL     1      36.787 -19.982 -19.975  0.00  0.00    -0.435 OA
ATOM      9  O   UNL     1      35.021 -18.687 -20.981  0.00  0.00    -0.435 OA
ATOM     10  C   UNL     1      35.563 -20.546 -19.790  0.00  0.00    +0.179 C 
ATOM     11  C   UNL     1      34.554 -19.808 -20.366  0.00  0.00    +0.177 C 
ATOM     12  C   UNL     1      35.306 -21.721 -19.114  0.00  0.00    +0.078 C 
ATOM     13  C   UNL     1      33.977 -22.144 -19.028  0.00  0.00    +0.151 C 
ATOM     14  C   UNL     1      33.233 -20.202 -20.295  0.00  0.00    +0.043 C 
ATOM     15  C   UNL     1      36.437 -18.805 -20.730  0.00  0.00    +0.429 C 
ATOM     16  C   UNL     1      32.947 -21.389 -19.615  0.00  0.00    +0.041 C 
ENDBRANCH   7  13
ENDBRANCH   3   7
BRANCH   4  17
ATOM     17  O   UNL     1      35.290 -23.081 -14.032  0.00  0.00    -0.383 OA
BRANCH  17  21
ATOM     18  C   UNL     1      38.139 -26.072 -14.443  0.00  0.00    +0.057 C 
ATOM     19  C   UNL     1      38.538 -24.743 -14.299  0.00  0.00    +0.018 C 
ATOM     20  C   UNL     1      36.782 -26.396 -14.448  0.00  0.00    +0.018 C 
ATOM     21  C   UNL     1      36.236 -24.075 -14.168  0.00  0.00    +0.160 C 
ATOM     22  C   UNL     1      37.580 -23.739 -14.161  0.00  0.00    +0.040 C 
ATOM     23  C   UNL     1      35.825 -25.391 -14.310  0.00  0.00    +0.040 C 
BRANCH  18  24
ATOM     24  N   UNL     1      39.088 -27.069 -14.580  0.00  0.00    -0.246 N 
ATOM     25  N   UNL     1      40.992 -28.077 -15.150  0.00  0.00    -0.224 NA
ATOM     26  C   UNL     1      38.983 -28.363 -14.138  0.00  0.00    +0.092 C 
ATOM     27  C   UNL     1      40.315 -26.950 -15.180  0.00  0.00    +0.172 C 
ATOM     28  C   UNL     1      40.167 -28.962 -14.501  0.00  0.00    +0.117 C 
ENDBRANCH  18  24
ENDBRANCH  17  21
ENDBRANCH   4  17
TORSDOF 5
ENDMDL
MODEL 8
REMARK VINA RESULT:     -11.1      4.165      9.939
REMARK  Name = 9969613
REMARK  5 active torsions:
REMARK  status: ('A' for Active; 'I' for Inactive)
REMARK    1  A    between atoms: C_3  and  O_7
REMARK    2  A    between atoms: C_4  and  O_17
REMARK    3  A    between atoms: O_7  and  C_13
REMARK    4  A    between atoms: O_17  and  C_21
REMARK    5  A    between atoms: C_18  and  N_24
REMARK                            x       y       z     vdW  Elec       q    Type
REMARK                         _______ _______ _______ _____ _____    ______ ____
ROOT
ATOM      1  N   UNL     1      35.555 -20.767 -19.771  0.00  0.00    -0.283 NA
ATOM      2  N   UNL     1      33.314 -21.367 -19.114  0.00  0.00    -0.151 NA
ATOM      3  C   UNL     1      35.013 -19.903 -20.644  0.00  0.00    +0.296 C 
ATOM      4  C   UNL     1      34.656 -21.460 -19.045  0.00  0.00    +0.260 C 
ATOM      5  C   UNL     1      33.666 -19.706 -20.820  0.00  0.00    +0.094 C 
ATOM      6  C   UNL     1      32.851 -20.476 -20.016  0.00  0.00    +0.119 C 
ENDROOT
BRANCH   3   7
ATOM      7  O   UNL     1      35.898 -19.167 -21.415  0.00  0.00    -0.427 OA
BRANCH   7  13
ATOM      8  O   UNL     1      34.886 -14.767 -23.108  0.00  0.00    -0.435 OA
ATOM      9  O   UNL     1      33.839 -15.673 -25.080  0.00  0.00    -0.435 OA
ATOM     10  C   UNL     1      34.906 -16.127 -23.125  0.00  0.00    +0.179 C 
ATOM     11  C   UNL     1      34.309 -16.646 -24.252  0.00  0.00    +0.177 C 
ATOM     12  C   UNL     1      35.449 -16.942 -22.153  0.00  0.00    +0.078 C 
ATOM     13  C   UNL     1      35.375 -18.324 -22.347  0.00  0.00    +0.151 C 
ATOM     14  C   UNL     1      34.221 -18.006 -24.468  0.00  0.00    +0.043 C 
ATOM     15  C   UNL     1      34.209 -14.486 -24.349  0.00  0.00    +0.429 C 
ATOM     16  C   UNL     1      34.764 -18.852 -23.497  0.00  0.00    +0.041 C 
ENDBRANCH   7  13
ENDBRANCH   3   7
BRANCH   4  17
ATOM     17  O   UNL     1      35.163 -22.358 -18.135  0.00  0.00    -0.383 OA
BRANCH  17  21
ATOM     18  C   UNL     1      32.694 -23.468 -14.988  0.00  0.00    +0.057 C 
ATOM     19  C   UNL     1      34.039 -23.186 -14.753  0.00  0.00    +0.018 C 
ATOM     20  C   UNL     1      32.178 -23.376 -16.281  0.00  0.00    +0.018 C 
ATOM     21  C   UNL     1      34.343 -22.726 -17.090  0.00  0.00    +0.160 C 
ATOM     22  C   UNL     1      34.869 -22.813 -15.811  0.00  0.00    +0.040 C 
ATOM     23  C   UNL     1      33.008 -23.003 -17.339  0.00  0.00    +0.040 C 
BRANCH  18  24
ATOM     24  N   UNL     1      31.871 -23.837 -13.941  0.00  0.00    -0.246 N 
ATOM     25  N   UNL     1      30.820 -23.748 -11.977  0.00  0.00    -0.224 NA
ATOM     26  C   UNL     1      31.104 -24.971 -13.864  0.00  0.00    +0.092 C 
ATOM     27  C   UNL     1      31.662 -23.136 -12.780  0.00  0.00    +0.172 C 
ATOM     28  C   UNL     1      30.468 -24.893 -12.647  0.00  0.00    +0.117 C 
ENDBRANCH  18  24
ENDBRANCH  17  21
ENDBRANCH   4  17
TORSDOF 5
ENDMDL
MODEL 9
REMARK VINA RESULT:     -11.0      4.701      8.105
REMARK  Name = 9969613
REMARK  5 active torsions:
REMARK  status: ('A' for Active; 'I' for Inactive)
REMARK    1  A    between atoms: C_3  and  O_7
REMARK    2  A    between atoms: C_4  and  O_17
REMARK    3  A    between atoms: O_7  and  C_13
REMARK    4  A    between atoms: O_17  and  C_21
REMARK    5  A    between atoms: C_18  and  N_24
REMARK                            x       y       z     vdW  Elec       q    Type
REMARK                         _______ _______ _______ _____ _____    ______ ____
ROOT
ATOM      1  N   UNL     1      34.091 -10.037 -23.209  0.00  0.00    -0.283 NA
ATOM      2  N   UNL     1      35.531  -9.122 -24.912  0.00  0.00    -0.151 NA
ATOM      3  C   UNL     1      33.871 -11.078 -24.027  0.00  0.00    +0.296 C 
ATOM      4  C   UNL     1      34.923  -9.103 -23.710  0.00  0.00    +0.260 C 
ATOM      5  C   UNL     1      34.423 -11.227 -25.275  0.00  0.00    +0.094 C 
ATOM      6  C   UNL     1      35.257 -10.203 -25.672  0.00  0.00    +0.119 C 
ENDROOT
BRANCH   3   7
ATOM      7  O   UNL     1      33.020 -12.065 -23.555  0.00  0.00    -0.427 OA
BRANCH   7  13
ATOM      8  O   UNL     1      34.023 -16.564 -24.972  0.00  0.00    -0.435 OA
ATOM      9  O   UNL     1      35.075 -17.084 -22.867  0.00  0.00    -0.435 OA
ATOM     10  C   UNL     1      34.006 -15.510 -24.112  0.00  0.00    +0.179 C 
ATOM     11  C   UNL     1      34.607 -15.806 -22.909  0.00  0.00    +0.177 C 
ATOM     12  C   UNL     1      33.463 -14.267 -24.364  0.00  0.00    +0.078 C 
ATOM     13  C   UNL     1      33.542 -13.306 -23.352  0.00  0.00    +0.151 C 
ATOM     14  C   UNL     1      34.698 -14.876 -21.894  0.00  0.00    +0.043 C 
ATOM     15  C   UNL     1      34.701 -17.557 -24.178  0.00  0.00    +0.429 C 
ATOM     16  C   UNL     1      34.155 -13.609 -22.124  0.00  0.00    +0.041 C 
ENDBRANCH   7  13
ENDBRANCH   3   7
BRANCH   4  17
ATOM     17  O   UNL     1      35.180  -8.016 -22.908  0.00  0.00    -0.383 OA
BRANCH  17  21
ATOM     18  C   UNL     1      32.699  -4.715 -23.340  0.00  0.00    +0.057 C 
ATOM     19  C   UNL     1      33.707  -4.957 -24.273  0.00  0.00    +0.018 C 
ATOM     20  C   UNL     1      32.525  -5.583 -22.261  0.00  0.00    +0.018 C 
ATOM     21  C   UNL     1      34.356  -6.920 -23.051  0.00  0.00    +0.160 C 
ATOM     22  C   UNL     1      34.541  -6.066 -24.127  0.00  0.00    +0.040 C 
ATOM     23  C   UNL     1      33.358  -6.692 -22.116  0.00  0.00    +0.040 C 
BRANCH  18  24
ATOM     24  N   UNL     1      31.873  -3.616 -23.483  0.00  0.00    -0.246 N 
ATOM     25  N   UNL     1      30.461  -2.172 -24.426  0.00  0.00    -0.224 NA
ATOM     26  C   UNL     1      31.609  -2.662 -22.534  0.00  0.00    +0.092 C 
ATOM     27  C   UNL     1      31.157  -3.274 -24.602  0.00  0.00    +0.172 C 
ATOM     28  C   UNL     1      30.739  -1.786 -23.139  0.00  0.00    +0.117 C 
ENDBRANCH  18  24
ENDBRANCH  17  21
ENDBRANCH   4  17
TORSDOF 5
ENDMDL
