MODEL 1
REMARK VINA RESULT:     -11.6      0.000      0.000
REMARK  Name = 11974440
REMARK  4 active torsions:
REMARK  status: ('A' for Active; 'I' for Inactive)
REMARK    1  A    between atoms: C_1  and  C_25
REMARK    2  A    between atoms: C_2  and  N_31
REMARK    3  A    between atoms: C_5  and  C_12
REMARK    4  A    between atoms: C_17  and  C_21
REMARK                            x       y       z     vdW  Elec       q    Type
REMARK                         _______ _______ _______ _____ _____    ______ ____
ROOT
ATOM      1  C   UNL     1      35.083 -19.821 -21.168  0.00  0.00    +0.009 C 
ATOM      2  C   UNL     1      33.880 -19.941 -20.197  0.00  0.00    -0.057 C 
ATOM      3  C   UNL     1      34.079 -21.130 -19.234  0.00  0.00    +0.009 C 
ATOM      4  C   UNL     1      36.401 -19.638 -20.378  0.00  0.00    +0.028 C 
ATOM      5  C   UNL     1      35.466 -21.194 -18.669  0.00  0.00    +0.025 C 
ATOM      6  C   UNL     1      36.509 -20.520 -19.169  0.00  0.00    -0.026 C 
ENDROOT
BRANCH   5  12
ATOM      7  O   UNL     1      36.780 -21.917 -16.895  0.00  0.00    -0.270 OA
ATOM      8  N   UNL     1      34.683 -22.902 -17.089  0.00  0.00    -0.267 N 
ATOM      9  N   UNL     1      32.424 -23.389 -15.587  0.00  0.00    -0.292 N 
ATOM     10  N   UNL     1      33.451 -24.284 -13.883  0.00  0.00    -0.132 NA
ATOM     11  N   UNL     1      32.108 -24.156 -13.577  0.00  0.00    -0.125 NA
ATOM     12  C   UNL     1      35.701 -22.037 -17.479  0.00  0.00    +0.245 C 
ATOM     13  C   UNL     1      33.411 -23.127 -17.806  0.00  0.00    +0.119 C 
ATOM     14  C   UNL     1      34.882 -23.746 -15.900  0.00  0.00    +0.160 C 
ATOM     15  C   UNL     1      32.236 -22.790 -16.891  0.00  0.00    +0.130 C 
ATOM     16  C   UNL     1      33.630 -23.814 -15.101  0.00  0.00    +0.164 A 
ATOM     17  C   UNL     1      31.509 -23.615 -14.615  0.00  0.00    +0.238 A 
BRANCH  17  21
ATOM     18  F   UNL     1      29.741 -22.043 -14.257  0.00  0.00    -0.163 F 
ATOM     19  F   UNL     1      29.612 -23.279 -16.033  0.00  0.00    -0.163 F 
ATOM     20  F   UNL     1      29.256 -24.155 -14.075  0.00  0.00    -0.163 F 
ATOM     21  C   UNL     1      30.079 -23.282 -14.742  0.00  0.00    +0.452 C 
ENDBRANCH  17  21
ENDBRANCH   5  12
BRANCH   1  25
ATOM     22  F   UNL     1      34.439 -20.320 -23.886  0.00  0.00    -0.204 F 
ATOM     23  F   UNL     1      35.166 -15.100 -22.424  0.00  0.00    -0.202 F 
ATOM     24  F   UNL     1      34.541 -15.725 -25.011  0.00  0.00    -0.202 F 
ATOM     25  C   UNL     1      34.935 -18.719 -22.205  0.00  0.00    +0.006 C 
ATOM     26  C   UNL     1      34.617 -19.043 -23.520  0.00  0.00    +0.138 C 
ATOM     27  C   UNL     1      35.122 -17.392 -21.830  0.00  0.00    +0.030 C 
ATOM     28  C   UNL     1      34.987 -16.379 -22.779  0.00  0.00    +0.167 C 
ATOM     29  C   UNL     1      34.482 -18.030 -24.469  0.00  0.00    +0.061 C 
ATOM     30  C   UNL     1      34.667 -16.698 -24.098  0.00  0.00    +0.170 C 
ENDBRANCH   1  25
BRANCH   2  31
ATOM     31  N   UNL     1      32.619 -20.113 -20.924  0.00  0.00    +0.382 N 
ATOM     32  H   UNL     1      32.228 -19.197 -21.145  0.00  0.00    -0.089 HD
ATOM     33  H   UNL     1      31.961 -20.633 -20.345  0.00  0.00    -0.089 HD
ATOM     34  H   UNL     1      32.792 -20.626 -21.789  0.00  0.00    -0.089 HD
ENDBRANCH   2  31
TORSDOF 4
ENDMDL
MODEL 2
REMARK VINA RESULT:     -11.6      3.888      4.809
REMARK  Name = 11974440
REMARK  4 active torsions:
REMARK  status: ('A' for Active; 'I' for Inactive)
REMARK    1  A    between atoms: C_1  and  C_25
REMARK    2  A    between atoms: C_2  and  N_31
REMARK    3  A    between atoms: C_5  and  C_12
REMARK    4  A    between atoms: C_17  and  C_21
REMARK                            x       y       z     vdW  Elec       q    Type
REMARK                         _______ _______ _______ _____ _____    ______ ____
ROOT
ATOM      1  C   UNL     1      34.516 -19.893 -19.973  0.00  0.00    +0.009 C 
ATOM      2  C   UNL     1      35.557 -21.033 -19.825  0.00  0.00    -0.057 C 
ATOM      3  C   UNL     1      35.386 -21.749 -18.470  0.00  0.00    +0.009 C 
ATOM      4  C   UNL     1      33.079 -20.453 -19.858  0.00  0.00    +0.028 C 
ATOM      5  C   UNL     1      33.952 -22.040 -18.144  0.00  0.00    +0.025 C 
ATOM      6  C   UNL     1      32.912 -21.472 -18.769  0.00  0.00    -0.026 C 
ENDROOT
BRANCH   5  12
ATOM      7  O   UNL     1      32.648 -23.718 -17.206  0.00  0.00    -0.270 OA
ATOM      8  N   UNL     1      34.552 -23.111 -16.018  0.00  0.00    -0.267 N 
ATOM      9  N   UNL     1      36.792 -24.246 -14.883  0.00  0.00    -0.292 N 
ATOM     10  N   UNL     1      35.740 -25.791 -13.758  0.00  0.00    -0.132 NA
ATOM     11  N   UNL     1      37.103 -25.991 -13.624  0.00  0.00    -0.125 NA
ATOM     12  C   UNL     1      33.659 -23.025 -17.083  0.00  0.00    +0.245 C 
ATOM     13  C   UNL     1      35.729 -22.247 -15.799  0.00  0.00    +0.119 C 
ATOM     14  C   UNL     1      34.295 -24.090 -14.951  0.00  0.00    +0.160 C 
ATOM     15  C   UNL     1      36.994 -23.101 -15.744  0.00  0.00    +0.130 C 
ATOM     16  C   UNL     1      35.565 -24.734 -14.523  0.00  0.00    +0.164 A 
ATOM     17  C   UNL     1      37.716 -25.052 -14.309  0.00  0.00    +0.238 A 
BRANCH  17  21
ATOM     18  F   UNL     1      39.803 -25.904 -15.111  0.00  0.00    -0.163 F 
ATOM     19  F   UNL     1      39.528 -23.754 -15.176  0.00  0.00    -0.163 F 
ATOM     20  F   UNL     1      39.834 -24.750 -13.268  0.00  0.00    -0.163 F 
ATOM     21  C   UNL     1      39.170 -24.872 -14.463  0.00  0.00    +0.452 C 
ENDBRANCH  17  21
ENDBRANCH   5  12
BRANCH   1  25
ATOM     22  F   UNL     1      35.802 -17.365 -20.073  0.00  0.00    -0.204 F 
ATOM     23  F   UNL     1      33.784 -19.310 -24.769  0.00  0.00    -0.202 F 
ATOM     24  F   UNL     1      35.049 -16.887 -24.720  0.00  0.00    -0.202 F 
ATOM     25  C   UNL     1      34.662 -19.081 -21.251  0.00  0.00    +0.006 C 
ATOM     26  C   UNL     1      35.307 -17.849 -21.220  0.00  0.00    +0.138 C 
ATOM     27  C   UNL     1      34.147 -19.579 -22.444  0.00  0.00    +0.030 C 
ATOM     28  C   UNL     1      34.279 -18.837 -23.617  0.00  0.00    +0.167 C 
ATOM     29  C   UNL     1      35.439 -17.107 -22.394  0.00  0.00    +0.061 C 
ATOM     30  C   UNL     1      34.925 -17.601 -23.593  0.00  0.00    +0.170 C 
ENDBRANCH   1  25
BRANCH   2  31
ATOM     31  N   UNL     1      36.928 -20.524 -19.935  0.00  0.00    +0.382 N 
ATOM     32  H   UNL     1      36.930 -19.517 -19.770  0.00  0.00    -0.089 HD
ATOM     33  H   UNL     1      37.288 -20.717 -20.868  0.00  0.00    -0.089 HD
ATOM     34  H   UNL     1      37.517 -20.983 -19.240  0.00  0.00    -0.089 HD
ENDBRANCH   2  31
TORSDOF 4
ENDMDL
MODEL 3
REMARK VINA RESULT:     -11.5      0.969      1.619
REMARK  Name = 11974440
REMARK  4 active torsions:
REMARK  status: ('A' for Active; 'I' for Inactive)
REMARK    1  A    between atoms: C_1  and  C_25
REMARK    2  A    between atoms: C_2  and  N_31
REMARK    3  A    between atoms: C_5  and  C_12
REMARK    4  A    between atoms: C_17  and  C_21
REMARK                            x       y       z     vdW  Elec       q    Type
REMARK                         _______ _______ _______ _____ _____    ______ ____
ROOT
ATOM      1  C   UNL     1      34.967 -20.302 -20.718  0.00  0.00    +0.009 C 
ATOM      2  C   UNL     1      33.806 -20.294 -19.689  0.00  0.00    -0.057 C 
ATOM      3  C   UNL     1      33.981 -21.437 -18.668  0.00  0.00    +0.009 C 
ATOM      4  C   UNL     1      36.329 -20.156 -20.000  0.00  0.00    +0.028 C 
ATOM      5  C   UNL     1      35.387 -21.555 -18.163  0.00  0.00    +0.025 C 
ATOM      6  C   UNL     1      36.443 -20.975 -18.747  0.00  0.00    -0.026 C 
ENDROOT
BRANCH   5  12
ATOM      7  O   UNL     1      36.695 -22.168 -16.344  0.00  0.00    -0.270 OA
ATOM      8  N   UNL     1      34.632 -23.224 -16.529  0.00  0.00    -0.267 N 
ATOM      9  N   UNL     1      32.366 -23.722 -15.041  0.00  0.00    -0.292 N 
ATOM     10  N   UNL     1      33.394 -24.517 -13.289  0.00  0.00    -0.132 NA
ATOM     11  N   UNL     1      32.042 -24.419 -13.007  0.00  0.00    -0.125 NA
ATOM     12  C   UNL     1      35.629 -22.343 -16.937  0.00  0.00    +0.245 C 
ATOM     13  C   UNL     1      33.379 -23.516 -17.254  0.00  0.00    +0.119 C 
ATOM     14  C   UNL     1      34.838 -24.015 -15.305  0.00  0.00    +0.160 C 
ATOM     15  C   UNL     1      32.180 -23.180 -16.370  0.00  0.00    +0.130 C 
ATOM     16  C   UNL     1      33.577 -24.091 -14.521  0.00  0.00    +0.164 A 
ATOM     17  C   UNL     1      31.443 -23.938 -14.074  0.00  0.00    +0.238 A 
BRANCH  17  21
ATOM     18  F   UNL     1      29.664 -22.339 -14.046  0.00  0.00    -0.163 F 
ATOM     19  F   UNL     1      29.505 -23.961 -15.476  0.00  0.00    -0.163 F 
ATOM     20  F   UNL     1      29.213 -24.351 -13.357  0.00  0.00    -0.163 F 
ATOM     21  C   UNL     1      30.006 -23.655 -14.235  0.00  0.00    +0.452 C 
ENDBRANCH  17  21
ENDBRANCH   5  12
BRANCH   1  25
ATOM     22  F   UNL     1      36.033 -17.682 -20.495  0.00  0.00    -0.204 F 
ATOM     23  F   UNL     1      33.385 -18.899 -25.123  0.00  0.00    -0.202 F 
ATOM     24  F   UNL     1      34.465 -16.412 -24.774  0.00  0.00    -0.202 F 
ATOM     25  C   UNL     1      34.834 -19.252 -21.810  0.00  0.00    +0.006 C 
ATOM     26  C   UNL     1      35.385 -17.988 -21.627  0.00  0.00    +0.138 C 
ATOM     27  C   UNL     1      34.159 -19.565 -22.986  0.00  0.00    +0.030 C 
ATOM     28  C   UNL     1      34.035 -18.604 -23.989  0.00  0.00    +0.167 C 
ATOM     29  C   UNL     1      35.261 -17.027 -22.630  0.00  0.00    +0.061 C 
ATOM     30  C   UNL     1      34.586 -17.336 -23.812  0.00  0.00    +0.170 C 
ENDBRANCH   1  25
BRANCH   2  31
ATOM     31  N   UNL     1      32.504 -20.428 -20.348  0.00  0.00    +0.382 N 
ATOM     32  H   UNL     1      32.556 -20.030 -21.286  0.00  0.00    -0.089 HD
ATOM     33  H   UNL     1      31.797 -19.932 -19.807  0.00  0.00    -0.089 HD
ATOM     34  H   UNL     1      32.255 -21.415 -20.411  0.00  0.00    -0.089 HD
ENDBRANCH   2  31
TORSDOF 4
ENDMDL
MODEL 4
REMARK VINA RESULT:     -11.4     10.146     15.523
REMARK  Name = 11974440
REMARK  4 active torsions:
REMARK  status: ('A' for Active; 'I' for Inactive)
REMARK    1  A    between atoms: C_1  and  C_25
REMARK    2  A    between atoms: C_2  and  N_31
REMARK    3  A    between atoms: C_5  and  C_12
REMARK    4  A    between atoms: C_17  and  C_21
REMARK                            x       y       z     vdW  Elec       q    Type
REMARK                         _______ _______ _______ _____ _____    ______ ____
ROOT
ATOM      1  C   UNL     1      32.955 -11.468 -23.030  0.00  0.00    +0.009 C 
ATOM      2  C   UNL     1      34.061 -10.383 -22.963  0.00  0.00    -0.057 C 
ATOM      3  C   UNL     1      33.435  -8.983 -22.803  0.00  0.00    +0.009 C 
ATOM      4  C   UNL     1      32.081 -11.431 -21.754  0.00  0.00    +0.028 C 
ATOM      5  C   UNL     1      32.336  -8.950 -21.784  0.00  0.00    +0.025 C 
ATOM      6  C   UNL     1      31.732 -10.044 -21.301  0.00  0.00    -0.026 C 
ENDROOT
BRANCH   5  12
ATOM      7  O   UNL     1      31.924  -7.468 -20.045  0.00  0.00    -0.270 OA
ATOM      8  N   UNL     1      31.496  -6.680 -22.190  0.00  0.00    -0.267 N 
ATOM      9  N   UNL     1      32.117  -4.552 -23.828  0.00  0.00    -0.292 N 
ATOM     10  N   UNL     1      31.599  -2.986 -22.402  0.00  0.00    -0.132 NA
ATOM     11  N   UNL     1      32.156  -2.400 -23.525  0.00  0.00    -0.125 NA
ATOM     12  C   UNL     1      31.898  -7.639 -21.265  0.00  0.00    +0.245 C 
ATOM     13  C   UNL     1      31.380  -6.874 -23.649  0.00  0.00    +0.119 C 
ATOM     14  C   UNL     1      31.066  -5.359 -21.704  0.00  0.00    +0.160 C 
ATOM     15  C   UNL     1      32.284  -5.881 -24.376  0.00  0.00    +0.130 C 
ATOM     16  C   UNL     1      31.583  -4.288 -22.596  0.00  0.00    +0.164 A 
ATOM     17  C   UNL     1      32.461  -3.360 -24.369  0.00  0.00    +0.238 A 
BRANCH  17  21
ATOM     18  F   UNL     1      34.296  -3.846 -25.825  0.00  0.00    -0.163 F 
ATOM     19  F   UNL     1      32.332  -3.702 -26.733  0.00  0.00    -0.163 F 
ATOM     20  F   UNL     1      33.338  -1.906 -26.035  0.00  0.00    -0.163 F 
ATOM     21  C   UNL     1      33.086  -3.211 -25.695  0.00  0.00    +0.452 C 
ENDBRANCH  17  21
ENDBRANCH   5  12
BRANCH   1  25
ATOM     22  F   UNL     1      32.928 -12.736 -25.568  0.00  0.00    -0.204 F 
ATOM     23  F   UNL     1      34.992 -15.595 -21.387  0.00  0.00    -0.202 F 
ATOM     24  F   UNL     1      34.905 -16.694 -23.889  0.00  0.00    -0.202 F 
ATOM     25  C   UNL     1      33.481 -12.876 -23.264  0.00  0.00    +0.006 C 
ATOM     26  C   UNL     1      33.434 -13.430 -24.539  0.00  0.00    +0.138 C 
ATOM     27  C   UNL     1      34.005 -13.601 -22.198  0.00  0.00    +0.030 C 
ATOM     28  C   UNL     1      34.487 -14.892 -22.410  0.00  0.00    +0.167 C 
ATOM     29  C   UNL     1      33.917 -14.721 -24.751  0.00  0.00    +0.061 C 
ATOM     30  C   UNL     1      34.444 -15.452 -23.686  0.00  0.00    +0.170 C 
ENDBRANCH   1  25
BRANCH   2  31
ATOM     31  N   UNL     1      34.905 -10.403 -24.161  0.00  0.00    +0.382 N 
ATOM     32  H   UNL     1      35.844 -10.712 -23.910  0.00  0.00    -0.089 HD
ATOM     33  H   UNL     1      34.951  -9.466 -24.559  0.00  0.00    -0.089 HD
ATOM     34  H   UNL     1      34.508 -11.046 -24.846  0.00  0.00    -0.089 HD
ENDBRANCH   2  31
TORSDOF 4
ENDMDL
MODEL 5
REMARK VINA RESULT:     -10.7      3.572      9.563
REMARK  Name = 11974440
REMARK  4 active torsions:
REMARK  status: ('A' for Active; 'I' for Inactive)
REMARK    1  A    between atoms: C_1  and  C_25
REMARK    2  A    between atoms: C_2  and  N_31
REMARK    3  A    between atoms: C_5  and  C_12
REMARK    4  A    between atoms: C_17  and  C_21
REMARK                            x       y       z     vdW  Elec       q    Type
REMARK                         _______ _______ _______ _____ _____    ______ ____
ROOT
ATOM      1  C   UNL     1      34.871 -20.710 -19.077  0.00  0.00    +0.009 C 
ATOM      2  C   UNL     1      33.578 -20.973 -19.893  0.00  0.00    -0.057 C 
ATOM      3  C   UNL     1      33.433 -19.936 -21.025  0.00  0.00    +0.009 C 
ATOM      4  C   UNL     1      36.113 -20.767 -19.998  0.00  0.00    +0.028 C 
ATOM      5  C   UNL     1      34.714 -19.703 -21.767  0.00  0.00    +0.025 C 
ATOM      6  C   UNL     1      35.918 -20.082 -21.319  0.00  0.00    -0.026 C 
ENDROOT
BRANCH   5  12
ATOM      7  O   UNL     1      34.337 -19.709 -24.059  0.00  0.00    -0.270 OA
ATOM      8  N   UNL     1      34.947 -17.670 -23.124  0.00  0.00    -0.267 N 
ATOM      9  N   UNL     1      34.095 -15.052 -23.012  0.00  0.00    -0.292 N 
ATOM     10  N   UNL     1      33.856 -14.780 -25.163  0.00  0.00    -0.132 NA
ATOM     11  N   UNL     1      33.393 -13.647 -24.516  0.00  0.00    -0.125 NA
ATOM     12  C   UNL     1      34.653 -19.030 -23.081  0.00  0.00    +0.245 C 
ATOM     13  C   UNL     1      35.402 -16.843 -21.988  0.00  0.00    +0.119 C 
ATOM     14  C   UNL     1      34.883 -16.969 -24.415  0.00  0.00    +0.160 C 
ATOM     15  C   UNL     1      34.420 -15.696 -21.758  0.00  0.00    +0.130 C 
ATOM     16  C   UNL     1      34.275 -15.623 -24.242  0.00  0.00    +0.164 A 
ATOM     17  C   UNL     1      33.545 -13.832 -23.223  0.00  0.00    +0.238 A 
BRANCH  17  21
ATOM     18  F   UNL     1      33.261 -11.572 -22.491  0.00  0.00    -0.163 F 
ATOM     19  F   UNL     1      31.902 -13.050 -21.672  0.00  0.00    -0.163 F 
ATOM     20  F   UNL     1      33.979 -13.015 -21.032  0.00  0.00    -0.163 F 
ATOM     21  C   UNL     1      33.182 -12.898 -22.143  0.00  0.00    +0.452 C 
ENDBRANCH  17  21
ENDBRANCH   5  12
BRANCH   1  25
ATOM     22  F   UNL     1      37.285 -20.886 -17.597  0.00  0.00    -0.204 F 
ATOM     23  F   UNL     1      33.162 -24.111 -16.013  0.00  0.00    -0.202 F 
ATOM     24  F   UNL     1      35.545 -24.177 -14.675  0.00  0.00    -0.202 F 
ATOM     25  C   UNL     1      35.055 -21.643 -17.890  0.00  0.00    +0.006 C 
ATOM     26  C   UNL     1      36.270 -21.672 -17.213  0.00  0.00    +0.138 C 
ATOM     27  C   UNL     1      34.004 -22.463 -17.490  0.00  0.00    +0.030 C 
ATOM     28  C   UNL     1      34.170 -23.319 -16.402  0.00  0.00    +0.167 C 
ATOM     29  C   UNL     1      36.436 -22.528 -16.125  0.00  0.00    +0.061 C 
ATOM     30  C   UNL     1      35.385 -23.352 -15.719  0.00  0.00    +0.170 C 
ENDBRANCH   1  25
BRANCH   2  31
ATOM     31  N   UNL     1      32.387 -20.928 -19.039  0.00  0.00    +0.382 N 
ATOM     32  H   UNL     1      32.573 -21.431 -18.171  0.00  0.00    -0.089 HD
ATOM     33  H   UNL     1      31.605 -21.364 -19.525  0.00  0.00    -0.089 HD
ATOM     34  H   UNL     1      32.158 -19.957 -18.826  0.00  0.00    -0.089 HD
ENDBRANCH   2  31
TORSDOF 4
ENDMDL
MODEL 6
REMARK VINA RESULT:     -10.5     10.403     15.805
REMARK  Name = 11974440
REMARK  4 active torsions:
REMARK  status: ('A' for Active; 'I' for Inactive)
REMARK    1  A    between atoms: C_1  and  C_25
REMARK    2  A    between atoms: C_2  and  N_31
REMARK    3  A    between atoms: C_5  and  C_12
REMARK    4  A    between atoms: C_17  and  C_21
REMARK                            x       y       z     vdW  Elec       q    Type
REMARK                         _______ _______ _______ _____ _____    ______ ____
ROOT
ATOM      1  C   UNL     1      33.232 -11.093 -22.160  0.00  0.00    +0.009 C 
ATOM      2  C   UNL     1      31.741 -10.898 -21.780  0.00  0.00    -0.057 C 
ATOM      3  C   UNL     1      31.553  -9.593 -20.981  0.00  0.00    +0.009 C 
ATOM      4  C   UNL     1      33.740  -9.894 -22.994  0.00  0.00    +0.028 C 
ATOM      5  C   UNL     1      32.300  -8.436 -21.574  0.00  0.00    +0.025 C 
ATOM      6  C   UNL     1      33.273  -8.562 -22.485  0.00  0.00    -0.026 C 
ENDROOT
BRANCH   5  12
ATOM      7  O   UNL     1      32.003  -6.808 -19.943  0.00  0.00    -0.270 OA
ATOM      8  N   UNL     1      31.547  -6.167 -22.131  0.00  0.00    -0.267 N 
ATOM      9  N   UNL     1      32.210  -4.201 -23.944  0.00  0.00    -0.292 N 
ATOM     10  N   UNL     1      31.802  -2.508 -22.630  0.00  0.00    -0.132 NA
ATOM     11  N   UNL     1      32.351  -2.035 -23.809  0.00  0.00    -0.125 NA
ATOM     12  C   UNL     1      31.934  -7.071 -21.145  0.00  0.00    +0.245 C 
ATOM     13  C   UNL     1      31.380  -6.467 -23.567  0.00  0.00    +0.119 C 
ATOM     14  C   UNL     1      31.188  -4.795 -21.738  0.00  0.00    +0.160 C 
ATOM     15  C   UNL     1      32.304  -5.574 -24.392  0.00  0.00    +0.130 C 
ATOM     16  C   UNL     1      31.724  -3.820 -22.723  0.00  0.00    +0.164 A 
ATOM     17  C   UNL     1      32.589  -3.070 -24.585  0.00  0.00    +0.238 A 
BRANCH  17  21
ATOM     18  F   UNL     1      34.376  -3.718 -26.038  0.00  0.00    -0.163 F 
ATOM     19  F   UNL     1      32.391  -3.617 -26.905  0.00  0.00    -0.163 F 
ATOM     20  F   UNL     1      33.445  -1.786 -26.395  0.00  0.00    -0.163 F 
ATOM     21  C   UNL     1      33.180  -3.051 -25.934  0.00  0.00    +0.452 C 
ENDBRANCH  17  21
ENDBRANCH   5  12
BRANCH   1  25
ATOM     22  F   UNL     1      34.052 -13.464 -20.834  0.00  0.00    -0.204 F 
ATOM     23  F   UNL     1      33.524 -13.719 -26.271  0.00  0.00    -0.202 F 
ATOM     24  F   UNL     1      34.307 -15.928 -24.865  0.00  0.00    -0.202 F 
ATOM     25  C   UNL     1      33.521 -12.398 -22.886  0.00  0.00    +0.006 C 
ATOM     26  C   UNL     1      33.919 -13.520 -22.166  0.00  0.00    +0.138 C 
ATOM     27  C   UNL     1      33.386 -12.459 -24.270  0.00  0.00    +0.030 C 
ATOM     28  C   UNL     1      33.651 -13.654 -24.939  0.00  0.00    +0.167 C 
ATOM     29  C   UNL     1      34.184 -14.714 -22.835  0.00  0.00    +0.061 C 
ATOM     30  C   UNL     1      34.050 -14.781 -24.222  0.00  0.00    +0.170 C 
ENDBRANCH   1  25
BRANCH   2  31
ATOM     31  N   UNL     1      31.236 -12.026 -20.992  0.00  0.00    +0.382 N 
ATOM     32  H   UNL     1      30.418 -11.729 -20.459  0.00  0.00    -0.089 HD
ATOM     33  H   UNL     1      31.962 -12.344 -20.350  0.00  0.00    -0.089 HD
ATOM     34  H   UNL     1      30.975 -12.789 -21.617  0.00  0.00    -0.089 HD
ENDBRANCH   2  31
TORSDOF 4
ENDMDL
MODEL 7
REMARK VINA RESULT:     -10.5      4.977      6.476
REMARK  Name = 11974440
REMARK  4 active torsions:
REMARK  status: ('A' for Active; 'I' for Inactive)
REMARK    1  A    between atoms: C_1  and  C_25
REMARK    2  A    between atoms: C_2  and  N_31
REMARK    3  A    between atoms: C_5  and  C_12
REMARK    4  A    between atoms: C_17  and  C_21
REMARK                            x       y       z     vdW  Elec       q    Type
REMARK                         _______ _______ _______ _____ _____    ______ ____
ROOT
ATOM      1  C   UNL     1      34.685 -22.493 -17.532  0.00  0.00    +0.009 C 
ATOM      2  C   UNL     1      33.411 -22.608 -16.655  0.00  0.00    -0.057 C 
ATOM      3  C   UNL     1      33.638 -23.603 -15.499  0.00  0.00    +0.009 C 
ATOM      4  C   UNL     1      35.891 -22.034 -16.679  0.00  0.00    +0.028 C 
ATOM      5  C   UNL     1      34.961 -23.413 -14.821  0.00  0.00    +0.025 C 
ATOM      6  C   UNL     1      35.972 -22.702 -15.338  0.00  0.00    -0.026 C 
ENDROOT
BRANCH   5  12
ATOM      7  O   UNL     1      34.265 -23.912 -12.661  0.00  0.00    -0.270 OA
ATOM      8  N   UNL     1      36.359 -24.713 -13.277  0.00  0.00    -0.267 N 
ATOM      9  N   UNL     1      37.793 -27.065 -13.335  0.00  0.00    -0.292 N 
ATOM     10  N   UNL     1      37.420 -27.631 -11.262  0.00  0.00    -0.132 NA
ATOM     11  N   UNL     1      38.099 -28.661 -11.890  0.00  0.00    -0.125 NA
ATOM     12  C   UNL     1      35.166 -24.030 -13.494  0.00  0.00    +0.245 C 
ATOM     13  C   UNL     1      37.489 -24.810 -14.222  0.00  0.00    +0.119 C 
ATOM     14  C   UNL     1      36.587 -25.349 -11.970  0.00  0.00    +0.160 C 
ATOM     15  C   UNL     1      37.766 -26.277 -14.548  0.00  0.00    +0.130 C 
ATOM     16  C   UNL     1      37.240 -26.673 -12.147  0.00  0.00    +0.164 A 
ATOM     17  C   UNL     1      38.312 -28.300 -13.136  0.00  0.00    +0.238 A 
BRANCH  17  21
ATOM     18  F   UNL     1      38.162 -29.909 -14.901  0.00  0.00    -0.163 F 
ATOM     19  F   UNL     1      39.621 -28.322 -15.138  0.00  0.00    -0.163 F 
ATOM     20  F   UNL     1      39.971 -29.910 -13.695  0.00  0.00    -0.163 F 
ATOM     21  C   UNL     1      38.991 -29.083 -14.184  0.00  0.00    +0.452 C 
ENDBRANCH  17  21
ENDBRANCH   5  12
BRANCH   1  25
ATOM     22  F   UNL     1      36.880 -21.417 -18.972  0.00  0.00    -0.204 F 
ATOM     23  F   UNL     1      31.872 -20.097 -20.730  0.00  0.00    -0.202 F 
ATOM     24  F   UNL     1      34.078 -19.131 -22.023  0.00  0.00    -0.202 F 
ATOM     25  C   UNL     1      34.524 -21.588 -18.744  0.00  0.00    +0.006 C 
ATOM     26  C   UNL     1      35.650 -21.099 -19.398  0.00  0.00    +0.138 C 
ATOM     27  C   UNL     1      33.248 -21.253 -19.187  0.00  0.00    +0.030 C 
ATOM     28  C   UNL     1      33.098 -20.423 -20.298  0.00  0.00    +0.167 C 
ATOM     29  C   UNL     1      35.500 -20.269 -20.509  0.00  0.00    +0.061 C 
ATOM     30  C   UNL     1      34.223 -19.931 -20.958  0.00  0.00    +0.170 C 
ENDBRANCH   1  25
BRANCH   2  31
ATOM     31  N   UNL     1      32.253 -23.038 -17.444  0.00  0.00    +0.382 N 
ATOM     32  H   UNL     1      31.397 -22.848 -16.922  0.00  0.00    -0.089 HD
ATOM     33  H   UNL     1      32.322 -24.038 -17.631  0.00  0.00    -0.089 HD
ATOM     34  H   UNL     1      32.234 -22.526 -18.326  0.00  0.00    -0.089 HD
ENDBRANCH   2  31
TORSDOF 4
ENDMDL
MODEL 8
REMARK VINA RESULT:     -10.4      4.326      5.196
REMARK  Name = 11974440
REMARK  4 active torsions:
REMARK  status: ('A' for Active; 'I' for Inactive)
REMARK    1  A    between atoms: C_1  and  C_25
REMARK    2  A    between atoms: C_2  and  N_31
REMARK    3  A    between atoms: C_5  and  C_12
REMARK    4  A    between atoms: C_17  and  C_21
REMARK                            x       y       z     vdW  Elec       q    Type
REMARK                         _______ _______ _______ _____ _____    ______ ____
ROOT
ATOM      1  C   UNL     1      34.779 -21.141 -19.725  0.00  0.00    +0.009 C 
ATOM      2  C   UNL     1      33.411 -20.984 -19.012  0.00  0.00    -0.057 C 
ATOM      3  C   UNL     1      33.172 -22.153 -18.036  0.00  0.00    +0.009 C 
ATOM      4  C   UNL     1      35.926 -21.197 -18.689  0.00  0.00    +0.028 C 
ATOM      5  C   UNL     1      34.379 -22.474 -17.207  0.00  0.00    +0.025 C 
ATOM      6  C   UNL     1      35.615 -22.040 -17.487  0.00  0.00    -0.026 C 
ENDROOT
BRANCH   5  12
ATOM      7  O   UNL     1      33.138 -23.913 -15.872  0.00  0.00    -0.270 OA
ATOM      8  N   UNL     1      35.253 -23.352 -15.089  0.00  0.00    -0.267 N 
ATOM      9  N   UNL     1      37.567 -24.552 -14.194  0.00  0.00    -0.292 N 
ATOM     10  N   UNL     1      36.615 -25.861 -12.732  0.00  0.00    -0.132 NA
ATOM     11  N   UNL     1      37.963 -26.168 -12.794  0.00  0.00    -0.125 NA
ATOM     12  C   UNL     1      34.202 -23.305 -15.999  0.00  0.00    +0.245 C 
ATOM     13  C   UNL     1      36.509 -22.579 -15.169  0.00  0.00    +0.119 C 
ATOM     14  C   UNL     1      35.112 -24.181 -13.880  0.00  0.00    +0.160 C 
ATOM     15  C   UNL     1      37.701 -23.532 -15.211  0.00  0.00    +0.130 C 
ATOM     16  C   UNL     1      36.388 -24.884 -13.585  0.00  0.00    +0.164 A 
ATOM     17  C   UNL     1      38.517 -25.369 -13.679  0.00  0.00    +0.238 A 
BRANCH  17  21
ATOM     18  F   UNL     1      40.199 -24.510 -15.148  0.00  0.00    -0.163 F 
ATOM     19  F   UNL     1      40.794 -24.917 -13.102  0.00  0.00    -0.163 F 
ATOM     20  F   UNL     1      40.415 -26.565 -14.469  0.00  0.00    -0.163 F 
ATOM     21  C   UNL     1      39.933 -25.339 -14.085  0.00  0.00    +0.452 C 
ENDBRANCH  17  21
ENDBRANCH   5  12
BRANCH   1  25
ATOM     22  F   UNL     1      37.069 -19.467 -19.647  0.00  0.00    -0.204 F 
ATOM     23  F   UNL     1      33.574 -18.702 -23.784  0.00  0.00    -0.202 F 
ATOM     24  F   UNL     1      35.822 -17.160 -23.586  0.00  0.00    -0.202 F 
ATOM     25  C   UNL     1      35.063 -20.068 -20.765  0.00  0.00    +0.006 C 
ATOM     26  C   UNL     1      36.209 -19.286 -20.659  0.00  0.00    +0.138 C 
ATOM     27  C   UNL     1      34.171 -19.876 -21.816  0.00  0.00    +0.030 C 
ATOM     28  C   UNL     1      34.429 -18.893 -22.770  0.00  0.00    +0.167 C 
ATOM     29  C   UNL     1      36.467 -18.303 -21.614  0.00  0.00    +0.061 C 
ATOM     30  C   UNL     1      35.576 -18.107 -22.670  0.00  0.00    +0.170 C 
ENDBRANCH   1  25
BRANCH   2  31
ATOM     31  N   UNL     1      32.308 -20.924 -19.976  0.00  0.00    +0.382 N 
ATOM     32  H   UNL     1      31.676 -21.710 -19.817  0.00  0.00    -0.089 HD
ATOM     33  H   UNL     1      32.681 -20.974 -20.923  0.00  0.00    -0.089 HD
ATOM     34  H   UNL     1      31.798 -20.049 -19.855  0.00  0.00    -0.089 HD
ENDBRANCH   2  31
TORSDOF 4
ENDMDL
MODEL 9
REMARK VINA RESULT:     -10.2     10.030     15.398
REMARK  Name = 11974440
REMARK  4 active torsions:
REMARK  status: ('A' for Active; 'I' for Inactive)
REMARK    1  A    between atoms: C_1  and  C_25
REMARK    2  A    between atoms: C_2  and  N_31
REMARK    3  A    between atoms: C_5  and  C_12
REMARK    4  A    between atoms: C_17  and  C_21
REMARK                            x       y       z     vdW  Elec       q    Type
REMARK                         _______ _______ _______ _____ _____    ______ ____
ROOT
ATOM      1  C   UNL     1      32.887 -11.612 -22.726  0.00  0.00    +0.009 C 
ATOM      2  C   UNL     1      33.957 -10.491 -22.779  0.00  0.00    -0.057 C 
ATOM      3  C   UNL     1      33.292  -9.104 -22.664  0.00  0.00    +0.009 C 
ATOM      4  C   UNL     1      32.080 -11.529 -21.409  0.00  0.00    +0.028 C 
ATOM      5  C   UNL     1      32.247  -9.048 -21.591  0.00  0.00    +0.025 C 
ATOM      6  C   UNL     1      31.707 -10.130 -21.015  0.00  0.00    -0.026 C 
ENDROOT
BRANCH   5  12
ATOM      7  O   UNL     1      31.909  -7.468 -19.922  0.00  0.00    -0.270 OA
ATOM      8  N   UNL     1      31.271  -6.847 -22.069  0.00  0.00    -0.267 N 
ATOM      9  N   UNL     1      31.656  -4.812 -23.888  0.00  0.00    -0.292 N 
ATOM     10  N   UNL     1      31.183  -3.175 -22.527  0.00  0.00    -0.132 NA
ATOM     11  N   UNL     1      31.619  -2.644 -23.728  0.00  0.00    -0.125 NA
ATOM     12  C   UNL     1      31.792  -7.723 -21.122  0.00  0.00    +0.245 C 
ATOM     13  C   UNL     1      31.047  -7.145 -23.498  0.00  0.00    +0.119 C 
ATOM     14  C   UNL     1      30.820  -5.515 -21.636  0.00  0.00    +0.160 C 
ATOM     15  C   UNL     1      31.841  -6.167 -24.361  0.00  0.00    +0.130 C 
ATOM     16  C   UNL     1      31.212  -4.487 -22.635  0.00  0.00    +0.164 A 
ATOM     17  C   UNL     1      31.899  -3.646 -24.532  0.00  0.00    +0.238 A 
BRANCH  17  21
ATOM     18  F   UNL     1      32.679  -4.778 -26.490  0.00  0.00    -0.163 F 
ATOM     19  F   UNL     1      31.548  -2.953 -26.794  0.00  0.00    -0.163 F 
ATOM     20  F   UNL     1      33.577  -2.855 -26.020  0.00  0.00    -0.163 F 
ATOM     21  C   UNL     1      32.406  -3.563 -25.913  0.00  0.00    +0.452 C 
ENDBRANCH  17  21
ENDBRANCH   5  12
BRANCH   1  25
ATOM     22  F   UNL     1      34.095 -13.092 -20.628  0.00  0.00    -0.204 F 
ATOM     23  F   UNL     1      33.835 -15.499 -25.533  0.00  0.00    -0.202 F 
ATOM     24  F   UNL     1      34.972 -16.810 -23.421  0.00  0.00    -0.202 F 
ATOM     25  C   UNL     1      33.449 -13.014 -22.910  0.00  0.00    +0.006 C 
ATOM     26  C   UNL     1      34.026 -13.677 -21.832  0.00  0.00    +0.138 C 
ATOM     27  C   UNL     1      33.381 -13.622 -24.160  0.00  0.00    +0.030 C 
ATOM     28  C   UNL     1      33.896 -14.907 -24.332  0.00  0.00    +0.167 C 
ATOM     29  C   UNL     1      34.540 -14.961 -22.004  0.00  0.00    +0.061 C 
ATOM     30  C   UNL     1      34.475 -15.577 -23.255  0.00  0.00    +0.170 C 
ENDBRANCH   1  25
BRANCH   2  31
ATOM     31  N   UNL     1      34.737 -10.552 -24.019  0.00  0.00    +0.382 N 
ATOM     32  H   UNL     1      35.627 -10.071 -23.884  0.00  0.00    -0.089 HD
ATOM     33  H   UNL     1      34.217 -10.100 -24.770  0.00  0.00    -0.089 HD
ATOM     34  H   UNL     1      34.912 -11.527 -24.263  0.00  0.00    -0.089 HD
ENDBRANCH   2  31
TORSDOF 4
ENDMDL
