MODEL 1
REMARK VINA RESULT:     -11.7      0.000      0.000
REMARK  Name = 24941249
REMARK  6 active torsions:
REMARK  status: ('A' for Active; 'I' for Inactive)
REMARK    1  A    between atoms: N_1  and  C_13
REMARK    2  A    between atoms: N_2  and  C_26
REMARK    3  A    between atoms: C_14  and  C_19
REMARK    4  A    between atoms: C_19  and  C_20
REMARK    5  A    between atoms: C_20  and  C_23
REMARK    6  A    between atoms: C_26  and  C_28
REMARK                            x       y       z     vdW  Elec       q    Type
REMARK                         _______ _______ _______ _____ _____    ______ ____
ROOT
ATOM      1  N   UNL     1      34.289 -24.092 -13.354  0.00  0.00    -0.230 N 
ATOM      2  N   UNL     1      34.698 -22.222 -17.850  0.00  0.00    -0.316 N 
ATOM      3  N   UNL     1      33.247 -24.517 -12.618  0.00  0.00    -0.169 NA
ATOM      4  N   UNL     1      32.625 -22.869 -16.876  0.00  0.00    -0.229 NA
ATOM      5  C   UNL     1      33.947 -23.631 -14.595  0.00  0.00    +0.088 A 
ATOM      6  C   UNL     1      32.567 -23.770 -14.671  0.00  0.00    +0.052 A 
ATOM      7  C   UNL     1      32.201 -24.319 -13.424  0.00  0.00    +0.082 A 
ATOM      8  C   UNL     1      34.710 -23.116 -15.637  0.00  0.00    +0.053 C 
ATOM      9  C   UNL     1      33.970 -22.755 -16.752  0.00  0.00    +0.130 C 
ATOM     10  C   UNL     1      31.914 -23.376 -15.838  0.00  0.00    +0.103 C 
ATOM     11  C   UNL     1      30.849 -24.673 -12.958  0.00  0.00    +0.054 C 
ATOM     12  H   UNL     1      35.675 -22.133 -17.770  0.00  0.00    +0.148 HD
ENDROOT
BRANCH   1  13
ATOM     13  C   UNL     1      35.577 -24.152 -12.821  0.00  0.00    +0.082 C 
ATOM     14  C   UNL     1      37.733 -25.234 -12.673  0.00  0.00    -0.020 C 
ATOM     15  C   UNL     1      36.445 -25.174 -13.206  0.00  0.00    +0.015 C 
ATOM     16  C   UNL     1      35.998 -23.189 -11.904  0.00  0.00    +0.019 C 
ATOM     17  C   UNL     1      38.153 -24.271 -11.756  0.00  0.00    -0.004 C 
ATOM     18  C   UNL     1      37.286 -23.248 -11.372  0.00  0.00    +0.001 C 
BRANCH  14  19
ATOM     19  C   UNL     1      38.660 -26.327 -13.084  0.00  0.00    +0.036 C 
BRANCH  19  20
ATOM     20  C   UNL     1      40.035 -25.795 -13.504  0.00  0.00    +0.089 C 
BRANCH  20  23
ATOM     21  O   UNL     1      40.653 -26.424 -15.764  0.00  0.00    -0.275 OA
ATOM     22  N   UNL     1      39.648 -24.385 -15.414  0.00  0.00    -0.329 N 
ATOM     23  C   UNL     1      40.157 -25.599 -15.003  0.00  0.00    +0.220 C 
ATOM     24  H   UNL     1      39.670 -24.141 -16.367  0.00  0.00    +0.145 HD
ATOM     25  H   UNL     1      39.263 -23.765 -14.755  0.00  0.00    +0.145 HD
ENDBRANCH  20  23
ENDBRANCH  19  20
ENDBRANCH  14  19
ENDBRANCH   1  13
BRANCH   2  26
ATOM     26  C   UNL     1      34.068 -21.810 -19.060  0.00  0.00    +0.093 C 
ATOM     27  C   UNL     1      32.656 -21.315 -18.755  0.00  0.00    +0.026 C 
BRANCH  26  28
ATOM     28  C   UNL     1      34.918 -20.775 -19.765  0.00  0.00    -0.005 C 
ATOM     29  C   UNL     1      36.287 -20.702 -19.506  0.00  0.00    -0.003 C 
ATOM     30  C   UNL     1      34.333 -19.896 -20.675  0.00  0.00    -0.003 C 
ATOM     31  C   UNL     1      37.069 -19.747 -20.155  0.00  0.00    -0.000 C 
ATOM     32  C   UNL     1      35.116 -18.941 -21.325  0.00  0.00    -0.000 C 
ATOM     33  C   UNL     1      36.484 -18.868 -21.066  0.00  0.00    -0.000 C 
ENDBRANCH  26  28
ENDBRANCH   2  26
TORSDOF 6
ENDMDL
MODEL 2
REMARK VINA RESULT:     -11.6      3.822      8.824
REMARK  Name = 24941249
REMARK  6 active torsions:
REMARK  status: ('A' for Active; 'I' for Inactive)
REMARK    1  A    between atoms: N_1  and  C_13
REMARK    2  A    between atoms: N_2  and  C_26
REMARK    3  A    between atoms: C_14  and  C_19
REMARK    4  A    between atoms: C_19  and  C_20
REMARK    5  A    between atoms: C_20  and  C_23
REMARK    6  A    between atoms: C_26  and  C_28
REMARK                            x       y       z     vdW  Elec       q    Type
REMARK                         _______ _______ _______ _____ _____    ______ ____
ROOT
ATOM      1  N   UNL     1      32.365 -23.109 -16.360  0.00  0.00    -0.230 N 
ATOM      2  N   UNL     1      35.967 -23.890 -13.151  0.00  0.00    -0.316 N 
ATOM      3  N   UNL     1      32.327 -22.609 -17.608  0.00  0.00    -0.169 NA
ATOM      4  N   UNL     1      36.309 -22.963 -15.316  0.00  0.00    -0.229 NA
ATOM      5  C   UNL     1      33.617 -23.151 -15.811  0.00  0.00    +0.088 A 
ATOM      6  C   UNL     1      34.462 -22.635 -16.785  0.00  0.00    +0.052 A 
ATOM      7  C   UNL     1      33.606 -22.322 -17.862  0.00  0.00    +0.082 A 
ATOM      8  C   UNL     1      34.073 -23.587 -14.572  0.00  0.00    +0.053 C 
ATOM      9  C   UNL     1      35.443 -23.460 -14.400  0.00  0.00    +0.130 C 
ATOM     10  C   UNL     1      35.827 -22.548 -16.514  0.00  0.00    +0.103 C 
ATOM     11  C   UNL     1      33.974 -21.742 -19.165  0.00  0.00    +0.054 C 
ATOM     12  H   UNL     1      35.346 -24.250 -12.478  0.00  0.00    +0.148 HD
ENDROOT
BRANCH   1  13
ATOM     13  C   UNL     1      31.181 -23.527 -15.751  0.00  0.00    +0.082 C 
ATOM     14  C   UNL     1      28.799 -23.290 -15.423  0.00  0.00    -0.020 C 
ATOM     15  C   UNL     1      29.982 -22.872 -16.033  0.00  0.00    +0.015 C 
ATOM     16  C   UNL     1      31.197 -24.600 -14.861  0.00  0.00    +0.019 C 
ATOM     17  C   UNL     1      28.814 -24.364 -14.533  0.00  0.00    -0.004 C 
ATOM     18  C   UNL     1      30.013 -25.019 -14.252  0.00  0.00    +0.001 C 
BRANCH  14  19
ATOM     19  C   UNL     1      27.517 -22.589 -15.723  0.00  0.00    +0.036 C 
BRANCH  19  20
ATOM     20  C   UNL     1      27.118 -22.716 -17.198  0.00  0.00    +0.089 C 
BRANCH  20  23
ATOM     21  O   UNL     1      26.333 -20.420 -17.164  0.00  0.00    -0.275 OA
ATOM     22  N   UNL     1      25.569 -21.830 -18.812  0.00  0.00    -0.329 N 
ATOM     23  C   UNL     1      26.318 -21.526 -17.695  0.00  0.00    +0.220 C 
ATOM     24  H   UNL     1      25.006 -21.139 -19.229  0.00  0.00    +0.145 HD
ATOM     25  H   UNL     1      25.598 -22.738 -19.192  0.00  0.00    +0.145 HD
ENDBRANCH  20  23
ENDBRANCH  19  20
ENDBRANCH  14  19
ENDBRANCH   1  13
BRANCH   2  26
ATOM     26  C   UNL     1      37.354 -23.819 -12.836  0.00  0.00    +0.093 C 
ATOM     27  C   UNL     1      37.522 -23.461 -11.361  0.00  0.00    +0.026 C 
BRANCH  26  28
ATOM     28  C   UNL     1      38.042 -25.114 -13.212  0.00  0.00    -0.005 C 
ATOM     29  C   UNL     1      37.457 -26.336 -12.881  0.00  0.00    -0.003 C 
ATOM     30  C   UNL     1      39.260 -25.085 -13.891  0.00  0.00    -0.003 C 
ATOM     31  C   UNL     1      38.091 -27.529 -13.227  0.00  0.00    -0.000 C 
ATOM     32  C   UNL     1      39.894 -26.278 -14.237  0.00  0.00    -0.000 C 
ATOM     33  C   UNL     1      39.309 -27.501 -13.905  0.00  0.00    -0.000 C 
ENDBRANCH  26  28
ENDBRANCH   2  26
TORSDOF 6
ENDMDL
MODEL 3
REMARK VINA RESULT:     -11.5      1.250      1.592
REMARK  Name = 24941249
REMARK  6 active torsions:
REMARK  status: ('A' for Active; 'I' for Inactive)
REMARK    1  A    between atoms: N_1  and  C_13
REMARK    2  A    between atoms: N_2  and  C_26
REMARK    3  A    between atoms: C_14  and  C_19
REMARK    4  A    between atoms: C_19  and  C_20
REMARK    5  A    between atoms: C_20  and  C_23
REMARK    6  A    between atoms: C_26  and  C_28
REMARK                            x       y       z     vdW  Elec       q    Type
REMARK                         _______ _______ _______ _____ _____    ______ ____
ROOT
ATOM      1  N   UNL     1      34.272 -24.138 -13.466  0.00  0.00    -0.230 N 
ATOM      2  N   UNL     1      34.598 -22.261 -17.967  0.00  0.00    -0.316 N 
ATOM      3  N   UNL     1      33.239 -24.470 -12.674  0.00  0.00    -0.169 NA
ATOM      4  N   UNL     1      32.532 -22.719 -16.877  0.00  0.00    -0.229 NA
ATOM      5  C   UNL     1      33.905 -23.632 -14.683  0.00  0.00    +0.088 A 
ATOM      6  C   UNL     1      32.516 -23.637 -14.678  0.00  0.00    +0.052 A 
ATOM      7  C   UNL     1      32.171 -24.164 -13.415  0.00  0.00    +0.082 A 
ATOM      8  C   UNL     1      34.653 -23.179 -15.764  0.00  0.00    +0.053 C 
ATOM      9  C   UNL     1      33.887 -22.736 -16.832  0.00  0.00    +0.130 C 
ATOM     10  C   UNL     1      31.837 -23.169 -15.802  0.00  0.00    +0.103 C 
ATOM     11  C   UNL     1      30.821 -24.393 -12.873  0.00  0.00    +0.054 C 
ATOM     12  H   UNL     1      35.582 -22.267 -17.944  0.00  0.00    +0.148 HD
ENDROOT
BRANCH   1  13
ATOM     13  C   UNL     1      35.578 -24.327 -13.011  0.00  0.00    +0.082 C 
ATOM     14  C   UNL     1      37.702 -25.468 -13.161  0.00  0.00    -0.020 C 
ATOM     15  C   UNL     1      36.397 -25.279 -13.617  0.00  0.00    +0.015 C 
ATOM     16  C   UNL     1      36.063 -23.563 -11.950  0.00  0.00    +0.019 C 
ATOM     17  C   UNL     1      38.188 -24.704 -12.100  0.00  0.00    -0.004 C 
ATOM     18  C   UNL     1      37.368 -23.751 -11.494  0.00  0.00    +0.001 C 
BRANCH  14  19
ATOM     19  C   UNL     1      38.578 -26.487 -13.808  0.00  0.00    +0.036 C 
BRANCH  19  20
ATOM     20  C   UNL     1      37.785 -27.697 -14.314  0.00  0.00    +0.089 C 
BRANCH  20  23
ATOM     21  O   UNL     1      36.815 -28.034 -16.513  0.00  0.00    -0.275 OA
ATOM     22  N   UNL     1      39.083 -27.692 -16.339  0.00  0.00    -0.329 N 
ATOM     23  C   UNL     1      37.811 -27.828 -15.825  0.00  0.00    +0.220 C 
ATOM     24  H   UNL     1      39.230 -27.758 -17.310  0.00  0.00    +0.145 HD
ATOM     25  H   UNL     1      39.843 -27.529 -15.735  0.00  0.00    +0.145 HD
ENDBRANCH  20  23
ENDBRANCH  19  20
ENDBRANCH  14  19
ENDBRANCH   1  13
BRANCH   2  26
ATOM     26  C   UNL     1      33.942 -21.777 -19.135  0.00  0.00    +0.093 C 
ATOM     27  C   UNL     1      32.565 -21.235 -18.756  0.00  0.00    +0.026 C 
BRANCH  26  28
ATOM     28  C   UNL     1      34.809 -20.752 -19.834  0.00  0.00    -0.005 C 
ATOM     29  C   UNL     1      34.247 -19.889 -20.775  0.00  0.00    -0.003 C 
ATOM     30  C   UNL     1      36.169 -20.670 -19.537  0.00  0.00    -0.003 C 
ATOM     31  C   UNL     1      35.046 -18.944 -21.420  0.00  0.00    -0.000 C 
ATOM     32  C   UNL     1      36.968 -19.726 -20.182  0.00  0.00    -0.000 C 
ATOM     33  C   UNL     1      36.406 -18.862 -21.123  0.00  0.00    -0.000 C 
ENDBRANCH  26  28
ENDBRANCH   2  26
TORSDOF 6
ENDMDL
MODEL 4
REMARK VINA RESULT:     -11.0      1.750      2.006
REMARK  Name = 24941249
REMARK  6 active torsions:
REMARK  status: ('A' for Active; 'I' for Inactive)
REMARK    1  A    between atoms: N_1  and  C_13
REMARK    2  A    between atoms: N_2  and  C_26
REMARK    3  A    between atoms: C_14  and  C_19
REMARK    4  A    between atoms: C_19  and  C_20
REMARK    5  A    between atoms: C_20  and  C_23
REMARK    6  A    between atoms: C_26  and  C_28
REMARK                            x       y       z     vdW  Elec       q    Type
REMARK                         _______ _______ _______ _____ _____    ______ ____
ROOT
ATOM      1  N   UNL     1      34.152 -23.966 -14.431  0.00  0.00    -0.230 N 
ATOM      2  N   UNL     1      34.603 -21.733 -18.754  0.00  0.00    -0.316 N 
ATOM      3  N   UNL     1      33.097 -24.377 -13.705  0.00  0.00    -0.169 NA
ATOM      4  N   UNL     1      32.509 -22.309 -17.781  0.00  0.00    -0.229 NA
ATOM      5  C   UNL     1      33.819 -23.371 -15.616  0.00  0.00    +0.088 A 
ATOM      6  C   UNL     1      32.431 -23.398 -15.663  0.00  0.00    +0.052 A 
ATOM      7  C   UNL     1      32.051 -24.029 -14.460  0.00  0.00    +0.082 A 
ATOM      8  C   UNL     1      34.596 -22.822 -16.630  0.00  0.00    +0.053 C 
ATOM      9  C   UNL     1      33.862 -22.307 -17.687  0.00  0.00    +0.130 C 
ATOM     10  C   UNL     1      31.784 -22.853 -16.772  0.00  0.00    +0.103 C 
ATOM     11  C   UNL     1      30.687 -24.322 -13.988  0.00  0.00    +0.054 C 
ATOM     12  H   UNL     1      35.586 -21.725 -18.696  0.00  0.00    +0.148 HD
ENDROOT
BRANCH   1  13
ATOM     13  C   UNL     1      35.444 -24.170 -13.943  0.00  0.00    +0.082 C 
ATOM     14  C   UNL     1      37.515 -25.413 -13.960  0.00  0.00    -0.020 C 
ATOM     15  C   UNL     1      36.224 -25.210 -14.448  0.00  0.00    +0.015 C 
ATOM     16  C   UNL     1      35.954 -23.332 -12.951  0.00  0.00    +0.019 C 
ATOM     17  C   UNL     1      38.026 -24.576 -12.968  0.00  0.00    -0.004 C 
ATOM     18  C   UNL     1      37.246 -23.535 -12.464  0.00  0.00    +0.001 C 
BRANCH  14  19
ATOM     19  C   UNL     1      38.349 -26.526 -14.498  0.00  0.00    +0.036 C 
BRANCH  19  20
ATOM     20  C   UNL     1      37.504 -27.735 -14.917  0.00  0.00    +0.089 C 
BRANCH  20  23
ATOM     21  O   UNL     1      38.487 -29.203 -13.254  0.00  0.00    -0.275 OA
ATOM     22  N   UNL     1      36.237 -29.378 -13.698  0.00  0.00    -0.329 N 
ATOM     23  C   UNL     1      37.492 -28.835 -13.873  0.00  0.00    +0.220 C 
ATOM     24  H   UNL     1      36.101 -30.102 -13.046  0.00  0.00    +0.145 HD
ATOM     25  H   UNL     1      35.478 -29.040 -14.226  0.00  0.00    +0.145 HD
ENDBRANCH  20  23
ENDBRANCH  19  20
ENDBRANCH  14  19
ENDBRANCH   1  13
BRANCH   2  26
ATOM     26  C   UNL     1      33.981 -21.168 -19.904  0.00  0.00    +0.093 C 
ATOM     27  C   UNL     1      32.643 -20.548 -19.504  0.00  0.00    +0.026 C 
BRANCH  26  28
ATOM     28  C   UNL     1      34.914 -20.181 -20.572  0.00  0.00    -0.005 C 
ATOM     29  C   UNL     1      36.188 -19.962 -20.048  0.00  0.00    -0.003 C 
ATOM     30  C   UNL     1      34.500 -19.491 -21.711  0.00  0.00    -0.003 C 
ATOM     31  C   UNL     1      37.047 -19.052 -20.663  0.00  0.00    -0.000 C 
ATOM     32  C   UNL     1      35.359 -18.581 -22.326  0.00  0.00    -0.000 C 
ATOM     33  C   UNL     1      36.634 -18.362 -21.803  0.00  0.00    -0.000 C 
ENDBRANCH  26  28
ENDBRANCH   2  26
TORSDOF 6
ENDMDL
MODEL 5
REMARK VINA RESULT:     -11.0      8.322     13.721
REMARK  Name = 24941249
REMARK  6 active torsions:
REMARK  status: ('A' for Active; 'I' for Inactive)
REMARK    1  A    between atoms: N_1  and  C_13
REMARK    2  A    between atoms: N_2  and  C_26
REMARK    3  A    between atoms: C_14  and  C_19
REMARK    4  A    between atoms: C_19  and  C_20
REMARK    5  A    between atoms: C_20  and  C_23
REMARK    6  A    between atoms: C_26  and  C_28
REMARK                            x       y       z     vdW  Elec       q    Type
REMARK                         _______ _______ _______ _____ _____    ______ ____
ROOT
ATOM      1  N   UNL     1      33.248 -13.163 -23.106  0.00  0.00    -0.230 N 
ATOM      2  N   UNL     1      35.208 -17.238 -21.253  0.00  0.00    -0.316 N 
ATOM      3  N   UNL     1      33.116 -12.684 -24.355  0.00  0.00    -0.169 NA
ATOM      4  N   UNL     1      35.166 -16.736 -23.579  0.00  0.00    -0.229 NA
ATOM      5  C   UNL     1      33.877 -14.376 -23.036  0.00  0.00    +0.088 A 
ATOM      6  C   UNL     1      34.177 -14.710 -24.350  0.00  0.00    +0.052 A 
ATOM      7  C   UNL     1      33.682 -13.629 -25.109  0.00  0.00    +0.082 A 
ATOM      8  C   UNL     1      34.203 -15.191 -21.958  0.00  0.00    +0.053 C 
ATOM      9  C   UNL     1      34.851 -16.364 -22.314  0.00  0.00    +0.130 C 
ATOM     10  C   UNL     1      34.832 -15.914 -24.605  0.00  0.00    +0.103 C 
ATOM     11  C   UNL     1      33.731 -13.458 -26.572  0.00  0.00    +0.054 C 
ATOM     12  H   UNL     1      34.985 -16.977 -20.331  0.00  0.00    +0.148 HD
ENDROOT
BRANCH   1  13
ATOM     13  C   UNL     1      32.757 -12.423 -22.030  0.00  0.00    +0.082 C 
ATOM     14  C   UNL     1      31.936 -10.339 -21.124  0.00  0.00    -0.020 C 
ATOM     15  C   UNL     1      32.427 -11.079 -22.200  0.00  0.00    +0.015 C 
ATOM     16  C   UNL     1      32.596 -13.029 -20.784  0.00  0.00    +0.019 C 
ATOM     17  C   UNL     1      31.774 -10.945 -19.878  0.00  0.00    -0.004 C 
ATOM     18  C   UNL     1      32.104 -12.290 -19.707  0.00  0.00    +0.001 C 
BRANCH  14  19
ATOM     19  C   UNL     1      31.584  -8.902 -21.305  0.00  0.00    +0.036 C 
BRANCH  19  20
ATOM     20  C   UNL     1      32.824  -8.002 -21.348  0.00  0.00    +0.089 C 
BRANCH  20  23
ATOM     21  O   UNL     1      32.329  -5.708 -20.731  0.00  0.00    -0.275 OA
ATOM     22  N   UNL     1      33.141  -7.141 -19.125  0.00  0.00    -0.329 N 
ATOM     23  C   UNL     1      32.728  -6.821 -20.401  0.00  0.00    +0.220 C 
ATOM     24  H   UNL     1      33.125  -6.456 -18.418  0.00  0.00    +0.145 HD
ATOM     25  H   UNL     1      33.452  -8.052 -18.922  0.00  0.00    +0.145 HD
ENDBRANCH  20  23
ENDBRANCH  19  20
ENDBRANCH  14  19
ENDBRANCH   1  13
BRANCH   2  26
ATOM     26  C   UNL     1      35.877 -18.477 -21.472  0.00  0.00    +0.093 C 
ATOM     27  C   UNL     1      37.370 -18.303 -21.198  0.00  0.00    +0.026 C 
BRANCH  26  28
ATOM     28  C   UNL     1      35.245 -19.567 -20.634  0.00  0.00    -0.005 C 
ATOM     29  C   UNL     1      36.049 -20.423 -19.881  0.00  0.00    -0.003 C 
ATOM     30  C   UNL     1      33.858 -19.715 -20.613  0.00  0.00    -0.003 C 
ATOM     31  C   UNL     1      35.466 -21.428 -19.109  0.00  0.00    -0.000 C 
ATOM     32  C   UNL     1      33.275 -20.720 -19.841  0.00  0.00    -0.000 C 
ATOM     33  C   UNL     1      34.079 -21.576 -19.088  0.00  0.00    -0.000 C 
ENDBRANCH  26  28
ENDBRANCH   2  26
TORSDOF 6
ENDMDL
MODEL 6
REMARK VINA RESULT:     -10.9      3.129      8.420
REMARK  Name = 24941249
REMARK  6 active torsions:
REMARK  status: ('A' for Active; 'I' for Inactive)
REMARK    1  A    between atoms: N_1  and  C_13
REMARK    2  A    between atoms: N_2  and  C_26
REMARK    3  A    between atoms: C_14  and  C_19
REMARK    4  A    between atoms: C_19  and  C_20
REMARK    5  A    between atoms: C_20  and  C_23
REMARK    6  A    between atoms: C_26  and  C_28
REMARK                            x       y       z     vdW  Elec       q    Type
REMARK                         _______ _______ _______ _____ _____    ______ ____
ROOT
ATOM      1  N   UNL     1      33.996 -22.245 -17.532  0.00  0.00    -0.230 N 
ATOM      2  N   UNL     1      37.287 -23.261 -14.066  0.00  0.00    -0.316 N 
ATOM      3  N   UNL     1      32.682 -22.498 -17.665  0.00  0.00    -0.169 NA
ATOM      4  N   UNL     1      34.997 -23.895 -13.934  0.00  0.00    -0.229 NA
ATOM      5  C   UNL     1      34.543 -22.721 -16.372  0.00  0.00    +0.088 A 
ATOM      6  C   UNL     1      33.495 -23.335 -15.697  0.00  0.00    +0.052 A 
ATOM      7  C   UNL     1      32.382 -23.162 -16.546  0.00  0.00    +0.082 A 
ATOM      8  C   UNL     1      35.837 -22.669 -15.867  0.00  0.00    +0.053 C 
ATOM      9  C   UNL     1      35.985 -23.283 -14.632  0.00  0.00    +0.130 C 
ATOM     10  C   UNL     1      33.747 -23.926 -14.459  0.00  0.00    +0.103 C 
ATOM     11  C   UNL     1      31.000 -23.620 -16.323  0.00  0.00    +0.054 C 
ATOM     12  H   UNL     1      38.012 -22.821 -14.565  0.00  0.00    +0.148 HD
ENDROOT
BRANCH   1  13
ATOM     13  C   UNL     1      34.668 -21.548 -18.537  0.00  0.00    +0.082 C 
ATOM     14  C   UNL     1      34.616 -20.193 -20.537  0.00  0.00    -0.020 C 
ATOM     15  C   UNL     1      33.945 -20.889 -19.532  0.00  0.00    +0.015 C 
ATOM     16  C   UNL     1      36.062 -21.510 -18.547  0.00  0.00    +0.019 C 
ATOM     17  C   UNL     1      36.011 -20.154 -20.546  0.00  0.00    -0.004 C 
ATOM     18  C   UNL     1      36.734 -20.813 -19.551  0.00  0.00    +0.001 C 
BRANCH  14  19
ATOM     19  C   UNL     1      33.844 -19.490 -21.601  0.00  0.00    +0.036 C 
BRANCH  19  20
ATOM     20  C   UNL     1      34.609 -19.428 -22.928  0.00  0.00    +0.089 C 
BRANCH  20  23
ATOM     21  O   UNL     1      34.063 -17.670 -24.509  0.00  0.00    -0.275 OA
ATOM     22  N   UNL     1      35.499 -17.198 -22.775  0.00  0.00    -0.329 N 
ATOM     23  C   UNL     1      34.674 -18.027 -23.506  0.00  0.00    +0.220 C 
ATOM     24  H   UNL     1      35.623 -16.262 -23.051  0.00  0.00    +0.145 HD
ATOM     25  H   UNL     1      35.962 -17.543 -21.979  0.00  0.00    +0.145 HD
ENDBRANCH  20  23
ENDBRANCH  19  20
ENDBRANCH  14  19
ENDBRANCH   1  13
BRANCH   2  26
ATOM     26  C   UNL     1      37.585 -23.851 -12.803  0.00  0.00    +0.093 C 
ATOM     27  C   UNL     1      36.410 -23.631 -11.851  0.00  0.00    +0.026 C 
BRANCH  26  28
ATOM     28  C   UNL     1      37.937 -25.312 -12.979  0.00  0.00    -0.005 C 
ATOM     29  C   UNL     1      37.234 -26.290 -12.275  0.00  0.00    -0.003 C 
ATOM     30  C   UNL     1      38.965 -25.682 -13.846  0.00  0.00    -0.003 C 
ATOM     31  C   UNL     1      37.559 -27.636 -12.437  0.00  0.00    -0.000 C 
ATOM     32  C   UNL     1      39.290 -27.028 -14.008  0.00  0.00    -0.000 C 
ATOM     33  C   UNL     1      38.587 -28.006 -13.304  0.00  0.00    -0.000 C 
ENDBRANCH  26  28
ENDBRANCH   2  26
TORSDOF 6
ENDMDL
MODEL 7
REMARK VINA RESULT:     -10.8      3.125      8.382
REMARK  Name = 24941249
REMARK  6 active torsions:
REMARK  status: ('A' for Active; 'I' for Inactive)
REMARK    1  A    between atoms: N_1  and  C_13
REMARK    2  A    between atoms: N_2  and  C_26
REMARK    3  A    between atoms: C_14  and  C_19
REMARK    4  A    between atoms: C_19  and  C_20
REMARK    5  A    between atoms: C_20  and  C_23
REMARK    6  A    between atoms: C_26  and  C_28
REMARK                            x       y       z     vdW  Elec       q    Type
REMARK                         _______ _______ _______ _____ _____    ______ ____
ROOT
ATOM      1  N   UNL     1      33.340 -22.205 -17.607  0.00  0.00    -0.230 N 
ATOM      2  N   UNL     1      36.328 -24.636 -14.600  0.00  0.00    -0.316 N 
ATOM      3  N   UNL     1      32.006 -22.050 -17.661  0.00  0.00    -0.169 NA
ATOM      4  N   UNL     1      33.960 -24.603 -14.361  0.00  0.00    -0.229 NA
ATOM      5  C   UNL     1      33.771 -22.989 -16.573  0.00  0.00    +0.088 A 
ATOM      6  C   UNL     1      32.618 -23.375 -15.900  0.00  0.00    +0.052 A 
ATOM      7  C   UNL     1      31.570 -22.763 -16.620  0.00  0.00    +0.082 A 
ATOM      8  C   UNL     1      35.043 -23.387 -16.176  0.00  0.00    +0.053 C 
ATOM      9  C   UNL     1      35.054 -24.199 -15.052  0.00  0.00    +0.130 C 
ATOM     10  C   UNL     1      32.736 -24.195 -14.778  0.00  0.00    +0.103 C 
ATOM     11  C   UNL     1      30.125 -22.836 -16.344  0.00  0.00    +0.054 C 
ATOM     12  H   UNL     1      37.129 -24.350 -15.095  0.00  0.00    +0.148 HD
ENDROOT
BRANCH   1  13
ATOM     13  C   UNL     1      34.145 -21.583 -18.563  0.00  0.00    +0.082 C 
ATOM     14  C   UNL     1      34.366 -20.218 -20.544  0.00  0.00    -0.020 C 
ATOM     15  C   UNL     1      33.561 -20.839 -19.588  0.00  0.00    +0.015 C 
ATOM     16  C   UNL     1      35.532 -21.705 -18.492  0.00  0.00    +0.019 C 
ATOM     17  C   UNL     1      35.753 -20.340 -20.473  0.00  0.00    -0.004 C 
ATOM     18  C   UNL     1      36.337 -21.083 -19.447  0.00  0.00    +0.001 C 
BRANCH  14  19
ATOM     19  C   UNL     1      33.742 -19.424 -21.641  0.00  0.00    +0.036 C 
BRANCH  19  20
ATOM     20  C   UNL     1      34.592 -19.431 -22.918  0.00  0.00    +0.089 C 
BRANCH  20  23
ATOM     21  O   UNL     1      34.319 -17.660 -24.553  0.00  0.00    -0.275 OA
ATOM     22  N   UNL     1      35.600 -17.258 -22.686  0.00  0.00    -0.329 N 
ATOM     23  C   UNL     1      34.802 -18.042 -23.492  0.00  0.00    +0.220 C 
ATOM     24  H   UNL     1      35.810 -16.335 -22.953  0.00  0.00    +0.145 HD
ATOM     25  H   UNL     1      35.960 -17.623 -21.846  0.00  0.00    +0.145 HD
ENDBRANCH  20  23
ENDBRANCH  19  20
ENDBRANCH  14  19
ENDBRANCH   1  13
BRANCH   2  26
ATOM     26  C   UNL     1      36.491 -25.473 -13.458  0.00  0.00    +0.093 C 
ATOM     27  C   UNL     1      37.712 -26.370 -13.657  0.00  0.00    +0.026 C 
BRANCH  26  28
ATOM     28  C   UNL     1      36.572 -24.633 -12.202  0.00  0.00    -0.005 C 
ATOM     29  C   UNL     1      35.924 -25.051 -11.040  0.00  0.00    -0.003 C 
ATOM     30  C   UNL     1      37.296 -23.441 -12.206  0.00  0.00    -0.003 C 
ATOM     31  C   UNL     1      35.998 -24.277  -9.882  0.00  0.00    -0.000 C 
ATOM     32  C   UNL     1      37.371 -22.667 -11.048  0.00  0.00    -0.000 C 
ATOM     33  C   UNL     1      36.722 -23.085  -9.886  0.00  0.00    -0.000 C 
ENDBRANCH  26  28
ENDBRANCH   2  26
TORSDOF 6
ENDMDL
MODEL 8
REMARK VINA RESULT:     -10.5      2.352      7.568
REMARK  Name = 24941249
REMARK  6 active torsions:
REMARK  status: ('A' for Active; 'I' for Inactive)
REMARK    1  A    between atoms: N_1  and  C_13
REMARK    2  A    between atoms: N_2  and  C_26
REMARK    3  A    between atoms: C_14  and  C_19
REMARK    4  A    between atoms: C_19  and  C_20
REMARK    5  A    between atoms: C_20  and  C_23
REMARK    6  A    between atoms: C_26  and  C_28
REMARK                            x       y       z     vdW  Elec       q    Type
REMARK                         _______ _______ _______ _____ _____    ______ ____
ROOT
ATOM      1  N   UNL     1      32.892 -22.650 -16.944  0.00  0.00    -0.230 N 
ATOM      2  N   UNL     1      36.839 -23.055 -14.091  0.00  0.00    -0.316 N 
ATOM      3  N   UNL     1      31.622 -23.078 -16.835  0.00  0.00    -0.169 NA
ATOM      4  N   UNL     1      34.714 -23.972 -13.538  0.00  0.00    -0.229 NA
ATOM      5  C   UNL     1      33.691 -22.992 -15.888  0.00  0.00    +0.088 A 
ATOM      6  C   UNL     1      32.869 -23.701 -15.021  0.00  0.00    +0.052 A 
ATOM      7  C   UNL     1      31.613 -23.717 -15.663  0.00  0.00    +0.082 A 
ATOM      8  C   UNL     1      35.034 -22.747 -15.622  0.00  0.00    +0.053 C 
ATOM      9  C   UNL     1      35.474 -23.274 -14.417  0.00  0.00    +0.130 C 
ATOM     10  C   UNL     1      33.408 -24.191 -13.832  0.00  0.00    +0.103 C 
ATOM     11  C   UNL     1      30.365 -24.338 -15.185  0.00  0.00    +0.054 C 
ATOM     12  H   UNL     1      37.400 -22.550 -14.723  0.00  0.00    +0.148 HD
ENDROOT
BRANCH   1  13
ATOM     13  C   UNL     1      33.279 -21.924 -18.071  0.00  0.00    +0.082 C 
ATOM     14  C   UNL     1      35.014 -21.128 -19.553  0.00  0.00    -0.020 C 
ATOM     15  C   UNL     1      34.627 -21.854 -18.426  0.00  0.00    +0.015 C 
ATOM     16  C   UNL     1      32.319 -21.270 -18.843  0.00  0.00    +0.019 C 
ATOM     17  C   UNL     1      34.054 -20.473 -20.325  0.00  0.00    -0.004 C 
ATOM     18  C   UNL     1      32.706 -20.544 -19.970  0.00  0.00    +0.001 C 
BRANCH  14  19
ATOM     19  C   UNL     1      36.454 -21.051 -19.933  0.00  0.00    +0.036 C 
BRANCH  19  20
ATOM     20  C   UNL     1      37.083 -19.705 -19.554  0.00  0.00    +0.089 C 
BRANCH  20  23
ATOM     21  O   UNL     1      37.876 -18.675 -21.603  0.00  0.00    -0.275 OA
ATOM     22  N   UNL     1      35.999 -17.820 -20.586  0.00  0.00    -0.329 N 
ATOM     23  C   UNL     1      37.054 -18.702 -20.692  0.00  0.00    +0.220 C 
ATOM     24  H   UNL     1      35.874 -17.120 -21.266  0.00  0.00    +0.145 HD
ATOM     25  H   UNL     1      35.373 -17.892 -19.830  0.00  0.00    +0.145 HD
ENDBRANCH  20  23
ENDBRANCH  19  20
ENDBRANCH  14  19
ENDBRANCH   1  13
BRANCH   2  26
ATOM     26  C   UNL     1      37.427 -23.537 -12.886  0.00  0.00    +0.093 C 
ATOM     27  C   UNL     1      36.460 -23.313 -11.725  0.00  0.00    +0.026 C 
BRANCH  26  28
ATOM     28  C   UNL     1      37.834 -24.986 -13.046  0.00  0.00    -0.005 C 
ATOM     29  C   UNL     1      37.218 -25.972 -12.275  0.00  0.00    -0.003 C 
ATOM     30  C   UNL     1      38.823 -25.335 -13.965  0.00  0.00    -0.003 C 
ATOM     31  C   UNL     1      37.593 -27.308 -12.422  0.00  0.00    -0.000 C 
ATOM     32  C   UNL     1      39.198 -26.670 -14.112  0.00  0.00    -0.000 C 
ATOM     33  C   UNL     1      38.583 -27.657 -13.341  0.00  0.00    -0.000 C 
ENDBRANCH  26  28
ENDBRANCH   2  26
TORSDOF 6
ENDMDL
MODEL 9
REMARK VINA RESULT:     -10.4      3.660      6.899
REMARK  Name = 24941249
REMARK  6 active torsions:
REMARK  status: ('A' for Active; 'I' for Inactive)
REMARK    1  A    between atoms: N_1  and  C_13
REMARK    2  A    between atoms: N_2  and  C_26
REMARK    3  A    between atoms: C_14  and  C_19
REMARK    4  A    between atoms: C_19  and  C_20
REMARK    5  A    between atoms: C_20  and  C_23
REMARK    6  A    between atoms: C_26  and  C_28
REMARK                            x       y       z     vdW  Elec       q    Type
REMARK                         _______ _______ _______ _____ _____    ______ ____
ROOT
ATOM      1  N   UNL     1      32.992 -23.843 -14.368  0.00  0.00    -0.230 N 
ATOM      2  N   UNL     1      34.839 -21.706 -18.357  0.00  0.00    -0.316 N 
ATOM      3  N   UNL     1      33.524 -24.239 -13.199  0.00  0.00    -0.169 NA
ATOM      4  N   UNL     1      36.136 -22.265 -16.441  0.00  0.00    -0.229 NA
ATOM      5  C   UNL     1      33.891 -23.274 -15.229  0.00  0.00    +0.088 A 
ATOM      6  C   UNL     1      35.108 -23.305 -14.560  0.00  0.00    +0.052 A 
ATOM      7  C   UNL     1      34.813 -23.910 -13.320  0.00  0.00    +0.082 A 
ATOM      8  C   UNL     1      33.747 -22.748 -16.507  0.00  0.00    +0.053 C 
ATOM      9  C   UNL     1      34.925 -22.258 -17.051  0.00  0.00    +0.130 C 
ATOM     10  C   UNL     1      36.237 -22.787 -15.194  0.00  0.00    +0.103 C 
ATOM     11  C   UNL     1      35.741 -24.194 -12.212  0.00  0.00    +0.054 C 
ATOM     12  H   UNL     1      33.965 -21.698 -18.809  0.00  0.00    +0.148 HD
ENDROOT
BRANCH   1  13
ATOM     13  C   UNL     1      31.630 -24.031 -14.603  0.00  0.00    +0.082 C 
ATOM     14  C   UNL     1      29.553 -23.283 -15.585  0.00  0.00    -0.020 C 
ATOM     15  C   UNL     1      30.915 -23.095 -15.350  0.00  0.00    +0.015 C 
ATOM     16  C   UNL     1      30.983 -25.156 -14.092  0.00  0.00    +0.019 C 
ATOM     17  C   UNL     1      28.906 -24.408 -15.074  0.00  0.00    -0.004 C 
ATOM     18  C   UNL     1      29.621 -25.345 -14.328  0.00  0.00    +0.001 C 
BRANCH  14  19
ATOM     19  C   UNL     1      28.788 -22.281 -16.382  0.00  0.00    +0.036 C 
BRANCH  19  20
ATOM     20  C   UNL     1      27.420 -22.814 -16.826  0.00  0.00    +0.089 C 
BRANCH  20  23
ATOM     21  O   UNL     1      25.742 -22.139 -15.209  0.00  0.00    -0.275 OA
ATOM     22  N   UNL     1      25.872 -21.014 -17.211  0.00  0.00    -0.329 N 
ATOM     23  C   UNL     1      26.266 -21.977 -16.307  0.00  0.00    +0.220 C 
ATOM     24  H   UNL     1      25.130 -20.406 -16.989  0.00  0.00    +0.145 HD
ATOM     25  H   UNL     1      26.332 -20.934 -18.077  0.00  0.00    +0.145 HD
ENDBRANCH  20  23
ENDBRANCH  19  20
ENDBRANCH  14  19
ENDBRANCH   1  13
BRANCH   2  26
ATOM     26  C   UNL     1      35.968 -21.166 -19.037  0.00  0.00    +0.093 C 
ATOM     27  C   UNL     1      36.849 -22.306 -19.543  0.00  0.00    +0.026 C 
BRANCH  26  28
ATOM     28  C   UNL     1      35.516 -20.233 -20.140  0.00  0.00    -0.005 C 
ATOM     29  C   UNL     1      34.219 -20.327 -20.645  0.00  0.00    -0.003 C 
ATOM     30  C   UNL     1      36.396 -19.280 -20.652  0.00  0.00    -0.003 C 
ATOM     31  C   UNL     1      33.803 -19.468 -21.662  0.00  0.00    -0.000 C 
ATOM     32  C   UNL     1      35.980 -18.421 -21.669  0.00  0.00    -0.000 C 
ATOM     33  C   UNL     1      34.683 -18.514 -22.174  0.00  0.00    -0.000 C 
ENDBRANCH  26  28
ENDBRANCH   2  26
TORSDOF 6
ENDMDL
