MODEL 1
REMARK VINA RESULT:     -10.6      0.000      0.000
REMARK  Name = 71183216
REMARK  5 active torsions:
REMARK  status: ('A' for Active; 'I' for Inactive)
REMARK    1  A    between atoms: N_3  and  C_24
REMARK    2  A    between atoms: C_10  and  C_13
REMARK    3  A    between atoms: C_18  and  O_19
REMARK    4  A    between atoms: O_19  and  C_23
REMARK    5  A    between atoms: C_24  and  C_27
REMARK                            x       y       z     vdW  Elec       q    Type
REMARK                         _______ _______ _______ _____ _____    ______ ____
ROOT
ATOM      1  O   UNL     1      31.387  -8.760 -22.008  0.00  0.00    -0.473 OA
ATOM      2  O   UNL     1      34.353  -8.959 -24.585  0.00  0.00    -0.270 OA
ATOM      3  N   UNL     1      33.990  -7.766 -22.612  0.00  0.00    -0.259 N 
ATOM      4  C   UNL     1      33.565  -7.811 -21.215  0.00  0.00    +0.142 C 
ATOM      5  C   UNL     1      33.217 -10.077 -22.886  0.00  0.00    +0.087 C 
ATOM      6  C   UNL     1      32.046  -7.868 -21.099  0.00  0.00    +0.227 C 
ATOM      7  C   UNL     1      33.907  -8.887 -23.442  0.00  0.00    +0.253 C 
ATOM      8  C   UNL     1      32.018  -9.961 -22.170  0.00  0.00    +0.143 C 
ATOM      9  C   UNL     1      33.769 -11.340 -23.120  0.00  0.00    +0.008 C 
ATOM     10  C   UNL     1      33.127 -12.478 -22.631  0.00  0.00    +0.000 C 
ATOM     11  C   UNL     1      31.368 -11.103 -21.701  0.00  0.00    +0.037 C 
ATOM     12  C   UNL     1      31.930 -12.360 -21.922  0.00  0.00    +0.003 C 
ENDROOT
BRANCH  10  13
ATOM     13  C   UNL     1      33.700 -13.786 -22.863  0.00  0.00    +0.000 C 
ATOM     14  C   UNL     1      33.597 -14.381 -24.120  0.00  0.00    +0.003 C 
ATOM     15  C   UNL     1      34.354 -14.454 -21.827  0.00  0.00    +0.003 C 
ATOM     16  C   UNL     1      34.149 -15.642 -24.343  0.00  0.00    +0.037 C 
ATOM     17  C   UNL     1      34.906 -15.716 -22.050  0.00  0.00    +0.037 C 
ATOM     18  C   UNL     1      34.802 -16.310 -23.307  0.00  0.00    +0.147 C 
BRANCH  18  19
ATOM     19  O   UNL     1      35.339 -17.542 -23.524  0.00  0.00    -0.404 OA
BRANCH  19  23
ATOM     20  F   UNL     1      34.174 -18.856 -22.060  0.00  0.00    -0.133 F 
ATOM     21  F   UNL     1      35.175 -19.780 -23.768  0.00  0.00    -0.133 F 
ATOM     22  F   UNL     1      33.383 -18.575 -24.105  0.00  0.00    -0.133 F 
ATOM     23  C   UNL     1      34.502 -18.681 -23.358  0.00  0.00    +0.575 C 
ENDBRANCH  19  23
ENDBRANCH  18  19
ENDBRANCH  10  13
BRANCH   3  24
ATOM     24  C   UNL     1      34.541  -6.514 -23.104  0.00  0.00    +0.194 C 
BRANCH  24  27
ATOM     25  N   UNL     1      32.712  -4.957 -22.779  0.00  0.00    -0.217 NA
ATOM     26  N   UNL     1      33.395  -5.554 -25.012  0.00  0.00    -0.195 NA
ATOM     27  C   UNL     1      33.479  -5.615 -23.669  0.00  0.00    +0.028 C 
ATOM     28  C   UNL     1      31.768  -4.160 -23.321  0.00  0.00    +0.164 C 
ATOM     29  C   UNL     1      32.430  -4.738 -25.485  0.00  0.00    +0.107 C 
ATOM     30  C   UNL     1      31.579  -4.009 -24.679  0.00  0.00    +0.022 C 
ENDBRANCH  24  27
ENDBRANCH   3  24
TORSDOF 5
ENDMDL
MODEL 2
REMARK VINA RESULT:     -10.4     15.079     18.358
REMARK  Name = 71183216
REMARK  5 active torsions:
REMARK  status: ('A' for Active; 'I' for Inactive)
REMARK    1  A    between atoms: N_3  and  C_24
REMARK    2  A    between atoms: C_10  and  C_13
REMARK    3  A    between atoms: C_18  and  O_19
REMARK    4  A    between atoms: O_19  and  C_23
REMARK    5  A    between atoms: C_24  and  C_27
REMARK                            x       y       z     vdW  Elec       q    Type
REMARK                         _______ _______ _______ _____ _____    ______ ____
ROOT
ATOM      1  O   UNL     1      38.633 -24.420 -14.011  0.00  0.00    -0.473 OA
ATOM      2  O   UNL     1      36.440 -27.353 -15.446  0.00  0.00    -0.270 OA
ATOM      3  N   UNL     1      37.622 -27.028 -13.460  0.00  0.00    -0.259 N 
ATOM      4  C   UNL     1      37.908 -26.137 -12.339  0.00  0.00    +0.142 C 
ATOM      5  C   UNL     1      36.409 -25.201 -14.557  0.00  0.00    +0.087 C 
ATOM      6  C   UNL     1      38.882 -25.035 -12.740  0.00  0.00    +0.227 C 
ATOM      7  C   UNL     1      36.821 -26.626 -14.532  0.00  0.00    +0.253 C 
ATOM      8  C   UNL     1      37.313 -24.171 -14.264  0.00  0.00    +0.143 C 
ATOM      9  C   UNL     1      35.094 -24.890 -14.918  0.00  0.00    +0.008 C 
ATOM     10  C   UNL     1      34.687 -23.557 -14.974  0.00  0.00    +0.000 C 
ATOM     11  C   UNL     1      36.908 -22.839 -14.343  0.00  0.00    +0.037 C 
ATOM     12  C   UNL     1      35.592 -22.534 -14.687  0.00  0.00    +0.003 C 
ENDROOT
BRANCH  10  13
ATOM     13  C   UNL     1      33.324 -23.234 -15.337  0.00  0.00    +0.000 C 
ATOM     14  C   UNL     1      32.352 -23.096 -14.347  0.00  0.00    +0.003 C 
ATOM     15  C   UNL     1      32.983 -23.062 -16.679  0.00  0.00    +0.003 C 
ATOM     16  C   UNL     1      31.038 -22.786 -14.698  0.00  0.00    +0.037 C 
ATOM     17  C   UNL     1      31.669 -22.751 -17.030  0.00  0.00    +0.037 C 
ATOM     18  C   UNL     1      30.696 -22.614 -16.040  0.00  0.00    +0.147 C 
BRANCH  18  19
ATOM     19  O   UNL     1      29.414 -22.312 -16.382  0.00  0.00    -0.404 OA
BRANCH  19  23
ATOM     20  F   UNL     1      28.958 -24.544 -16.179  0.00  0.00    -0.133 F 
ATOM     21  F   UNL     1      27.545 -23.251 -17.230  0.00  0.00    -0.133 F 
ATOM     22  F   UNL     1      27.722 -23.095 -15.058  0.00  0.00    -0.133 F 
ATOM     23  C   UNL     1      28.414 -23.308 -16.196  0.00  0.00    +0.575 C 
ENDBRANCH  19  23
ENDBRANCH  18  19
ENDBRANCH  10  13
BRANCH   3  24
ATOM     24  C   UNL     1      38.174 -28.372 -13.406  0.00  0.00    +0.194 C 
BRANCH  24  27
ATOM     25  N   UNL     1      38.756 -29.688 -15.356  0.00  0.00    -0.217 NA
ATOM     26  N   UNL     1      40.152 -27.836 -14.701  0.00  0.00    -0.195 NA
ATOM     27  C   UNL     1      39.088 -28.651 -14.565  0.00  0.00    +0.028 C 
ATOM     28  C   UNL     1      39.599 -29.910 -16.387  0.00  0.00    +0.164 C 
ATOM     29  C   UNL     1      40.952 -28.115 -15.751  0.00  0.00    +0.107 C 
ATOM     30  C   UNL     1      40.723 -29.150 -16.636  0.00  0.00    +0.022 C 
ENDBRANCH  24  27
ENDBRANCH   3  24
TORSDOF 5
ENDMDL
MODEL 3
REMARK VINA RESULT:     -10.4     10.481     16.034
REMARK  Name = 71183216
REMARK  5 active torsions:
REMARK  status: ('A' for Active; 'I' for Inactive)
REMARK    1  A    between atoms: N_3  and  C_24
REMARK    2  A    between atoms: C_10  and  C_13
REMARK    3  A    between atoms: C_18  and  O_19
REMARK    4  A    between atoms: O_19  and  C_23
REMARK    5  A    between atoms: C_24  and  C_27
REMARK                            x       y       z     vdW  Elec       q    Type
REMARK                         _______ _______ _______ _____ _____    ______ ____
ROOT
ATOM      1  O   UNL     1      34.344 -24.287 -14.103  0.00  0.00    -0.473 OA
ATOM      2  O   UNL     1      37.639 -22.301 -14.917  0.00  0.00    -0.270 OA
ATOM      3  N   UNL     1      37.149 -24.551 -14.533  0.00  0.00    -0.259 N 
ATOM      4  C   UNL     1      36.284 -25.685 -14.846  0.00  0.00    +0.142 C 
ATOM      5  C   UNL     1      35.620 -23.087 -15.770  0.00  0.00    +0.087 C 
ATOM      6  C   UNL     1      34.952 -25.586 -14.111  0.00  0.00    +0.227 C 
ATOM      7  C   UNL     1      36.896 -23.272 -15.037  0.00  0.00    +0.253 C 
ATOM      8  C   UNL     1      34.417 -23.627 -15.297  0.00  0.00    +0.143 C 
ATOM      9  C   UNL     1      35.626 -22.324 -16.943  0.00  0.00    +0.008 C 
ATOM     10  C   UNL     1      34.436 -22.113 -17.638  0.00  0.00    +0.000 C 
ATOM     11  C   UNL     1      33.225 -23.395 -15.983  0.00  0.00    +0.037 C 
ATOM     12  C   UNL     1      33.238 -22.647 -17.160  0.00  0.00    +0.003 C 
ENDROOT
BRANCH  10  13
ATOM     13  C   UNL     1      34.441 -21.332 -18.857  0.00  0.00    +0.000 C 
ATOM     14  C   UNL     1      35.650 -20.979 -19.455  0.00  0.00    +0.003 C 
ATOM     15  C   UNL     1      33.235 -20.929 -19.431  0.00  0.00    +0.003 C 
ATOM     16  C   UNL     1      35.654 -20.225 -20.629  0.00  0.00    +0.037 C 
ATOM     17  C   UNL     1      33.239 -20.175 -20.605  0.00  0.00    +0.037 C 
ATOM     18  C   UNL     1      34.449 -19.823 -21.203  0.00  0.00    +0.147 C 
BRANCH  18  19
ATOM     19  O   UNL     1      34.453 -19.086 -22.347  0.00  0.00    -0.404 OA
BRANCH  19  23
ATOM     20  F   UNL     1      35.258 -17.216 -21.305  0.00  0.00    -0.133 F 
ATOM     21  F   UNL     1      34.955 -17.192 -23.469  0.00  0.00    -0.133 F 
ATOM     22  F   UNL     1      36.603 -18.360 -22.634  0.00  0.00    -0.133 F 
ATOM     23  C   UNL     1      35.329 -17.966 -22.425  0.00  0.00    +0.575 C 
ENDBRANCH  19  23
ENDBRANCH  18  19
ENDBRANCH  10  13
BRANCH   3  24
ATOM     24  C   UNL     1      38.314 -24.806 -13.701  0.00  0.00    +0.194 C 
BRANCH  24  27
ATOM     25  N   UNL     1      38.437 -27.183 -13.243  0.00  0.00    -0.217 NA
ATOM     26  N   UNL     1      39.871 -26.209 -14.918  0.00  0.00    -0.195 NA
ATOM     27  C   UNL     1      38.913 -26.155 -13.972  0.00  0.00    +0.028 C 
ATOM     28  C   UNL     1      38.998 -28.380 -13.512  0.00  0.00    +0.164 C 
ATOM     29  C   UNL     1      40.387 -27.436 -15.135  0.00  0.00    +0.107 C 
ATOM     30  C   UNL     1      39.986 -28.569 -14.456  0.00  0.00    +0.022 C 
ENDBRANCH  24  27
ENDBRANCH   3  24
TORSDOF 5
ENDMDL
MODEL 4
REMARK VINA RESULT:     -10.1      9.109     13.942
REMARK  Name = 71183216
REMARK  5 active torsions:
REMARK  status: ('A' for Active; 'I' for Inactive)
REMARK    1  A    between atoms: N_3  and  C_24
REMARK    2  A    between atoms: C_10  and  C_13
REMARK    3  A    between atoms: C_18  and  O_19
REMARK    4  A    between atoms: O_19  and  C_23
REMARK    5  A    between atoms: C_24  and  C_27
REMARK                            x       y       z     vdW  Elec       q    Type
REMARK                         _______ _______ _______ _____ _____    ______ ____
ROOT
ATOM      1  O   UNL     1      36.011 -23.598 -15.390  0.00  0.00    -0.473 OA
ATOM      2  O   UNL     1      32.780 -24.088 -17.578  0.00  0.00    -0.270 OA
ATOM      3  N   UNL     1      33.162 -23.547 -15.340  0.00  0.00    -0.259 N 
ATOM      4  C   UNL     1      33.893 -22.712 -14.391  0.00  0.00    +0.142 C 
ATOM      5  C   UNL     1      34.599 -22.703 -17.138  0.00  0.00    +0.087 C 
ATOM      6  C   UNL     1      35.319 -23.214 -14.195  0.00  0.00    +0.227 C 
ATOM      7  C   UNL     1      33.430 -23.509 -16.711  0.00  0.00    +0.253 C 
ATOM      8  C   UNL     1      35.817 -22.753 -16.446  0.00  0.00    +0.143 C 
ATOM      9  C   UNL     1      34.481 -21.905 -18.281  0.00  0.00    +0.008 C 
ATOM     10  C   UNL     1      35.573 -21.156 -18.719  0.00  0.00    +0.000 C 
ATOM     11  C   UNL     1      36.913 -22.020 -16.901  0.00  0.00    +0.037 C 
ATOM     12  C   UNL     1      36.786 -21.212 -18.030  0.00  0.00    +0.003 C 
ENDROOT
BRANCH  10  13
ATOM     13  C   UNL     1      35.451 -20.321 -19.895  0.00  0.00    +0.000 C 
ATOM     14  C   UNL     1      34.230 -20.232 -20.563  0.00  0.00    +0.003 C 
ATOM     15  C   UNL     1      36.556 -19.609 -20.362  0.00  0.00    +0.003 C 
ATOM     16  C   UNL     1      34.113 -19.428 -21.698  0.00  0.00    +0.037 C 
ATOM     17  C   UNL     1      36.439 -18.806 -21.496  0.00  0.00    +0.037 C 
ATOM     18  C   UNL     1      35.218 -18.716 -22.165  0.00  0.00    +0.147 C 
BRANCH  18  19
ATOM     19  O   UNL     1      35.104 -17.933 -23.273  0.00  0.00    -0.404 OA
BRANCH  19  23
ATOM     20  F   UNL     1      33.665 -16.194 -23.641  0.00  0.00    -0.133 F 
ATOM     21  F   UNL     1      35.820 -15.839 -23.716  0.00  0.00    -0.133 F 
ATOM     22  F   UNL     1      34.866 -16.212 -21.785  0.00  0.00    -0.133 F 
ATOM     23  C   UNL     1      34.848 -16.544 -23.093  0.00  0.00    +0.575 C 
ENDBRANCH  19  23
ENDBRANCH  18  19
ENDBRANCH  10  13
BRANCH   3  24
ATOM     24  C   UNL     1      32.111 -24.401 -14.811  0.00  0.00    +0.194 C 
BRANCH  24  27
ATOM     25  N   UNL     1      29.876 -24.504 -15.742  0.00  0.00    -0.217 NA
ATOM     26  N   UNL     1      30.530 -22.610 -14.402  0.00  0.00    -0.195 NA
ATOM     27  C   UNL     1      30.749 -23.799 -14.997  0.00  0.00    +0.028 C 
ATOM     28  C   UNL     1      28.662 -23.932 -15.889  0.00  0.00    +0.164 C 
ATOM     29  C   UNL     1      29.297 -22.097 -14.591  0.00  0.00    +0.107 C 
ATOM     30  C   UNL     1      28.313 -22.720 -15.332  0.00  0.00    +0.022 C 
ENDBRANCH  24  27
ENDBRANCH   3  24
TORSDOF 5
ENDMDL
MODEL 5
REMARK VINA RESULT:      -9.8     10.623     15.146
REMARK  Name = 71183216
REMARK  5 active torsions:
REMARK  status: ('A' for Active; 'I' for Inactive)
REMARK    1  A    between atoms: N_3  and  C_24
REMARK    2  A    between atoms: C_10  and  C_13
REMARK    3  A    between atoms: C_18  and  O_19
REMARK    4  A    between atoms: O_19  and  C_23
REMARK    5  A    between atoms: C_24  and  C_27
REMARK                            x       y       z     vdW  Elec       q    Type
REMARK                         _______ _______ _______ _____ _____    ______ ____
ROOT
ATOM      1  O   UNL     1      33.980 -24.079 -14.736  0.00  0.00    -0.473 OA
ATOM      2  O   UNL     1      37.294 -21.978 -15.001  0.00  0.00    -0.270 OA
ATOM      3  N   UNL     1      36.825 -24.251 -14.755  0.00  0.00    -0.259 N 
ATOM      4  C   UNL     1      36.052 -25.398 -15.223  0.00  0.00    +0.142 C 
ATOM      5  C   UNL     1      35.448 -22.791 -16.164  0.00  0.00    +0.087 C 
ATOM      6  C   UNL     1      34.624 -25.359 -14.690  0.00  0.00    +0.227 C 
ATOM      7  C   UNL     1      36.608 -22.964 -15.256  0.00  0.00    +0.253 C 
ATOM      8  C   UNL     1      34.206 -23.378 -15.887  0.00  0.00    +0.143 C 
ATOM      9  C   UNL     1      35.601 -21.991 -17.301  0.00  0.00    +0.008 C 
ATOM     10  C   UNL     1      34.519 -21.791 -18.158  0.00  0.00    +0.000 C 
ATOM     11  C   UNL     1      33.121 -23.157 -16.735  0.00  0.00    +0.037 C 
ATOM     12  C   UNL     1      33.282 -22.373 -17.877  0.00  0.00    +0.003 C 
ENDROOT
BRANCH  10  13
ATOM     13  C   UNL     1      34.678 -20.972 -19.340  0.00  0.00    +0.000 C 
ATOM     14  C   UNL     1      33.555 -20.550 -20.053  0.00  0.00    +0.003 C 
ATOM     15  C   UNL     1      35.954 -20.606 -19.769  0.00  0.00    +0.003 C 
ATOM     16  C   UNL     1      33.708 -19.762 -21.194  0.00  0.00    +0.037 C 
ATOM     17  C   UNL     1      36.107 -19.818 -20.910  0.00  0.00    +0.037 C 
ATOM     18  C   UNL     1      34.984 -19.396 -21.623  0.00  0.00    +0.147 C 
BRANCH  18  19
ATOM     19  O   UNL     1      35.134 -18.629 -22.736  0.00  0.00    -0.404 OA
BRANCH  19  23
ATOM     20  F   UNL     1      34.583 -18.088 -24.889  0.00  0.00    -0.133 F 
ATOM     21  F   UNL     1      33.133 -19.148 -23.644  0.00  0.00    -0.133 F 
ATOM     22  F   UNL     1      34.899 -20.213 -24.369  0.00  0.00    -0.133 F 
ATOM     23  C   UNL     1      34.451 -19.021 -23.922  0.00  0.00    +0.575 C 
ENDBRANCH  19  23
ENDBRANCH  18  19
ENDBRANCH  10  13
BRANCH   3  24
ATOM     24  C   UNL     1      37.863 -24.500 -13.768  0.00  0.00    +0.194 C 
BRANCH  24  27
ATOM     25  N   UNL     1      37.703 -23.003 -11.868  0.00  0.00    -0.217 NA
ATOM     26  N   UNL     1      36.701 -25.192 -11.756  0.00  0.00    -0.195 NA
ATOM     27  C   UNL     1      37.391 -24.213 -12.372  0.00  0.00    +0.028 C 
ATOM     28  C   UNL     1      37.263 -22.779 -10.612  0.00  0.00    +0.164 C 
ATOM     29  C   UNL     1      36.293 -24.901 -10.504  0.00  0.00    +0.107 C 
ATOM     30  C   UNL     1      36.547 -23.699  -9.874  0.00  0.00    +0.022 C 
ENDBRANCH  24  27
ENDBRANCH   3  24
TORSDOF 5
ENDMDL
MODEL 6
REMARK VINA RESULT:      -9.5      1.434      2.155
REMARK  Name = 71183216
REMARK  5 active torsions:
REMARK  status: ('A' for Active; 'I' for Inactive)
REMARK    1  A    between atoms: N_3  and  C_24
REMARK    2  A    between atoms: C_10  and  C_13
REMARK    3  A    between atoms: C_18  and  O_19
REMARK    4  A    between atoms: O_19  and  C_23
REMARK    5  A    between atoms: C_24  and  C_27
REMARK                            x       y       z     vdW  Elec       q    Type
REMARK                         _______ _______ _______ _____ _____    ______ ____
ROOT
ATOM      1  O   UNL     1      31.182  -9.002 -19.513  0.00  0.00    -0.473 OA
ATOM      2  O   UNL     1      31.325  -8.604 -23.424  0.00  0.00    -0.270 OA
ATOM      3  N   UNL     1      32.217  -7.401 -21.633  0.00  0.00    -0.259 N 
ATOM      4  C   UNL     1      32.950  -7.450 -20.371  0.00  0.00    +0.142 C 
ATOM      5  C   UNL     1      32.065  -9.849 -21.600  0.00  0.00    +0.087 C 
ATOM      6  C   UNL     1      32.052  -7.900 -19.224  0.00  0.00    +0.227 C 
ATOM      7  C   UNL     1      31.835  -8.565 -22.306  0.00  0.00    +0.253 C 
ATOM      8  C   UNL     1      31.766 -10.001 -20.240  0.00  0.00    +0.143 C 
ATOM      9  C   UNL     1      32.561 -10.934 -22.330  0.00  0.00    +0.008 C 
ATOM     10  C   UNL     1      32.763 -12.160 -21.696  0.00  0.00    +0.000 C 
ATOM     11  C   UNL     1      31.949 -11.235 -19.616  0.00  0.00    +0.037 C 
ATOM     12  C   UNL     1      32.459 -12.311 -20.342  0.00  0.00    +0.003 C 
ENDROOT
BRANCH  10  13
ATOM     13  C   UNL     1      33.285 -13.283 -22.446  0.00  0.00    +0.000 C 
ATOM     14  C   UNL     1      34.106 -14.220 -21.819  0.00  0.00    +0.003 C 
ATOM     15  C   UNL     1      32.969 -13.425 -23.797  0.00  0.00    +0.003 C 
ATOM     16  C   UNL     1      34.610 -15.301 -22.543  0.00  0.00    +0.037 C 
ATOM     17  C   UNL     1      33.473 -14.506 -24.521  0.00  0.00    +0.037 C 
ATOM     18  C   UNL     1      34.294 -15.443 -23.894  0.00  0.00    +0.147 C 
BRANCH  18  19
ATOM     19  O   UNL     1      34.787 -16.497 -24.600  0.00  0.00    -0.404 OA
BRANCH  19  23
ATOM     20  F   UNL     1      32.986 -17.903 -24.712  0.00  0.00    -0.133 F 
ATOM     21  F   UNL     1      34.321 -18.004 -22.985  0.00  0.00    -0.133 F 
ATOM     22  F   UNL     1      35.018 -18.750 -24.917  0.00  0.00    -0.133 F 
ATOM     23  C   UNL     1      34.274 -17.796 -24.320  0.00  0.00    +0.575 C 
ENDBRANCH  19  23
ENDBRANCH  18  19
ENDBRANCH  10  13
BRANCH   3  24
ATOM     24  C   UNL     1      31.926  -6.090 -22.188  0.00  0.00    +0.194 C 
BRANCH  24  27
ATOM     25  N   UNL     1      32.184  -5.300 -24.465  0.00  0.00    -0.217 NA
ATOM     26  N   UNL     1      34.122  -5.988 -23.209  0.00  0.00    -0.195 NA
ATOM     27  C   UNL     1      32.802  -5.771 -23.365  0.00  0.00    +0.028 C 
ATOM     28  C   UNL     1      33.001  -5.025 -25.504  0.00  0.00    +0.164 C 
ATOM     29  C   UNL     1      34.879  -5.691 -24.285  0.00  0.00    +0.107 C 
ATOM     30  C   UNL     1      34.369  -5.202 -25.471  0.00  0.00    +0.022 C 
ENDBRANCH  24  27
ENDBRANCH   3  24
TORSDOF 5
ENDMDL
MODEL 7
REMARK VINA RESULT:      -9.0      4.454      7.386
REMARK  Name = 71183216
REMARK  5 active torsions:
REMARK  status: ('A' for Active; 'I' for Inactive)
REMARK    1  A    between atoms: N_3  and  C_24
REMARK    2  A    between atoms: C_10  and  C_13
REMARK    3  A    between atoms: C_18  and  O_19
REMARK    4  A    between atoms: O_19  and  C_23
REMARK    5  A    between atoms: C_24  and  C_27
REMARK                            x       y       z     vdW  Elec       q    Type
REMARK                         _______ _______ _______ _____ _____    ______ ____
ROOT
ATOM      1  O   UNL     1      34.879 -16.236 -25.048  0.00  0.00    -0.473 OA
ATOM      2  O   UNL     1      35.743 -14.807 -21.487  0.00  0.00    -0.270 OA
ATOM      3  N   UNL     1      34.137 -14.291 -23.100  0.00  0.00    -0.259 N 
ATOM      4  C   UNL     1      33.113 -14.795 -24.012  0.00  0.00    +0.142 C 
ATOM      5  C   UNL     1      34.830 -16.601 -22.658  0.00  0.00    +0.087 C 
ATOM      6  C   UNL     1      33.735 -15.400 -25.265  0.00  0.00    +0.227 C 
ATOM      7  C   UNL     1      34.947 -15.153 -22.357  0.00  0.00    +0.253 C 
ATOM      8  C   UNL     1      34.766 -17.074 -23.975  0.00  0.00    +0.143 C 
ATOM      9  C   UNL     1      34.821 -17.507 -21.592  0.00  0.00    +0.008 C 
ATOM     10  C   UNL     1      34.737 -18.876 -21.847  0.00  0.00    +0.000 C 
ATOM     11  C   UNL     1      34.704 -18.444 -24.226  0.00  0.00    +0.037 C 
ATOM     12  C   UNL     1      34.678 -19.344 -23.161  0.00  0.00    +0.003 C 
ENDROOT
BRANCH  10  13
ATOM     13  C   UNL     1      34.716 -19.815 -20.747  0.00  0.00    +0.000 C 
ATOM     14  C   UNL     1      33.500 -20.283 -20.251  0.00  0.00    +0.003 C 
ATOM     15  C   UNL     1      35.914 -20.251 -20.180  0.00  0.00    +0.003 C 
ATOM     16  C   UNL     1      33.481 -21.188 -19.189  0.00  0.00    +0.037 C 
ATOM     17  C   UNL     1      35.896 -21.155 -19.118  0.00  0.00    +0.037 C 
ATOM     18  C   UNL     1      34.679 -21.623 -18.622  0.00  0.00    +0.147 C 
BRANCH  18  19
ATOM     19  O   UNL     1      34.660 -22.504 -17.585  0.00  0.00    -0.404 OA
BRANCH  19  23
ATOM     20  F   UNL     1      32.399 -22.276 -17.322  0.00  0.00    -0.133 F 
ATOM     21  F   UNL     1      33.502 -23.630 -16.007  0.00  0.00    -0.133 F 
ATOM     22  F   UNL     1      33.197 -24.186 -18.099  0.00  0.00    -0.133 F 
ATOM     23  C   UNL     1      33.430 -23.147 -17.269  0.00  0.00    +0.575 C 
ENDBRANCH  19  23
ENDBRANCH  18  19
ENDBRANCH  10  13
BRANCH   3  24
ATOM     24  C   UNL     1      34.262 -12.849 -22.964  0.00  0.00    +0.194 C 
BRANCH  24  27
ATOM     25  N   UNL     1      32.656 -11.088 -22.524  0.00  0.00    -0.217 NA
ATOM     26  N   UNL     1      32.796 -12.981 -21.038  0.00  0.00    -0.195 NA
ATOM     27  C   UNL     1      33.165 -12.268 -22.120  0.00  0.00    +0.028 C 
ATOM     28  C   UNL     1      31.673 -10.595 -21.742  0.00  0.00    +0.164 C 
ATOM     29  C   UNL     1      31.809 -12.430 -20.302  0.00  0.00    +0.107 C 
ATOM     30  C   UNL     1      31.204 -11.227 -20.609  0.00  0.00    +0.022 C 
ENDBRANCH  24  27
ENDBRANCH   3  24
TORSDOF 5
ENDMDL
MODEL 8
REMARK VINA RESULT:      -8.9      5.705     10.760
REMARK  Name = 71183216
REMARK  5 active torsions:
REMARK  status: ('A' for Active; 'I' for Inactive)
REMARK    1  A    between atoms: N_3  and  C_24
REMARK    2  A    between atoms: C_10  and  C_13
REMARK    3  A    between atoms: C_18  and  O_19
REMARK    4  A    between atoms: O_19  and  C_23
REMARK    5  A    between atoms: C_24  and  C_27
REMARK                            x       y       z     vdW  Elec       q    Type
REMARK                         _______ _______ _______ _____ _____    ______ ____
ROOT
ATOM      1  O   UNL     1      34.452 -18.854 -23.381  0.00  0.00    -0.473 OA
ATOM      2  O   UNL     1      35.083 -16.813 -20.078  0.00  0.00    -0.270 OA
ATOM      3  N   UNL     1      36.377 -18.272 -21.361  0.00  0.00    -0.259 N 
ATOM      4  C   UNL     1      36.850 -18.638 -22.693  0.00  0.00    +0.142 C 
ATOM      5  C   UNL     1      34.822 -16.679 -22.388  0.00  0.00    +0.087 C 
ATOM      6  C   UNL     1      35.778 -19.389 -23.475  0.00  0.00    +0.227 C 
ATOM      7  C   UNL     1      35.437 -17.256 -21.168  0.00  0.00    +0.253 C 
ATOM      8  C   UNL     1      34.393 -17.490 -23.447  0.00  0.00    +0.143 C 
ATOM      9  C   UNL     1      34.640 -15.293 -22.455  0.00  0.00    +0.008 C 
ATOM     10  C   UNL     1      34.042 -14.727 -23.580  0.00  0.00    +0.000 C 
ATOM     11  C   UNL     1      33.774 -16.921 -24.560  0.00  0.00    +0.037 C 
ATOM     12  C   UNL     1      33.610 -15.538 -24.631  0.00  0.00    +0.003 C 
ENDROOT
BRANCH  10  13
ATOM     13  C   UNL     1      33.861 -13.293 -23.657  0.00  0.00    +0.000 C 
ATOM     14  C   UNL     1      33.548 -12.566 -22.508  0.00  0.00    +0.003 C 
ATOM     15  C   UNL     1      33.997 -12.638 -24.881  0.00  0.00    +0.003 C 
ATOM     16  C   UNL     1      33.373 -11.184 -22.583  0.00  0.00    +0.037 C 
ATOM     17  C   UNL     1      33.822 -11.256 -24.956  0.00  0.00    +0.037 C 
ATOM     18  C   UNL     1      33.509 -10.529 -23.807  0.00  0.00    +0.147 C 
BRANCH  18  19
ATOM     19  O   UNL     1      33.337  -9.181 -23.880  0.00  0.00    -0.404 OA
BRANCH  19  23
ATOM     20  F   UNL     1      35.598  -9.049 -23.564  0.00  0.00    -0.133 F 
ATOM     21  F   UNL     1      34.271  -7.804 -22.355  0.00  0.00    -0.133 F 
ATOM     22  F   UNL     1      34.544  -7.331 -24.471  0.00  0.00    -0.133 F 
ATOM     23  C   UNL     1      34.448  -8.342 -23.582  0.00  0.00    +0.575 C 
ENDBRANCH  19  23
ENDBRANCH  18  19
ENDBRANCH  10  13
BRANCH   3  24
ATOM     24  C   UNL     1      36.949 -18.982 -20.228  0.00  0.00    +0.194 C 
BRANCH  24  27
ATOM     25  N   UNL     1      36.523 -20.866 -18.764  0.00  0.00    -0.217 NA
ATOM     26  N   UNL     1      34.774 -20.052 -20.209  0.00  0.00    -0.195 NA
ATOM     27  C   UNL     1      36.021 -20.036 -19.699  0.00  0.00    +0.028 C 
ATOM     28  C   UNL     1      35.662 -21.801 -18.311  0.00  0.00    +0.164 C 
ATOM     29  C   UNL     1      33.967 -21.012 -19.712  0.00  0.00    +0.107 C 
ATOM     30  C   UNL     1      34.360 -21.923 -18.752  0.00  0.00    +0.022 C 
ENDBRANCH  24  27
ENDBRANCH   3  24
TORSDOF 5
ENDMDL
MODEL 9
REMARK VINA RESULT:      -8.6      2.146      3.403
REMARK  Name = 71183216
REMARK  5 active torsions:
REMARK  status: ('A' for Active; 'I' for Inactive)
REMARK    1  A    between atoms: N_3  and  C_24
REMARK    2  A    between atoms: C_10  and  C_13
REMARK    3  A    between atoms: C_18  and  O_19
REMARK    4  A    between atoms: O_19  and  C_23
REMARK    5  A    between atoms: C_24  and  C_27
REMARK                            x       y       z     vdW  Elec       q    Type
REMARK                         _______ _______ _______ _____ _____    ______ ____
ROOT
ATOM      1  O   UNL     1      31.215  -5.839 -21.001  0.00  0.00    -0.473 OA
ATOM      2  O   UNL     1      30.596  -6.889 -24.740  0.00  0.00    -0.270 OA
ATOM      3  N   UNL     1      31.830  -5.198 -23.709  0.00  0.00    -0.259 N 
ATOM      4  C   UNL     1      32.795  -4.847 -22.671  0.00  0.00    +0.142 C 
ATOM      5  C   UNL     1      31.667  -7.448 -22.749  0.00  0.00    +0.087 C 
ATOM      6  C   UNL     1      32.134  -4.779 -21.299  0.00  0.00    +0.227 C 
ATOM      7  C   UNL     1      31.314  -6.491 -23.826  0.00  0.00    +0.253 C 
ATOM      8  C   UNL     1      31.638  -7.076 -21.399  0.00  0.00    +0.143 C 
ATOM      9  C   UNL     1      32.001  -8.760 -23.102  0.00  0.00    +0.008 C 
ATOM     10  C   UNL     1      32.313  -9.687 -22.108  0.00  0.00    +0.000 C 
ATOM     11  C   UNL     1      31.928  -8.012 -20.407  0.00  0.00    +0.037 C 
ATOM     12  C   UNL     1      32.277  -9.314 -20.763  0.00  0.00    +0.003 C 
ENDROOT
BRANCH  10  13
ATOM     13  C   UNL     1      32.669 -11.042 -22.470  0.00  0.00    +0.000 C 
ATOM     14  C   UNL     1      33.487 -11.277 -23.575  0.00  0.00    +0.003 C 
ATOM     15  C   UNL     1      32.190 -12.113 -21.716  0.00  0.00    +0.003 C 
ATOM     16  C   UNL     1      33.828 -12.583 -23.925  0.00  0.00    +0.037 C 
ATOM     17  C   UNL     1      32.531 -13.420 -22.066  0.00  0.00    +0.037 C 
ATOM     18  C   UNL     1      33.350 -13.655 -23.171  0.00  0.00    +0.147 C 
BRANCH  18  19
ATOM     19  O   UNL     1      33.682 -14.930 -23.513  0.00  0.00    -0.404 OA
BRANCH  19  23
ATOM     20  F   UNL     1      34.886 -15.026 -21.571  0.00  0.00    -0.133 F 
ATOM     21  F   UNL     1      35.892 -15.388 -23.477  0.00  0.00    -0.133 F 
ATOM     22  F   UNL     1      34.516 -16.895 -22.693  0.00  0.00    -0.133 F 
ATOM     23  C   UNL     1      34.735 -15.567 -22.799  0.00  0.00    +0.575 C 
ENDBRANCH  19  23
ENDBRANCH  18  19
ENDBRANCH  10  13
BRANCH   3  24
ATOM     24  C   UNL     1      31.448  -4.156 -24.648  0.00  0.00    +0.194 C 
BRANCH  24  27
ATOM     25  N   UNL     1      33.184  -4.564 -26.290  0.00  0.00    -0.217 NA
ATOM     26  N   UNL     1      32.986  -2.389 -25.270  0.00  0.00    -0.195 NA
ATOM     27  C   UNL     1      32.616  -3.671 -25.456  0.00  0.00    +0.028 C 
ATOM     28  C   UNL     1      34.231  -4.094 -27.000  0.00  0.00    +0.164 C 
ATOM     29  C   UNL     1      34.039  -1.986 -26.011  0.00  0.00    +0.107 C 
ATOM     30  C   UNL     1      34.707  -2.803 -26.901  0.00  0.00    +0.022 C 
ENDBRANCH  24  27
ENDBRANCH   3  24
TORSDOF 5
ENDMDL
