MODEL 1
REMARK VINA RESULT:     -12.0      0.000      0.000
REMARK  Name = 44472635
REMARK  7 active torsions:
REMARK  status: ('A' for Active; 'I' for Inactive)
REMARK    1  A    between atoms: C_1  and  C_21
REMARK    2  A    between atoms: C_4  and  N_8
REMARK    3  A    between atoms: C_9  and  C_14
REMARK    4  A    between atoms: C_21  and  C_24
REMARK    5  A    between atoms: C_23  and  C_29
REMARK    6  A    between atoms: C_29  and  C_30
REMARK    7  A    between atoms: C_29  and  O_36
REMARK                            x       y       z     vdW  Elec       q    Type
REMARK                         _______ _______ _______ _____ _____    ______ ____
ROOT
ATOM      1  C   UNL     1      34.617 -15.660 -23.206  0.00  0.00    -0.024 C 
ATOM      2  C   UNL     1      34.576 -14.980 -21.989  0.00  0.00    -0.003 C 
ATOM      3  C   UNL     1      34.034 -15.093 -24.340  0.00  0.00    -0.003 C 
ATOM      4  C   UNL     1      33.371 -13.168 -23.040  0.00  0.00    +0.050 C 
ATOM      5  C   UNL     1      33.953 -13.734 -21.905  0.00  0.00    +0.014 C 
ATOM      6  C   UNL     1      33.412 -13.848 -24.258  0.00  0.00    +0.014 C 
ENDROOT
BRANCH   4   8
ATOM      7  O   UNL     1      34.473 -10.400 -23.472  0.00  0.00    -0.273 OA
ATOM      8  N   UNL     1      32.740 -11.905 -22.956  0.00  0.00    -0.283 N 
ATOM      9  C   UNL     1      33.312 -10.658 -23.168  0.00  0.00    +0.245 C 
ATOM     10  H   UNL     1      31.783 -11.912 -22.720  0.00  0.00    +0.155 HD
BRANCH   9  14
ATOM     11  O   UNL     1      30.687 -11.073 -21.011  0.00  0.00    -0.269 OA
ATOM     12  N   UNL     1      32.159  -9.354 -21.558  0.00  0.00    -0.237 N 
ATOM     13  N   UNL     1      32.945  -7.824 -19.907  0.00  0.00    -0.233 NA
ATOM     14  C   UNL     1      32.306  -9.563 -22.983  0.00  0.00    +0.158 C 
ATOM     15  C   UNL     1      32.830  -8.226 -23.488  0.00  0.00    +0.037 C 
ATOM     16  C   UNL     1      33.590  -7.635 -22.298  0.00  0.00    +0.064 C 
ATOM     17  C   UNL     1      32.884  -8.248 -21.126  0.00  0.00    +0.115 C 
ATOM     18  C   UNL     1      31.377 -10.107 -20.705  0.00  0.00    +0.256 C 
ATOM     19  C   UNL     1      31.445  -9.628 -19.300  0.00  0.00    +0.079 C 
ATOM     20  C   UNL     1      32.201  -8.557 -19.013  0.00  0.00    +0.105 C 
ENDBRANCH   9  14
ENDBRANCH   4   8
BRANCH   1  21
ATOM     21  C   UNL     1      35.280 -16.992 -23.295  0.00  0.00    +0.005 C 
BRANCH  21  24
ATOM     22  N   UNL     1      34.597 -18.629 -21.563  0.00  0.00    +0.388 N 
ATOM     23  C   UNL     1      35.227 -19.345 -20.444  0.00  0.00    -0.030 C 
ATOM     24  C   UNL     1      35.568 -17.587 -21.926  0.00  0.00    -0.057 C 
ATOM     25  C   UNL     1      36.724 -19.343 -20.753  0.00  0.00    -0.021 C 
ATOM     26  C   UNL     1      36.903 -18.314 -21.862  0.00  0.00    -0.023 C 
ATOM     27  H   UNL     1      33.713 -18.211 -21.272  0.00  0.00    -0.084 HD
ATOM     28  H   UNL     1      34.379 -19.246 -22.345  0.00  0.00    -0.084 HD
BRANCH  23  29
ATOM     29  C   UNL     1      34.656 -20.747 -20.278  0.00  0.00    +0.113 C 
BRANCH  29  30
ATOM     30  C   UNL     1      35.035 -21.364 -18.951  0.00  0.00    +0.002 C 
ATOM     31  C   UNL     1      36.344 -21.260 -18.480  0.00  0.00    -0.002 C 
ATOM     32  C   UNL     1      34.075 -22.039 -18.197  0.00  0.00    -0.002 C 
ATOM     33  C   UNL     1      36.693 -21.831 -17.257  0.00  0.00    -0.000 C 
ATOM     34  C   UNL     1      34.423 -22.610 -16.973  0.00  0.00    -0.000 C 
ATOM     35  C   UNL     1      35.732 -22.506 -16.503  0.00  0.00    -0.000 C 
ENDBRANCH  29  30
BRANCH  29  36
ATOM     36  O   UNL     1      33.233 -20.703 -20.382  0.00  0.00    -0.382 OA
ATOM     37  H   UNL     1      32.903 -21.571 -20.663  0.00  0.00    +0.211 HD
ENDBRANCH  29  36
ENDBRANCH  23  29
ENDBRANCH  21  24
ENDBRANCH   1  21
TORSDOF 7
ENDMDL
MODEL 2
REMARK VINA RESULT:     -11.7      1.534      2.638
REMARK  Name = 44472635
REMARK  7 active torsions:
REMARK  status: ('A' for Active; 'I' for Inactive)
REMARK    1  A    between atoms: C_1  and  C_21
REMARK    2  A    between atoms: C_4  and  N_8
REMARK    3  A    between atoms: C_9  and  C_14
REMARK    4  A    between atoms: C_21  and  C_24
REMARK    5  A    between atoms: C_23  and  C_29
REMARK    6  A    between atoms: C_29  and  C_30
REMARK    7  A    between atoms: C_29  and  O_36
REMARK                            x       y       z     vdW  Elec       q    Type
REMARK                         _______ _______ _______ _____ _____    ______ ____
ROOT
ATOM      1  C   UNL     1      35.291 -17.712 -22.769  0.00  0.00    -0.024 C 
ATOM      2  C   UNL     1      35.320 -16.617 -21.905  0.00  0.00    -0.003 C 
ATOM      3  C   UNL     1      34.731 -17.583 -24.040  0.00  0.00    -0.003 C 
ATOM      4  C   UNL     1      34.231 -15.264 -23.585  0.00  0.00    +0.050 C 
ATOM      5  C   UNL     1      34.790 -15.393 -22.313  0.00  0.00    +0.014 C 
ATOM      6  C   UNL     1      34.202 -16.359 -24.449  0.00  0.00    +0.014 C 
ENDROOT
BRANCH   4   8
ATOM      7  O   UNL     1      34.328 -12.556 -22.273  0.00  0.00    -0.273 OA
ATOM      8  N   UNL     1      33.693 -14.022 -24.000  0.00  0.00    -0.283 N 
ATOM      9  C   UNL     1      33.775 -12.804 -23.340  0.00  0.00    +0.245 C 
ATOM     10  H   UNL     1      33.205 -14.024 -24.855  0.00  0.00    +0.155 HD
BRANCH   9  14
ATOM     11  O   UNL     1      31.332 -10.929 -21.847  0.00  0.00    -0.269 OA
ATOM     12  N   UNL     1      33.109 -10.529 -23.295  0.00  0.00    -0.237 N 
ATOM     13  N   UNL     1      34.377  -8.513 -23.171  0.00  0.00    -0.233 NA
ATOM     14  C   UNL     1      33.074 -11.724 -24.109  0.00  0.00    +0.158 C 
ATOM     15  C   UNL     1      33.849 -11.330 -25.359  0.00  0.00    +0.037 C 
ATOM     16  C   UNL     1      34.831 -10.257 -24.881  0.00  0.00    +0.064 C 
ATOM     17  C   UNL     1      34.109  -9.655 -23.713  0.00  0.00    +0.115 C 
ATOM     18  C   UNL     1      32.253 -10.231 -22.253  0.00  0.00    +0.256 C 
ATOM     19  C   UNL     1      32.558  -8.920 -21.623  0.00  0.00    +0.079 C 
ATOM     20  C   UNL     1      33.566  -8.182 -22.111  0.00  0.00    +0.105 C 
ENDBRANCH   9  14
ENDBRANCH   4   8
BRANCH   1  21
ATOM     21  C   UNL     1      35.856 -19.021 -22.332  0.00  0.00    +0.005 C 
BRANCH  21  24
ATOM     22  N   UNL     1      34.424 -20.284 -20.751  0.00  0.00    +0.388 N 
ATOM     23  C   UNL     1      34.507 -20.763 -19.363  0.00  0.00    -0.030 C 
ATOM     24  C   UNL     1      35.536 -19.333 -20.879  0.00  0.00    -0.057 C 
ATOM     25  C   UNL     1      36.001 -20.819 -19.042  0.00  0.00    -0.021 C 
ATOM     26  C   UNL     1      36.679 -20.030 -20.155  0.00  0.00    -0.023 C 
ATOM     27  H   UNL     1      33.531 -19.820 -20.918  0.00  0.00    -0.084 HD
ATOM     28  H   UNL     1      34.483 -21.045 -21.427  0.00  0.00    -0.084 HD
BRANCH  23  29
ATOM     29  C   UNL     1      33.811 -22.106 -19.186  0.00  0.00    +0.113 C 
BRANCH  29  30
ATOM     30  C   UNL     1      33.676 -22.492 -17.731  0.00  0.00    +0.002 C 
ATOM     31  C   UNL     1      32.411 -22.680 -17.173  0.00  0.00    -0.002 C 
ATOM     32  C   UNL     1      34.816 -22.659 -16.945  0.00  0.00    -0.002 C 
ATOM     33  C   UNL     1      32.287 -23.036 -15.830  0.00  0.00    -0.000 C 
ATOM     34  C   UNL     1      34.693 -23.014 -15.602  0.00  0.00    -0.000 C 
ATOM     35  C   UNL     1      33.428 -23.203 -15.044  0.00  0.00    -0.000 C 
ENDBRANCH  29  30
BRANCH  29  36
ATOM     36  O   UNL     1      32.513 -22.057 -19.777  0.00  0.00    -0.382 OA
ATOM     37  H   UNL     1      31.847 -22.306 -19.117  0.00  0.00    +0.211 HD
ENDBRANCH  29  36
ENDBRANCH  23  29
ENDBRANCH  21  24
ENDBRANCH   1  21
TORSDOF 7
ENDMDL
MODEL 3
REMARK VINA RESULT:     -11.6      2.736      4.834
REMARK  Name = 44472635
REMARK  7 active torsions:
REMARK  status: ('A' for Active; 'I' for Inactive)
REMARK    1  A    between atoms: C_1  and  C_21
REMARK    2  A    between atoms: C_4  and  N_8
REMARK    3  A    between atoms: C_9  and  C_14
REMARK    4  A    between atoms: C_21  and  C_24
REMARK    5  A    between atoms: C_23  and  C_29
REMARK    6  A    between atoms: C_29  and  C_30
REMARK    7  A    between atoms: C_29  and  O_36
REMARK                            x       y       z     vdW  Elec       q    Type
REMARK                         _______ _______ _______ _____ _____    ______ ____
ROOT
ATOM      1  C   UNL     1      33.728 -11.907 -24.414  0.00  0.00    -0.024 C 
ATOM      2  C   UNL     1      32.874 -11.646 -23.343  0.00  0.00    -0.003 C 
ATOM      3  C   UNL     1      34.542 -10.893 -24.920  0.00  0.00    -0.003 C 
ATOM      4  C   UNL     1      33.649  -9.358 -23.282  0.00  0.00    +0.050 C 
ATOM      5  C   UNL     1      32.834 -10.371 -22.777  0.00  0.00    +0.014 C 
ATOM      6  C   UNL     1      34.504  -9.620 -24.354  0.00  0.00    +0.014 C 
ENDROOT
BRANCH   4   8
ATOM      7  O   UNL     1      31.505  -8.005 -21.659  0.00  0.00    -0.273 OA
ATOM      8  N   UNL     1      33.610  -8.066 -22.708  0.00  0.00    -0.283 N 
ATOM      9  C   UNL     1      32.581  -7.501 -21.968  0.00  0.00    +0.245 C 
ATOM     10  H   UNL     1      34.405  -7.502 -22.851  0.00  0.00    +0.155 HD
BRANCH   9  14
ATOM     11  O   UNL     1      34.648  -5.563 -23.887  0.00  0.00    -0.269 OA
ATOM     12  N   UNL     1      32.691  -5.239 -22.670  0.00  0.00    -0.237 N 
ATOM     13  N   UNL     1      31.001  -3.733 -23.420  0.00  0.00    -0.233 NA
ATOM     14  C   UNL     1      32.926  -6.107 -21.536  0.00  0.00    +0.158 C 
ATOM     15  C   UNL     1      31.960  -5.588 -20.481  0.00  0.00    +0.037 C 
ATOM     16  C   UNL     1      30.805  -4.981 -21.282  0.00  0.00    +0.064 C 
ATOM     17  C   UNL     1      31.476  -4.569 -22.557  0.00  0.00    +0.115 C 
ATOM     18  C   UNL     1      33.552  -5.038 -23.731  0.00  0.00    +0.256 C 
ATOM     19  C   UNL     1      33.011  -4.080 -24.730  0.00  0.00    +0.079 C 
ATOM     20  C   UNL     1      31.813  -3.518 -24.509  0.00  0.00    +0.105 C 
ENDBRANCH   9  14
ENDBRANCH   4   8
BRANCH   1  21
ATOM     21  C   UNL     1      33.769 -13.269 -25.021  0.00  0.00    +0.005 C 
BRANCH  21  24
ATOM     22  N   UNL     1      34.002 -15.686 -24.520  0.00  0.00    +0.388 N 
ATOM     23  C   UNL     1      34.192 -16.530 -23.331  0.00  0.00    -0.030 C 
ATOM     24  C   UNL     1      33.632 -14.369 -23.981  0.00  0.00    -0.057 C 
ATOM     25  C   UNL     1      34.788 -15.607 -22.269  0.00  0.00    -0.021 C 
ATOM     26  C   UNL     1      34.579 -14.194 -22.802  0.00  0.00    -0.023 C 
ATOM     27  H   UNL     1      33.256 -16.056 -25.109  0.00  0.00    -0.084 HD
ATOM     28  H   UNL     1      34.836 -15.646 -25.104  0.00  0.00    -0.084 HD
BRANCH  23  29
ATOM     29  C   UNL     1      35.070 -17.737 -23.630  0.00  0.00    +0.113 C 
BRANCH  29  30
ATOM     30  C   UNL     1      35.385 -18.537 -22.387  0.00  0.00    +0.002 C 
ATOM     31  C   UNL     1      34.401 -19.334 -21.802  0.00  0.00    -0.002 C 
ATOM     32  C   UNL     1      36.659 -18.476 -21.823  0.00  0.00    -0.002 C 
ATOM     33  C   UNL     1      34.691 -20.071 -20.654  0.00  0.00    -0.000 C 
ATOM     34  C   UNL     1      36.950 -19.213 -20.675  0.00  0.00    -0.000 C 
ATOM     35  C   UNL     1      35.966 -20.011 -20.091  0.00  0.00    -0.000 C 
ENDBRANCH  29  30
BRANCH  29  36
ATOM     36  O   UNL     1      34.419 -18.584 -24.577  0.00  0.00    -0.382 OA
ATOM     37  H   UNL     1      35.082 -19.121 -25.039  0.00  0.00    +0.211 HD
ENDBRANCH  29  36
ENDBRANCH  23  29
ENDBRANCH  21  24
ENDBRANCH   1  21
TORSDOF 7
ENDMDL
MODEL 4
REMARK VINA RESULT:     -11.4      3.988     12.109
REMARK  Name = 44472635
REMARK  7 active torsions:
REMARK  status: ('A' for Active; 'I' for Inactive)
REMARK    1  A    between atoms: C_1  and  C_21
REMARK    2  A    between atoms: C_4  and  N_8
REMARK    3  A    between atoms: C_9  and  C_14
REMARK    4  A    between atoms: C_21  and  C_24
REMARK    5  A    between atoms: C_23  and  C_29
REMARK    6  A    between atoms: C_29  and  C_30
REMARK    7  A    between atoms: C_29  and  O_36
REMARK                            x       y       z     vdW  Elec       q    Type
REMARK                         _______ _______ _______ _____ _____    ______ ____
ROOT
ATOM      1  C   UNL     1      35.407 -20.171 -20.224  0.00  0.00    -0.024 C 
ATOM      2  C   UNL     1      36.347 -20.824 -19.427  0.00  0.00    -0.003 C 
ATOM      3  C   UNL     1      34.047 -20.429 -20.052  0.00  0.00    -0.003 C 
ATOM      4  C   UNL     1      34.566 -21.992 -18.286  0.00  0.00    +0.050 C 
ATOM      5  C   UNL     1      35.927 -21.736 -18.458  0.00  0.00    +0.014 C 
ATOM      6  C   UNL     1      33.626 -21.338 -19.083  0.00  0.00    +0.014 C 
ENDROOT
BRANCH   4   8
ATOM      7  O   UNL     1      35.406 -22.318 -15.413  0.00  0.00    -0.273 OA
ATOM      8  N   UNL     1      34.139 -22.916 -17.303  0.00  0.00    -0.283 N 
ATOM      9  C   UNL     1      34.573 -23.012 -15.988  0.00  0.00    +0.245 C 
ATOM     10  H   UNL     1      33.455 -23.566 -17.585  0.00  0.00    +0.155 HD
BRANCH   9  14
ATOM     11  O   UNL     1      36.300 -25.817 -15.060  0.00  0.00    -0.269 OA
ATOM     12  N   UNL     1      34.674 -24.451 -14.107  0.00  0.00    -0.237 N 
ATOM     13  N   UNL     1      34.657 -23.996 -11.766  0.00  0.00    -0.233 NA
ATOM     14  C   UNL     1      33.874 -24.126 -15.268  0.00  0.00    +0.158 C 
ATOM     15  C   UNL     1      32.550 -23.669 -14.673  0.00  0.00    +0.037 C 
ATOM     16  C   UNL     1      32.918 -23.103 -13.299  0.00  0.00    +0.064 C 
ATOM     17  C   UNL     1      34.151 -23.880 -12.950  0.00  0.00    +0.115 C 
ATOM     18  C   UNL     1      35.797 -25.254 -14.094  0.00  0.00    +0.256 C 
ATOM     19  C   UNL     1      36.386 -25.389 -12.736  0.00  0.00    +0.079 C 
ATOM     20  C   UNL     1      35.793 -24.768 -11.705  0.00  0.00    +0.105 C 
ENDBRANCH   9  14
ENDBRANCH   4   8
BRANCH   1  21
ATOM     21  C   UNL     1      35.857 -19.198 -21.262  0.00  0.00    +0.005 C 
BRANCH  21  24
ATOM     22  N   UNL     1      34.881 -17.305 -22.531  0.00  0.00    +0.388 N 
ATOM     23  C   UNL     1      33.937 -17.121 -23.644  0.00  0.00    -0.030 C 
ATOM     24  C   UNL     1      34.709 -18.709 -22.131  0.00  0.00    -0.057 C 
ATOM     25  C   UNL     1      33.934 -18.452 -24.396  0.00  0.00    -0.021 C 
ATOM     26  C   UNL     1      34.615 -19.444 -23.461  0.00  0.00    -0.023 C 
ATOM     27  H   UNL     1      34.652 -16.680 -21.758  0.00  0.00    -0.084 HD
ATOM     28  H   UNL     1      35.841 -17.092 -22.798  0.00  0.00    -0.084 HD
BRANCH  23  29
ATOM     29  C   UNL     1      34.325 -15.942 -24.524  0.00  0.00    +0.113 C 
BRANCH  29  30
ATOM     30  C   UNL     1      33.960 -14.616 -23.896  0.00  0.00    +0.002 C 
ATOM     31  C   UNL     1      33.523 -13.561 -24.698  0.00  0.00    -0.002 C 
ATOM     32  C   UNL     1      34.062 -14.447 -22.515  0.00  0.00    -0.002 C 
ATOM     33  C   UNL     1      33.187 -12.338 -24.118  0.00  0.00    -0.000 C 
ATOM     34  C   UNL     1      33.727 -13.224 -21.935  0.00  0.00    -0.000 C 
ATOM     35  C   UNL     1      33.289 -12.169 -22.737  0.00  0.00    -0.000 C 
ENDBRANCH  29  30
BRANCH  29  36
ATOM     36  O   UNL     1      35.731 -15.969 -24.773  0.00  0.00    -0.382 OA
ATOM     37  H   UNL     1      36.127 -15.136 -24.474  0.00  0.00    +0.211 HD
ENDBRANCH  29  36
ENDBRANCH  23  29
ENDBRANCH  21  24
ENDBRANCH   1  21
TORSDOF 7
ENDMDL
MODEL 5
REMARK VINA RESULT:     -10.5      3.554     11.941
REMARK  Name = 44472635
REMARK  7 active torsions:
REMARK  status: ('A' for Active; 'I' for Inactive)
REMARK    1  A    between atoms: C_1  and  C_21
REMARK    2  A    between atoms: C_4  and  N_8
REMARK    3  A    between atoms: C_9  and  C_14
REMARK    4  A    between atoms: C_21  and  C_24
REMARK    5  A    between atoms: C_23  and  C_29
REMARK    6  A    between atoms: C_29  and  C_30
REMARK    7  A    between atoms: C_29  and  O_36
REMARK                            x       y       z     vdW  Elec       q    Type
REMARK                         _______ _______ _______ _____ _____    ______ ____
ROOT
ATOM      1  C   UNL     1      35.578 -19.596 -20.681  0.00  0.00    -0.024 C 
ATOM      2  C   UNL     1      36.442 -20.341 -19.877  0.00  0.00    -0.003 C 
ATOM      3  C   UNL     1      34.201 -19.804 -20.604  0.00  0.00    -0.003 C 
ATOM      4  C   UNL     1      34.550 -21.502 -18.922  0.00  0.00    +0.050 C 
ATOM      5  C   UNL     1      35.928 -21.295 -18.998  0.00  0.00    +0.014 C 
ATOM      6  C   UNL     1      33.687 -20.756 -19.725  0.00  0.00    +0.014 C 
ENDROOT
BRANCH   4   8
ATOM      7  O   UNL     1      35.434 -22.285 -16.152  0.00  0.00    -0.273 OA
ATOM      8  N   UNL     1      34.028 -22.469 -18.030  0.00  0.00    -0.283 N 
ATOM      9  C   UNL     1      34.489 -22.781 -16.759  0.00  0.00    +0.245 C 
ATOM     10  H   UNL     1      33.248 -22.978 -18.349  0.00  0.00    +0.155 HD
BRANCH   9  14
ATOM     11  O   UNL     1      36.001 -25.504 -15.338  0.00  0.00    -0.269 OA
ATOM     12  N   UNL     1      34.208 -24.114 -14.818  0.00  0.00    -0.237 N 
ATOM     13  N   UNL     1      33.707 -23.532 -12.560  0.00  0.00    -0.233 NA
ATOM     14  C   UNL     1      33.662 -23.865 -16.135  0.00  0.00    +0.158 C 
ATOM     15  C   UNL     1      32.242 -23.398 -15.852  0.00  0.00    +0.037 C 
ATOM     16  C   UNL     1      32.317 -22.752 -14.465  0.00  0.00    +0.064 C 
ATOM     17  C   UNL     1      33.455 -23.489 -13.827  0.00  0.00    +0.115 C 
ATOM     18  C   UNL     1      35.308 -24.897 -14.530  0.00  0.00    +0.256 C 
ATOM     19  C   UNL     1      35.605 -24.948 -13.074  0.00  0.00    +0.079 C 
ATOM     20  C   UNL     1      34.809 -24.282 -12.224  0.00  0.00    +0.105 C 
ENDBRANCH   9  14
ENDBRANCH   4   8
BRANCH   1  21
ATOM     21  C   UNL     1      36.127 -18.578 -21.622  0.00  0.00    +0.005 C 
BRANCH  21  24
ATOM     22  N   UNL     1      34.998 -16.372 -21.566  0.00  0.00    +0.388 N 
ATOM     23  C   UNL     1      34.204 -15.540 -22.482  0.00  0.00    -0.030 C 
ATOM     24  C   UNL     1      35.043 -17.692 -22.212  0.00  0.00    -0.057 C 
ATOM     25  C   UNL     1      34.561 -16.029 -23.886  0.00  0.00    -0.021 C 
ATOM     26  C   UNL     1      35.279 -17.357 -23.677  0.00  0.00    -0.023 C 
ATOM     27  H   UNL     1      34.547 -16.433 -20.653  0.00  0.00    -0.084 HD
ATOM     28  H   UNL     1      35.928 -15.988 -21.402  0.00  0.00    -0.084 HD
BRANCH  23  29
ATOM     29  C   UNL     1      34.481 -14.057 -22.282  0.00  0.00    +0.113 C 
BRANCH  29  30
ATOM     30  C   UNL     1      34.073 -13.232 -23.481  0.00  0.00    +0.002 C 
ATOM     31  C   UNL     1      33.574 -13.859 -24.623  0.00  0.00    -0.002 C 
ATOM     32  C   UNL     1      34.197 -11.843 -23.447  0.00  0.00    -0.002 C 
ATOM     33  C   UNL     1      33.199 -13.098 -25.729  0.00  0.00    -0.000 C 
ATOM     34  C   UNL     1      33.823 -11.081 -24.554  0.00  0.00    -0.000 C 
ATOM     35  C   UNL     1      33.323 -11.709 -25.695  0.00  0.00    -0.000 C 
ENDBRANCH  29  30
BRANCH  29  36
ATOM     36  O   UNL     1      33.777 -13.586 -21.132  0.00  0.00    -0.382 OA
ATOM     37  H   UNL     1      33.265 -12.797 -21.368  0.00  0.00    +0.211 HD
ENDBRANCH  29  36
ENDBRANCH  23  29
ENDBRANCH  21  24
ENDBRANCH   1  21
TORSDOF 7
ENDMDL
MODEL 6
REMARK VINA RESULT:     -10.3      2.986      5.285
REMARK  Name = 44472635
REMARK  7 active torsions:
REMARK  status: ('A' for Active; 'I' for Inactive)
REMARK    1  A    between atoms: C_1  and  C_21
REMARK    2  A    between atoms: C_4  and  N_8
REMARK    3  A    between atoms: C_9  and  C_14
REMARK    4  A    between atoms: C_21  and  C_24
REMARK    5  A    between atoms: C_23  and  C_29
REMARK    6  A    between atoms: C_29  and  C_30
REMARK    7  A    between atoms: C_29  and  O_36
REMARK                            x       y       z     vdW  Elec       q    Type
REMARK                         _______ _______ _______ _____ _____    ______ ____
ROOT
ATOM      1  C   UNL     1      32.825 -11.939 -22.327  0.00  0.00    -0.024 C 
ATOM      2  C   UNL     1      31.948 -11.178 -21.554  0.00  0.00    -0.003 C 
ATOM      3  C   UNL     1      33.737 -11.307 -23.173  0.00  0.00    -0.003 C 
ATOM      4  C   UNL     1      32.897  -9.154 -22.471  0.00  0.00    +0.050 C 
ATOM      5  C   UNL     1      31.984  -9.785 -21.626  0.00  0.00    +0.014 C 
ATOM      6  C   UNL     1      33.774  -9.915 -23.244  0.00  0.00    +0.014 C 
ENDROOT
BRANCH   4   8
ATOM      7  O   UNL     1      30.879  -7.198 -23.551  0.00  0.00    -0.273 OA
ATOM      8  N   UNL     1      32.935  -7.741 -22.544  0.00  0.00    -0.283 N 
ATOM      9  C   UNL     1      31.963  -6.896 -23.060  0.00  0.00    +0.245 C 
ATOM     10  H   UNL     1      33.745  -7.309 -22.187  0.00  0.00    +0.155 HD
BRANCH   9  14
ATOM     11  O   UNL     1      35.221  -6.004 -23.608  0.00  0.00    -0.269 OA
ATOM     12  N   UNL     1      33.128  -5.143 -24.151  0.00  0.00    -0.237 N 
ATOM     13  N   UNL     1      32.743  -4.044 -26.232  0.00  0.00    -0.233 NA
ATOM     14  C   UNL     1      32.382  -5.461 -22.953  0.00  0.00    +0.158 C 
ATOM     15  C   UNL     1      31.188  -4.519 -23.014  0.00  0.00    +0.037 C 
ATOM     16  C   UNL     1      30.969  -4.272 -24.509  0.00  0.00    +0.064 C 
ATOM     17  C   UNL     1      32.346  -4.453 -25.073  0.00  0.00    +0.115 C 
ATOM     18  C   UNL     1      34.459  -5.431 -24.378  0.00  0.00    +0.256 C 
ATOM     19  C   UNL     1      34.923  -4.967 -25.711  0.00  0.00    +0.079 C 
ATOM     20  C   UNL     1      34.058  -4.330 -26.516  0.00  0.00    +0.105 C 
ENDBRANCH   9  14
ENDBRANCH   4   8
BRANCH   1  21
ATOM     21  C   UNL     1      32.785 -13.428 -22.253  0.00  0.00    +0.005 C 
BRANCH  21  24
ATOM     22  N   UNL     1      34.058 -15.492 -22.766  0.00  0.00    +0.388 N 
ATOM     23  C   UNL     1      34.799 -16.050 -23.908  0.00  0.00    -0.030 C 
ATOM     24  C   UNL     1      33.854 -14.079 -23.115  0.00  0.00    -0.057 C 
ATOM     25  C   UNL     1      34.256 -15.322 -25.138  0.00  0.00    -0.021 C 
ATOM     26  C   UNL     1      33.479 -14.132 -24.589  0.00  0.00    -0.023 C 
ATOM     27  H   UNL     1      34.602 -15.576 -21.908  0.00  0.00    -0.084 HD
ATOM     28  H   UNL     1      33.180 -15.982 -22.599  0.00  0.00    -0.084 HD
BRANCH  23  29
ATOM     29  C   UNL     1      34.646 -17.561 -23.997  0.00  0.00    +0.113 C 
BRANCH  29  30
ATOM     30  C   UNL     1      35.089 -18.256 -22.729  0.00  0.00    +0.002 C 
ATOM     31  C   UNL     1      36.352 -17.999 -22.196  0.00  0.00    -0.002 C 
ATOM     32  C   UNL     1      34.233 -19.154 -22.091  0.00  0.00    -0.002 C 
ATOM     33  C   UNL     1      36.760 -18.640 -21.027  0.00  0.00    -0.000 C 
ATOM     34  C   UNL     1      34.641 -19.796 -20.922  0.00  0.00    -0.000 C 
ATOM     35  C   UNL     1      35.904 -19.539 -20.390  0.00  0.00    -0.000 C 
ENDBRANCH  29  30
BRANCH  29  36
ATOM     36  O   UNL     1      33.283 -17.893 -24.258  0.00  0.00    -0.382 OA
ATOM     37  H   UNL     1      33.074 -17.697 -25.184  0.00  0.00    +0.211 HD
ENDBRANCH  29  36
ENDBRANCH  23  29
ENDBRANCH  21  24
ENDBRANCH   1  21
TORSDOF 7
ENDMDL
MODEL 7
REMARK VINA RESULT:     -10.2      5.433      9.535
REMARK  Name = 44472635
REMARK  7 active torsions:
REMARK  status: ('A' for Active; 'I' for Inactive)
REMARK    1  A    between atoms: C_1  and  C_21
REMARK    2  A    between atoms: C_4  and  N_8
REMARK    3  A    between atoms: C_9  and  C_14
REMARK    4  A    between atoms: C_21  and  C_24
REMARK    5  A    between atoms: C_23  and  C_29
REMARK    6  A    between atoms: C_29  and  C_30
REMARK    7  A    between atoms: C_29  and  O_36
REMARK                            x       y       z     vdW  Elec       q    Type
REMARK                         _______ _______ _______ _____ _____    ______ ____
ROOT
ATOM      1  C   UNL     1      34.314 -22.939 -16.741  0.00  0.00    -0.024 C 
ATOM      2  C   UNL     1      35.608 -22.424 -16.671  0.00  0.00    -0.003 C 
ATOM      3  C   UNL     1      33.531 -22.707 -17.872  0.00  0.00    -0.003 C 
ATOM      4  C   UNL     1      35.337 -21.446 -18.864  0.00  0.00    +0.050 C 
ATOM      5  C   UNL     1      36.120 -21.677 -17.732  0.00  0.00    +0.014 C 
ATOM      6  C   UNL     1      34.043 -21.961 -18.934  0.00  0.00    +0.014 C 
ENDROOT
BRANCH   4   8
ATOM      7  O   UNL     1      33.924 -19.884 -21.015  0.00  0.00    -0.273 OA
ATOM      8  N   UNL     1      35.856 -20.689 -19.941  0.00  0.00    -0.283 N 
ATOM      9  C   UNL     1      35.141 -19.990 -20.904  0.00  0.00    +0.245 C 
ATOM     10  H   UNL     1      36.837 -20.654 -20.015  0.00  0.00    +0.155 HD
BRANCH   9  14
ATOM     11  O   UNL     1      34.563 -20.215 -24.269  0.00  0.00    -0.269 OA
ATOM     12  N   UNL     1      35.235 -18.552 -22.786  0.00  0.00    -0.237 N 
ATOM     13  N   UNL     1      34.557 -16.284 -23.079  0.00  0.00    -0.233 NA
ATOM     14  C   UNL     1      36.061 -19.314 -21.876  0.00  0.00    +0.158 C 
ATOM     15  C   UNL     1      36.918 -18.255 -21.197  0.00  0.00    +0.037 C 
ATOM     16  C   UNL     1      36.061 -16.986 -21.232  0.00  0.00    +0.064 C 
ATOM     17  C   UNL     1      35.213 -17.202 -22.448  0.00  0.00    +0.115 C 
ATOM     18  C   UNL     1      34.567 -19.050 -23.888  0.00  0.00    +0.256 C 
ATOM     19  C   UNL     1      33.808 -18.001 -24.616  0.00  0.00    +0.079 C 
ATOM     20  C   UNL     1      33.855 -16.737 -24.171  0.00  0.00    +0.105 C 
ENDBRANCH   9  14
ENDBRANCH   4   8
BRANCH   1  21
ATOM     21  C   UNL     1      33.765 -23.736 -15.606  0.00  0.00    +0.005 C 
BRANCH  21  24
ATOM     22  N   UNL     1      31.299 -23.487 -15.580  0.00  0.00    +0.388 N 
ATOM     23  C   UNL     1      30.263 -23.080 -14.618  0.00  0.00    -0.030 C 
ATOM     24  C   UNL     1      32.563 -23.068 -14.959  0.00  0.00    -0.057 C 
ATOM     25  C   UNL     1      30.891 -23.277 -13.238  0.00  0.00    -0.021 C 
ATOM     26  C   UNL     1      32.382 -23.455 -13.498  0.00  0.00    -0.023 C 
ATOM     27  H   UNL     1      31.164 -23.017 -16.475  0.00  0.00    -0.084 HD
ATOM     28  H   UNL     1      31.275 -24.488 -15.774  0.00  0.00    -0.084 HD
BRANCH  23  29
ATOM     29  C   UNL     1      28.977 -23.872 -14.804  0.00  0.00    +0.113 C 
BRANCH  29  30
ATOM     30  C   UNL     1      27.929 -23.090 -15.563  0.00  0.00    +0.002 C 
ATOM     31  C   UNL     1      27.932 -23.088 -16.958  0.00  0.00    -0.002 C 
ATOM     32  C   UNL     1      26.958 -22.369 -14.867  0.00  0.00    -0.002 C 
ATOM     33  C   UNL     1      26.966 -22.366 -17.657  0.00  0.00    -0.000 C 
ATOM     34  C   UNL     1      25.992 -21.645 -15.566  0.00  0.00    -0.000 C 
ATOM     35  C   UNL     1      25.995 -21.644 -16.961  0.00  0.00    -0.000 C 
ENDBRANCH  29  30
BRANCH  29  36
ATOM     36  O   UNL     1      29.254 -25.083 -15.508  0.00  0.00    -0.382 OA
ATOM     37  H   UNL     1      30.204 -25.137 -15.696  0.00  0.00    +0.211 HD
ENDBRANCH  29  36
ENDBRANCH  23  29
ENDBRANCH  21  24
ENDBRANCH   1  21
TORSDOF 7
ENDMDL
MODEL 8
REMARK VINA RESULT:     -10.2      4.716     12.900
REMARK  Name = 44472635
REMARK  7 active torsions:
REMARK  status: ('A' for Active; 'I' for Inactive)
REMARK    1  A    between atoms: C_1  and  C_21
REMARK    2  A    between atoms: C_4  and  N_8
REMARK    3  A    between atoms: C_9  and  C_14
REMARK    4  A    between atoms: C_21  and  C_24
REMARK    5  A    between atoms: C_23  and  C_29
REMARK    6  A    between atoms: C_29  and  C_30
REMARK    7  A    between atoms: C_29  and  O_36
REMARK                            x       y       z     vdW  Elec       q    Type
REMARK                         _______ _______ _______ _____ _____    ______ ____
ROOT
ATOM      1  C   UNL     1      33.518 -21.722 -18.510  0.00  0.00    -0.024 C 
ATOM      2  C   UNL     1      32.596 -22.388 -17.703  0.00  0.00    -0.003 C 
ATOM      3  C   UNL     1      34.879 -21.780 -18.207  0.00  0.00    -0.003 C 
ATOM      4  C   UNL     1      34.396 -23.169 -16.292  0.00  0.00    +0.050 C 
ATOM      5  C   UNL     1      33.034 -23.111 -16.593  0.00  0.00    +0.014 C 
ATOM      6  C   UNL     1      35.318 -22.503 -17.099  0.00  0.00    +0.014 C 
ENDROOT
BRANCH   4   8
ATOM      7  O   UNL     1      36.170 -22.350 -14.001  0.00  0.00    -0.273 OA
ATOM      8  N   UNL     1      34.841 -23.903 -15.166  0.00  0.00    -0.283 N 
ATOM      9  C   UNL     1      35.666 -23.460 -14.142  0.00  0.00    +0.245 C 
ATOM     10  H   UNL     1      34.529 -24.835 -15.104  0.00  0.00    +0.155 HD
BRANCH   9  14
ATOM     11  O   UNL     1      36.386 -26.645 -15.168  0.00  0.00    -0.269 OA
ATOM     12  N   UNL     1      37.137 -25.205 -13.500  0.00  0.00    -0.237 N 
ATOM     13  N   UNL     1      39.425 -25.176 -12.827  0.00  0.00    -0.233 NA
ATOM     14  C   UNL     1      35.904 -24.543 -13.133  0.00  0.00    +0.158 C 
ATOM     15  C   UNL     1      36.200 -23.973 -11.753  0.00  0.00    +0.037 C 
ATOM     16  C   UNL     1      37.712 -23.734 -11.752  0.00  0.00    +0.064 C 
ATOM     17  C   UNL     1      38.204 -24.765 -12.721  0.00  0.00    +0.115 C 
ATOM     18  C   UNL     1      37.278 -26.183 -14.465  0.00  0.00    +0.256 C 
ATOM     19  C   UNL     1      38.680 -26.657 -14.594  0.00  0.00    +0.079 C 
ATOM     20  C   UNL     1      39.621 -26.135 -13.793  0.00  0.00    +0.105 C 
ENDBRANCH   9  14
ENDBRANCH   4   8
BRANCH   1  21
ATOM     21  C   UNL     1      33.050 -20.947 -19.695  0.00  0.00    +0.005 C 
BRANCH  21  24
ATOM     22  N   UNL     1      34.120 -19.069 -20.908  0.00  0.00    +0.388 N 
ATOM     23  C   UNL     1      35.459 -18.731 -21.415  0.00  0.00    -0.030 C 
ATOM     24  C   UNL     1      34.199 -20.500 -20.584  0.00  0.00    -0.057 C 
ATOM     25  C   UNL     1      36.428 -19.589 -20.601  0.00  0.00    -0.021 C 
ATOM     26  C   UNL     1      35.558 -20.633 -19.912  0.00  0.00    -0.023 C 
ATOM     27  H   UNL     1      33.412 -18.900 -21.622  0.00  0.00    -0.084 HD
ATOM     28  H   UNL     1      33.857 -18.502 -20.102  0.00  0.00    -0.084 HD
BRANCH  23  29
ATOM     29  C   UNL     1      35.746 -17.241 -21.302  0.00  0.00    +0.113 C 
BRANCH  29  30
ATOM     30  C   UNL     1      35.070 -16.444 -22.394  0.00  0.00    +0.002 C 
ATOM     31  C   UNL     1      34.851 -17.021 -23.645  0.00  0.00    -0.002 C 
ATOM     32  C   UNL     1      34.665 -15.132 -22.151  0.00  0.00    -0.002 C 
ATOM     33  C   UNL     1      34.227 -16.285 -24.652  0.00  0.00    -0.000 C 
ATOM     34  C   UNL     1      34.042 -14.395 -23.158  0.00  0.00    -0.000 C 
ATOM     35  C   UNL     1      33.823 -14.973 -24.409  0.00  0.00    -0.000 C 
ENDBRANCH  29  30
BRANCH  29  36
ATOM     36  O   UNL     1      35.304 -16.760 -20.032  0.00  0.00    -0.382 OA
ATOM     37  H   UNL     1      35.609 -15.847 -19.909  0.00  0.00    +0.211 HD
ENDBRANCH  29  36
ENDBRANCH  23  29
ENDBRANCH  21  24
ENDBRANCH   1  21
TORSDOF 7
ENDMDL
MODEL 9
REMARK VINA RESULT:     -10.1      4.925     13.035
REMARK  Name = 44472635
REMARK  7 active torsions:
REMARK  status: ('A' for Active; 'I' for Inactive)
REMARK    1  A    between atoms: C_1  and  C_21
REMARK    2  A    between atoms: C_4  and  N_8
REMARK    3  A    between atoms: C_9  and  C_14
REMARK    4  A    between atoms: C_21  and  C_24
REMARK    5  A    between atoms: C_23  and  C_29
REMARK    6  A    between atoms: C_29  and  C_30
REMARK    7  A    between atoms: C_29  and  O_36
REMARK                            x       y       z     vdW  Elec       q    Type
REMARK                         _______ _______ _______ _____ _____    ______ ____
ROOT
ATOM      1  C   UNL     1      34.972 -21.703 -18.226  0.00  0.00    -0.024 C 
ATOM      2  C   UNL     1      34.349 -22.446 -17.223  0.00  0.00    -0.003 C 
ATOM      3  C   UNL     1      36.348 -21.477 -18.174  0.00  0.00    -0.003 C 
ATOM      4  C   UNL     1      36.478 -22.738 -16.118  0.00  0.00    +0.050 C 
ATOM      5  C   UNL     1      35.102 -22.963 -16.169  0.00  0.00    +0.014 C 
ATOM      6  C   UNL     1      37.100 -21.995 -17.121  0.00  0.00    +0.014 C 
ENDROOT
BRANCH   4   8
ATOM      7  O   UNL     1      36.707 -25.554 -15.077  0.00  0.00    -0.273 OA
ATOM      8  N   UNL     1      37.241 -23.263 -15.048  0.00  0.00    -0.283 N 
ATOM      9  C   UNL     1      37.299 -24.581 -14.619  0.00  0.00    +0.245 C 
ATOM     10  H   UNL     1      37.796 -22.617 -14.552  0.00  0.00    +0.155 HD
BRANCH   9  14
ATOM     11  O   UNL     1      37.572 -22.078 -12.301  0.00  0.00    -0.269 OA
ATOM     12  N   UNL     1      37.474 -24.403 -12.261  0.00  0.00    -0.237 N 
ATOM     13  N   UNL     1      36.362 -25.566 -10.501  0.00  0.00    -0.233 NA
ATOM     14  C   UNL     1      38.229 -24.729 -13.452  0.00  0.00    +0.158 C 
ATOM     15  C   UNL     1      38.632 -26.181 -13.234  0.00  0.00    +0.037 C 
ATOM     16  C   UNL     1      37.530 -26.757 -12.341  0.00  0.00    +0.064 C 
ATOM     17  C   UNL     1      37.056 -25.549 -11.591  0.00  0.00    +0.115 C 
ATOM     18  C   UNL     1      37.213 -23.132 -11.789  0.00  0.00    +0.256 C 
ATOM     19  C   UNL     1      36.412 -23.143 -10.537  0.00  0.00    +0.079 C 
ATOM     20  C   UNL     1      36.055 -24.321 -10.003  0.00  0.00    +0.105 C 
ENDBRANCH   9  14
ENDBRANCH   4   8
BRANCH   1  21
ATOM     21  C   UNL     1      34.168 -21.148 -19.352  0.00  0.00    +0.005 C 
BRANCH  21  24
ATOM     22  N   UNL     1      34.592 -19.067 -20.632  0.00  0.00    +0.388 N 
ATOM     23  C   UNL     1      35.725 -18.438 -21.328  0.00  0.00    -0.030 C 
ATOM     24  C   UNL     1      35.031 -20.449 -20.390  0.00  0.00    -0.057 C 
ATOM     25  C   UNL     1      36.977 -19.068 -20.716  0.00  0.00    -0.021 C 
ATOM     26  C   UNL     1      36.478 -20.285 -19.947  0.00  0.00    -0.023 C 
ATOM     27  H   UNL     1      33.758 -19.052 -21.217  0.00  0.00    -0.084 HD
ATOM     28  H   UNL     1      34.348 -18.581 -19.770  0.00  0.00    -0.084 HD
BRANCH  23  29
ATOM     29  C   UNL     1      35.698 -16.922 -21.193  0.00  0.00    +0.113 C 
BRANCH  29  30
ATOM     30  C   UNL     1      35.020 -16.256 -22.370  0.00  0.00    +0.002 C 
ATOM     31  C   UNL     1      34.581 -14.937 -22.267  0.00  0.00    -0.002 C 
ATOM     32  C   UNL     1      34.834 -16.963 -23.558  0.00  0.00    -0.002 C 
ATOM     33  C   UNL     1      33.955 -14.324 -23.352  0.00  0.00    -0.000 C 
ATOM     34  C   UNL     1      34.208 -16.351 -24.643  0.00  0.00    -0.000 C 
ATOM     35  C   UNL     1      33.769 -15.030 -24.541  0.00  0.00    -0.000 C 
ENDBRANCH  29  30
BRANCH  29  36
ATOM     36  O   UNL     1      35.015 -16.556 -19.995  0.00  0.00    -0.382 OA
ATOM     37  H   UNL     1      35.219 -15.634 -19.775  0.00  0.00    +0.211 HD
ENDBRANCH  29  36
ENDBRANCH  23  29
ENDBRANCH  21  24
ENDBRANCH   1  21
TORSDOF 7
ENDMDL
