MODEL 1
REMARK VINA RESULT:     -11.4      0.000      0.000
REMARK  Name = 104758
REMARK  11 active torsions:
REMARK  status: ('A' for Active; 'I' for Inactive)
REMARK    1  A    between atoms: C_2  and  N_21
REMARK    2  A    between atoms: C_3  and  C_8
REMARK    3  A    between atoms: N_7  and  CA_10
REMARK    4  A    between atoms: CA_10  and  C_12
REMARK    5  A    between atoms: CA_10  and  CB_15
REMARK    6  A    between atoms: C_12  and  O_13
REMARK    7  A    between atoms: CB_15  and  CG_16
REMARK    8  A    between atoms: CG_16  and  CD_18
REMARK    9  A    between atoms: CD_18  and  OE1_19
REMARK   10  A    between atoms: N_21  and  C_23
REMARK   11  A    between atoms: C_23  and  C_27
REMARK                            x       y       z     vdW  Elec       q    Type
REMARK                         _______ _______ _______ _____ _____    ______ ____
ROOT
ATOM      1  S   UNL     1      34.249 -16.005 -24.156  0.00  0.00    -0.068 S 
ATOM      2  C   UNL     1      34.835 -16.890 -22.812  0.00  0.00    +0.079 C 
ATOM      3  C   UNL     1      34.207 -14.553 -23.251  0.00  0.00    +0.084 C 
ATOM      4  C   UNL     1      34.993 -16.094 -21.699  0.00  0.00    +0.022 C 
ATOM      5  C   UNL     1      34.630 -14.741 -21.954  0.00  0.00    +0.013 C 
ENDROOT
BRANCH   3   8
ATOM      6  O   UNL     1      33.265 -13.311 -25.034  0.00  0.00    -0.270 OA
ATOM      7  N   UNL     1      33.930 -12.146 -23.170  0.00  0.00    -0.293 N 
ATOM      8  C   ACE A   0      33.763 -13.353 -23.883  0.00  0.00    +0.252 C 
ATOM      9  H   UNL     1      34.322 -12.190 -22.268  0.00  0.00    +0.150 HD
BRANCH   7  10
ATOM     10  CA  UNL     1      33.558 -10.850 -23.690  0.00  0.00    +0.172 C 
BRANCH  10  12
ATOM     11  OXT UNL     1      35.016 -10.421 -25.592  0.00  0.00    -0.248 OA
ATOM     12  C   UNL     1      34.766 -10.278 -24.403  0.00  0.00    +0.332 C 
BRANCH  12  13
ATOM     13  O   UNL     1      35.543  -9.538 -23.570  0.00  0.00    -0.479 OA
ATOM     14  H   UNL     1      35.263  -9.372 -22.691  0.00  0.00    +0.295 HD
ENDBRANCH  12  13
ENDBRANCH  10  12
BRANCH  10  15
ATOM     15  CB  UNL     1      32.981  -9.924 -22.613  0.00  0.00    +0.043 C 
BRANCH  15  16
ATOM     16  CG  UNL     1      31.570 -10.271 -22.119  0.00  0.00    +0.112 C 
BRANCH  16  18
ATOM     17  OE2 UNL     1      31.558 -10.630 -19.708  0.00  0.00    -0.250 OA
ATOM     18  CD  UNL     1      31.554 -11.085 -20.843  0.00  0.00    +0.314 C 
BRANCH  18  19
ATOM     19  OE1 UNL     1      31.577 -12.420 -21.102  0.00  0.00    -0.480 OA
ATOM     20  HE1 UNL     1      31.386 -12.733 -21.965  0.00  0.00    +0.295 HD
ENDBRANCH  18  19
ENDBRANCH  16  18
ENDBRANCH  15  16
ENDBRANCH  10  15
ENDBRANCH   7  10
ENDBRANCH   3   8
BRANCH   2  21
ATOM     21  N   UNL     1      35.099 -18.251 -22.899  0.00  0.00    -0.297 N 
ATOM     22  C   UNL     1      34.598 -19.042 -24.025  0.00  0.00    +0.113 C 
BRANCH  21  23
ATOM     23  C   UNL     1      35.879 -18.947 -21.899  0.00  0.00    +0.118 C 
BRANCH  23  27
ATOM     24  O   UNL     1      36.503 -22.055 -17.836  0.00  0.00    -0.209 OA
ATOM     25  N   UNL     1      32.533 -21.894 -18.370  0.00  0.00    -0.290 N 
ATOM     26  N   UNL     1      34.415 -22.714 -17.158  0.00  0.00    -0.322 NA
ATOM     27  C   UNL     1      34.998 -19.719 -20.977  0.00  0.00    -0.002 C 
ATOM     28  C   UNL     1      34.724 -21.198 -19.090  0.00  0.00    +0.108 C 
ATOM     29  C   UNL     1      35.559 -20.479 -19.949  0.00  0.00    +0.011 C 
ATOM     30  C   UNL     1      33.332 -21.162 -19.250  0.00  0.00    +0.062 C 
ATOM     31  C   UNL     1      33.612 -19.679 -21.142  0.00  0.00    -0.001 C 
ATOM     32  C   UNL     1      32.781 -20.398 -20.282  0.00  0.00    +0.015 C 
ATOM     33  C   UNL     1      35.285 -22.020 -17.982  0.00  0.00    +0.207 C 
ATOM     34  C   UNL     1      33.135 -22.628 -17.375  0.00  0.00    +0.174 C 
ATOM     35  C   UNL     1      32.217 -23.398 -16.457  0.00  0.00    +0.085 C 
ATOM     36  H   UNL     1      31.553 -21.885 -18.460  0.00  0.00    +0.154 HD
ENDBRANCH  23  27
ENDBRANCH  21  23
ENDBRANCH   2  21
TORSDOF 11
ENDMDL
MODEL 2
REMARK VINA RESULT:     -11.2      1.133      1.684
REMARK  Name = 104758
REMARK  11 active torsions:
REMARK  status: ('A' for Active; 'I' for Inactive)
REMARK    1  A    between atoms: C_2  and  N_21
REMARK    2  A    between atoms: C_3  and  C_8
REMARK    3  A    between atoms: N_7  and  CA_10
REMARK    4  A    between atoms: CA_10  and  C_12
REMARK    5  A    between atoms: CA_10  and  CB_15
REMARK    6  A    between atoms: C_12  and  O_13
REMARK    7  A    between atoms: CB_15  and  CG_16
REMARK    8  A    between atoms: CG_16  and  CD_18
REMARK    9  A    between atoms: CD_18  and  OE1_19
REMARK   10  A    between atoms: N_21  and  C_23
REMARK   11  A    between atoms: C_23  and  C_27
REMARK                            x       y       z     vdW  Elec       q    Type
REMARK                         _______ _______ _______ _____ _____    ______ ____
ROOT
ATOM      1  S   UNL     1      34.476 -15.722 -24.043  0.00  0.00    -0.068 S 
ATOM      2  C   UNL     1      34.960 -16.610 -22.661  0.00  0.00    +0.079 C 
ATOM      3  C   UNL     1      34.204 -14.313 -23.109  0.00  0.00    +0.084 C 
ATOM      4  C   UNL     1      34.914 -15.848 -21.515  0.00  0.00    +0.022 C 
ATOM      5  C   UNL     1      34.477 -14.517 -21.775  0.00  0.00    +0.013 C 
ENDROOT
BRANCH   3   8
ATOM      6  O   UNL     1      33.227 -13.110 -24.901  0.00  0.00    -0.270 OA
ATOM      7  N   UNL     1      33.924 -11.905 -23.074  0.00  0.00    -0.293 N 
ATOM      8  C   ACE A   0      33.746 -13.128 -23.758  0.00  0.00    +0.252 C 
ATOM      9  H   UNL     1      34.333 -11.930 -22.179  0.00  0.00    +0.150 HD
BRANCH   7  10
ATOM     10  CA  UNL     1      33.540 -10.621 -23.614  0.00  0.00    +0.172 C 
BRANCH  10  12
ATOM     11  OXT UNL     1      35.078 -10.237 -25.462  0.00  0.00    -0.248 OA
ATOM     12  C   UNL     1      34.755 -10.031 -24.300  0.00  0.00    +0.332 C 
BRANCH  12  13
ATOM     13  O   UNL     1      35.445  -9.196 -23.480  0.00  0.00    -0.479 OA
ATOM     14  H   UNL     1      35.322  -8.269 -23.543  0.00  0.00    +0.295 HD
ENDBRANCH  12  13
ENDBRANCH  10  12
BRANCH  10  15
ATOM     15  CB  UNL     1      32.917  -9.699 -22.559  0.00  0.00    +0.043 C 
BRANCH  15  16
ATOM     16  CG  UNL     1      31.513 -10.087 -22.076  0.00  0.00    +0.112 C 
BRANCH  16  18
ATOM     17  OE2 UNL     1      31.539 -10.480 -19.672  0.00  0.00    -0.250 OA
ATOM     18  CD  UNL     1      31.512 -10.919 -20.813  0.00  0.00    +0.314 C 
BRANCH  18  19
ATOM     19  OE1 UNL     1      31.519 -12.250 -21.090  0.00  0.00    -0.480 OA
ATOM     20  HE1 UNL     1      31.346 -12.548 -21.963  0.00  0.00    +0.295 HD
ENDBRANCH  18  19
ENDBRANCH  16  18
ENDBRANCH  15  16
ENDBRANCH  10  15
ENDBRANCH   7  10
ENDBRANCH   3   8
BRANCH   2  21
ATOM     21  N   UNL     1      35.343 -17.942 -22.753  0.00  0.00    -0.297 N 
ATOM     22  C   UNL     1      34.608 -18.876 -23.608  0.00  0.00    +0.113 C 
BRANCH  21  23
ATOM     23  C   UNL     1      36.476 -18.468 -22.023  0.00  0.00    +0.118 C 
BRANCH  23  27
ATOM     24  O   UNL     1      32.009 -20.442 -20.378  0.00  0.00    -0.209 OA
ATOM     25  N   UNL     1      34.772 -22.111 -18.002  0.00  0.00    -0.290 N 
ATOM     26  N   UNL     1      32.490 -21.858 -18.642  0.00  0.00    -0.322 NA
ATOM     27  C   UNL     1      36.034 -19.424 -20.967  0.00  0.00    -0.002 C 
ATOM     28  C   UNL     1      34.275 -20.619 -19.827  0.00  0.00    +0.108 C 
ATOM     29  C   UNL     1      34.678 -19.723 -20.820  0.00  0.00    +0.011 C 
ATOM     30  C   UNL     1      35.217 -21.220 -18.981  0.00  0.00    +0.062 C 
ATOM     31  C   UNL     1      36.977 -20.018 -20.127  0.00  0.00    -0.001 C 
ATOM     32  C   UNL     1      36.571 -20.914 -19.136  0.00  0.00    +0.015 C 
ATOM     33  C   UNL     1      32.838 -20.964 -19.639  0.00  0.00    +0.207 C 
ATOM     34  C   UNL     1      33.426 -22.370 -17.897  0.00  0.00    +0.174 C 
ATOM     35  C   UNL     1      33.010 -23.342 -16.819  0.00  0.00    +0.085 C 
ATOM     36  H   UNL     1      35.414 -22.547 -17.395  0.00  0.00    +0.154 HD
ENDBRANCH  23  27
ENDBRANCH  21  23
ENDBRANCH   2  21
TORSDOF 11
ENDMDL
MODEL 3
REMARK VINA RESULT:     -11.0      3.461     10.942
REMARK  Name = 104758
REMARK  11 active torsions:
REMARK  status: ('A' for Active; 'I' for Inactive)
REMARK    1  A    between atoms: C_2  and  N_21
REMARK    2  A    between atoms: C_3  and  C_8
REMARK    3  A    between atoms: N_7  and  CA_10
REMARK    4  A    between atoms: CA_10  and  C_12
REMARK    5  A    between atoms: CA_10  and  CB_15
REMARK    6  A    between atoms: C_12  and  O_13
REMARK    7  A    between atoms: CB_15  and  CG_16
REMARK    8  A    between atoms: CG_16  and  CD_18
REMARK    9  A    between atoms: CD_18  and  OE1_19
REMARK   10  A    between atoms: N_21  and  C_23
REMARK   11  A    between atoms: C_23  and  C_27
REMARK                            x       y       z     vdW  Elec       q    Type
REMARK                         _______ _______ _______ _____ _____    ______ ____
ROOT
ATOM      1  S   UNL     1      35.117 -21.263 -19.111  0.00  0.00    -0.068 S 
ATOM      2  C   UNL     1      34.773 -20.116 -20.335  0.00  0.00    +0.079 C 
ATOM      3  C   UNL     1      33.454 -21.605 -18.889  0.00  0.00    +0.084 C 
ATOM      4  C   UNL     1      33.420 -19.998 -20.566  0.00  0.00    +0.022 C 
ATOM      5  C   UNL     1      32.657 -20.861 -19.729  0.00  0.00    +0.013 C 
ENDROOT
BRANCH   3   8
ATOM      6  O   UNL     1      33.671 -23.656 -17.722  0.00  0.00    -0.270 OA
ATOM      7  N   UNL     1      31.920 -22.289 -17.141  0.00  0.00    -0.293 N 
ATOM      8  C   ACE A   0      33.069 -22.571 -17.911  0.00  0.00    +0.252 C 
ATOM      9  H   UNL     1      31.454 -21.435 -17.297  0.00  0.00    +0.150 HD
BRANCH   7  10
ATOM     10  CA  UNL     1      31.389 -23.181 -16.136  0.00  0.00    +0.172 C 
BRANCH  10  12
ATOM     11  OXT UNL     1      29.251 -22.092 -16.549  0.00  0.00    -0.248 OA
ATOM     12  C   UNL     1      29.878 -23.075 -16.180  0.00  0.00    +0.332 C 
BRANCH  12  13
ATOM     13  O   UNL     1      29.278 -24.231 -15.794  0.00  0.00    -0.479 OA
ATOM     14  H   UNL     1      29.331 -24.993 -16.338  0.00  0.00    +0.295 HD
ENDBRANCH  12  13
ENDBRANCH  10  12
BRANCH  10  15
ATOM     15  CB  UNL     1      31.986 -22.929 -14.746  0.00  0.00    +0.043 C 
BRANCH  15  16
ATOM     16  CG  UNL     1      32.225 -24.176 -13.884  0.00  0.00    +0.112 C 
BRANCH  16  18
ATOM     17  OE2 UNL     1      30.725 -24.015 -11.970  0.00  0.00    -0.250 OA
ATOM     18  CD  UNL     1      31.042 -24.556 -13.021  0.00  0.00    +0.314 C 
BRANCH  18  19
ATOM     19  OE1 UNL     1      30.370 -25.621 -13.533  0.00  0.00    -0.480 OA
ATOM     20  HE1 UNL     1      30.431 -26.458 -13.115  0.00  0.00    +0.295 HD
ENDBRANCH  18  19
ENDBRANCH  16  18
ENDBRANCH  15  16
ENDBRANCH  10  15
ENDBRANCH   7  10
ENDBRANCH   3   8
BRANCH   2  21
ATOM     21  N   UNL     1      35.786 -19.419 -20.980  0.00  0.00    -0.297 N 
ATOM     22  C   UNL     1      37.096 -19.245 -20.350  0.00  0.00    +0.113 C 
BRANCH  21  23
ATOM     23  C   UNL     1      35.604 -18.841 -22.294  0.00  0.00    +0.118 C 
BRANCH  23  27
ATOM     24  O   UNL     1      33.921 -15.195 -25.524  0.00  0.00    -0.209 OA
ATOM     25  N   UNL     1      33.967 -13.406 -21.937  0.00  0.00    -0.290 N 
ATOM     26  N   UNL     1      33.541 -13.308 -24.281  0.00  0.00    -0.322 NA
ATOM     27  C   UNL     1      35.176 -17.415 -22.196  0.00  0.00    -0.002 C 
ATOM     28  C   UNL     1      34.370 -15.394 -23.238  0.00  0.00    +0.108 C 
ATOM     29  C   UNL     1      34.769 -16.729 -23.341  0.00  0.00    +0.011 C 
ATOM     30  C   UNL     1      34.374 -14.741 -21.997  0.00  0.00    +0.062 C 
ATOM     31  C   UNL     1      35.183 -16.770 -20.958  0.00  0.00    -0.001 C 
ATOM     32  C   UNL     1      34.784 -15.437 -20.857  0.00  0.00    +0.015 C 
ATOM     33  C   UNL     1      33.927 -14.628 -24.436  0.00  0.00    +0.207 C 
ATOM     34  C   UNL     1      33.577 -12.774 -23.094  0.00  0.00    +0.174 C 
ATOM     35  C   UNL     1      33.149 -11.332 -22.963  0.00  0.00    +0.085 C 
ATOM     36  H   UNL     1      33.961 -12.924 -21.079  0.00  0.00    +0.154 HD
ENDBRANCH  23  27
ENDBRANCH  21  23
ENDBRANCH   2  21
TORSDOF 11
ENDMDL
MODEL 4
REMARK VINA RESULT:     -10.9      2.967     10.767
REMARK  Name = 104758
REMARK  11 active torsions:
REMARK  status: ('A' for Active; 'I' for Inactive)
REMARK    1  A    between atoms: C_2  and  N_21
REMARK    2  A    between atoms: C_3  and  C_8
REMARK    3  A    between atoms: N_7  and  CA_10
REMARK    4  A    between atoms: CA_10  and  C_12
REMARK    5  A    between atoms: CA_10  and  CB_15
REMARK    6  A    between atoms: C_12  and  O_13
REMARK    7  A    between atoms: CB_15  and  CG_16
REMARK    8  A    between atoms: CG_16  and  CD_18
REMARK    9  A    between atoms: CD_18  and  OE1_19
REMARK   10  A    between atoms: N_21  and  C_23
REMARK   11  A    between atoms: C_23  and  C_27
REMARK                            x       y       z     vdW  Elec       q    Type
REMARK                         _______ _______ _______ _____ _____    ______ ____
ROOT
ATOM      1  S   UNL     1      35.141 -21.384 -19.191  0.00  0.00    -0.068 S 
ATOM      2  C   UNL     1      34.790 -20.147 -20.321  0.00  0.00    +0.079 C 
ATOM      3  C   UNL     1      33.477 -21.685 -18.922  0.00  0.00    +0.084 C 
ATOM      4  C   UNL     1      33.434 -19.968 -20.487  0.00  0.00    +0.022 C 
ATOM      5  C   UNL     1      32.674 -20.860 -19.677  0.00  0.00    +0.013 C 
ENDROOT
BRANCH   3   8
ATOM      6  O   UNL     1      33.508 -23.886 -18.045  0.00  0.00    -0.270 OA
ATOM      7  N   UNL     1      32.175 -22.345 -16.986  0.00  0.00    -0.293 N 
ATOM      8  C   ACE A   0      33.096 -22.701 -17.995  0.00  0.00    +0.252 C 
ATOM      9  H   UNL     1      31.858 -21.413 -16.955  0.00  0.00    +0.150 HD
BRANCH   7  10
ATOM     10  CA  UNL     1      31.673 -23.269 -15.995  0.00  0.00    +0.172 C 
BRANCH  10  12
ATOM     11  OXT UNL     1      29.500 -22.470 -16.750  0.00  0.00    -0.248 OA
ATOM     12  C   UNL     1      30.160 -23.247 -16.073  0.00  0.00    +0.332 C 
BRANCH  12  13
ATOM     13  O   UNL     1      29.600 -24.229 -15.321  0.00  0.00    -0.479 OA
ATOM     14  H   UNL     1      30.074 -24.598 -14.601  0.00  0.00    +0.295 HD
ENDBRANCH  12  13
ENDBRANCH  10  12
BRANCH  10  15
ATOM     15  CB  UNL     1      32.225 -22.991 -14.592  0.00  0.00    +0.043 C 
BRANCH  15  16
ATOM     16  CG  UNL     1      33.334 -23.934 -14.110  0.00  0.00    +0.112 C 
BRANCH  16  18
ATOM     17  OE2 UNL     1      35.361 -24.358 -15.395  0.00  0.00    -0.250 OA
ATOM     18  CD  UNL     1      34.697 -23.615 -14.685  0.00  0.00    +0.314 C 
BRANCH  18  19
ATOM     19  OE1 UNL     1      35.136 -22.393 -14.284  0.00  0.00    -0.480 OA
ATOM     20  HE1 UNL     1      36.050 -22.252 -14.124  0.00  0.00    +0.295 HD
ENDBRANCH  18  19
ENDBRANCH  16  18
ENDBRANCH  15  16
ENDBRANCH  10  15
ENDBRANCH   7  10
ENDBRANCH   3   8
BRANCH   2  21
ATOM     21  N   UNL     1      35.800 -19.441 -20.961  0.00  0.00    -0.297 N 
ATOM     22  C   UNL     1      37.105 -19.256 -20.323  0.00  0.00    +0.113 C 
BRANCH  21  23
ATOM     23  C   UNL     1      35.621 -18.865 -22.276  0.00  0.00    +0.118 C 
BRANCH  23  27
ATOM     24  O   UNL     1      33.929 -15.231 -25.514  0.00  0.00    -0.209 OA
ATOM     25  N   UNL     1      33.975 -13.432 -21.932  0.00  0.00    -0.290 N 
ATOM     26  N   UNL     1      33.547 -13.341 -24.275  0.00  0.00    -0.322 NA
ATOM     27  C   UNL     1      35.191 -17.440 -22.181  0.00  0.00    -0.002 C 
ATOM     28  C   UNL     1      34.380 -15.423 -23.227  0.00  0.00    +0.108 C 
ATOM     29  C   UNL     1      34.782 -16.758 -23.327  0.00  0.00    +0.011 C 
ATOM     30  C   UNL     1      34.385 -14.767 -21.989  0.00  0.00    +0.062 C 
ATOM     31  C   UNL     1      35.198 -16.792 -20.944  0.00  0.00    -0.001 C 
ATOM     32  C   UNL     1      34.796 -15.459 -20.847  0.00  0.00    +0.015 C 
ATOM     33  C   UNL     1      33.936 -14.661 -24.427  0.00  0.00    +0.207 C 
ATOM     34  C   UNL     1      33.583 -12.805 -23.090  0.00  0.00    +0.174 C 
ATOM     35  C   UNL     1      33.152 -11.363 -22.962  0.00  0.00    +0.085 C 
ATOM     36  H   UNL     1      33.968 -12.949 -21.074  0.00  0.00    +0.154 HD
ENDBRANCH  23  27
ENDBRANCH  21  23
ENDBRANCH   2  21
TORSDOF 11
ENDMDL
MODEL 5
REMARK VINA RESULT:     -10.6      1.429      2.540
REMARK  Name = 104758
REMARK  11 active torsions:
REMARK  status: ('A' for Active; 'I' for Inactive)
REMARK    1  A    between atoms: C_2  and  N_21
REMARK    2  A    between atoms: C_3  and  C_8
REMARK    3  A    between atoms: N_7  and  CA_10
REMARK    4  A    between atoms: CA_10  and  C_12
REMARK    5  A    between atoms: CA_10  and  CB_15
REMARK    6  A    between atoms: C_12  and  O_13
REMARK    7  A    between atoms: CB_15  and  CG_16
REMARK    8  A    between atoms: CG_16  and  CD_18
REMARK    9  A    between atoms: CD_18  and  OE1_19
REMARK   10  A    between atoms: N_21  and  C_23
REMARK   11  A    between atoms: C_23  and  C_27
REMARK                            x       y       z     vdW  Elec       q    Type
REMARK                         _______ _______ _______ _____ _____    ______ ____
ROOT
ATOM      1  S   UNL     1      34.957 -16.104 -21.958  0.00  0.00    -0.068 S 
ATOM      2  C   UNL     1      34.793 -17.257 -23.214  0.00  0.00    +0.079 C 
ATOM      3  C   UNL     1      34.361 -14.849 -22.959  0.00  0.00    +0.084 C 
ATOM      4  C   UNL     1      34.296 -16.695 -24.370  0.00  0.00    +0.022 C 
ATOM      5  C   UNL     1      34.045 -15.301 -24.221  0.00  0.00    +0.013 C 
ENDROOT
BRANCH   3   8
ATOM      6  O   UNL     1      34.636 -13.204 -21.277  0.00  0.00    -0.270 OA
ATOM      7  N   UNL     1      33.650 -12.549 -23.245  0.00  0.00    -0.293 N 
ATOM      8  C   ACE A   0      34.254 -13.529 -22.427  0.00  0.00    +0.252 C 
ATOM      9  H   UNL     1      33.353 -12.815 -24.145  0.00  0.00    +0.150 HD
BRANCH   7  10
ATOM     10  CA  UNL     1      33.443 -11.179 -22.835  0.00  0.00    +0.172 C 
BRANCH  10  12
ATOM     11  OXT UNL     1      31.442 -10.081 -21.989  0.00  0.00    -0.248 OA
ATOM     12  C   UNL     1      32.093 -11.103 -22.152  0.00  0.00    +0.332 C 
BRANCH  12  13
ATOM     13  O   UNL     1      31.653 -12.328 -21.762  0.00  0.00    -0.479 OA
ATOM     14  H   UNL     1      32.251 -13.048 -21.714  0.00  0.00    +0.295 HD
ENDBRANCH  12  13
ENDBRANCH  10  12
BRANCH  10  15
ATOM     15  CB  UNL     1      33.608 -10.184 -23.991  0.00  0.00    +0.043 C 
BRANCH  15  16
ATOM     16  CG  UNL     1      34.746  -9.167 -23.840  0.00  0.00    +0.112 C 
BRANCH  16  18
ATOM     17  OE2 UNL     1      35.084  -7.056 -22.670  0.00  0.00    -0.250 OA
ATOM     18  CD  UNL     1      34.327  -7.879 -23.164  0.00  0.00    +0.314 C 
BRANCH  18  19
ATOM     19  OE1 UNL     1      32.974  -7.750 -23.129  0.00  0.00    -0.480 OA
ATOM     20  HE1 UNL     1      32.475  -8.220 -22.489  0.00  0.00    +0.295 HD
ENDBRANCH  18  19
ENDBRANCH  16  18
ENDBRANCH  15  16
ENDBRANCH  10  15
ENDBRANCH   7  10
ENDBRANCH   3   8
BRANCH   2  21
ATOM     21  N   UNL     1      35.140 -18.589 -23.026  0.00  0.00    -0.297 N 
ATOM     22  C   UNL     1      34.769 -19.606 -24.012  0.00  0.00    +0.113 C 
BRANCH  21  23
ATOM     23  C   UNL     1      35.880 -19.033 -21.866  0.00  0.00    +0.118 C 
BRANCH  23  27
ATOM     24  O   UNL     1      36.512 -22.132 -17.797  0.00  0.00    -0.209 OA
ATOM     25  N   UNL     1      32.538 -21.911 -18.275  0.00  0.00    -0.290 N 
ATOM     26  N   UNL     1      34.424 -22.754 -17.086  0.00  0.00    -0.322 NA
ATOM     27  C   UNL     1      35.000 -19.787 -20.927  0.00  0.00    -0.002 C 
ATOM     28  C   UNL     1      34.730 -21.253 -19.030  0.00  0.00    +0.108 C 
ATOM     29  C   UNL     1      35.563 -20.551 -19.904  0.00  0.00    +0.011 C 
ATOM     30  C   UNL     1      33.336 -21.195 -19.171  0.00  0.00    +0.062 C 
ATOM     31  C   UNL     1      33.613 -19.725 -21.073  0.00  0.00    -0.001 C 
ATOM     32  C   UNL     1      32.782 -20.427 -20.198  0.00  0.00    +0.015 C 
ATOM     33  C   UNL     1      35.292 -22.079 -17.925  0.00  0.00    +0.207 C 
ATOM     34  C   UNL     1      33.142 -22.650 -17.286  0.00  0.00    +0.174 C 
ATOM     35  C   UNL     1      32.225 -23.401 -16.351  0.00  0.00    +0.085 C 
ATOM     36  H   UNL     1      31.557 -21.886 -18.352  0.00  0.00    +0.154 HD
ENDBRANCH  23  27
ENDBRANCH  21  23
ENDBRANCH   2  21
TORSDOF 11
ENDMDL
MODEL 6
REMARK VINA RESULT:     -10.4      4.603     12.083
REMARK  Name = 104758
REMARK  11 active torsions:
REMARK  status: ('A' for Active; 'I' for Inactive)
REMARK    1  A    between atoms: C_2  and  N_21
REMARK    2  A    between atoms: C_3  and  C_8
REMARK    3  A    between atoms: N_7  and  CA_10
REMARK    4  A    between atoms: CA_10  and  C_12
REMARK    5  A    between atoms: CA_10  and  CB_15
REMARK    6  A    between atoms: C_12  and  O_13
REMARK    7  A    between atoms: CB_15  and  CG_16
REMARK    8  A    between atoms: CG_16  and  CD_18
REMARK    9  A    between atoms: CD_18  and  OE1_19
REMARK   10  A    between atoms: N_21  and  C_23
REMARK   11  A    between atoms: C_23  and  C_27
REMARK                            x       y       z     vdW  Elec       q    Type
REMARK                         _______ _______ _______ _____ _____    ______ ____
ROOT
ATOM      1  S   UNL     1      34.687 -22.644 -17.134  0.00  0.00    -0.068 S 
ATOM      2  C   UNL     1      35.547 -21.634 -18.218  0.00  0.00    +0.079 C 
ATOM      3  C   UNL     1      36.019 -22.717 -16.061  0.00  0.00    +0.084 C 
ATOM      4  C   UNL     1      36.820 -21.361 -17.769  0.00  0.00    +0.022 C 
ATOM      5  C   UNL     1      37.093 -21.987 -16.520  0.00  0.00    +0.013 C 
ENDROOT
BRANCH   3   8
ATOM      6  O   UNL     1      34.878 -24.133 -14.542  0.00  0.00    -0.270 OA
ATOM      7  N   UNL     1      37.003 -23.469 -13.976  0.00  0.00    -0.293 N 
ATOM      8  C   ACE A   0      35.903 -23.482 -14.862  0.00  0.00    +0.252 C 
ATOM      9  H   UNL     1      37.801 -22.954 -14.236  0.00  0.00    +0.150 HD
BRANCH   7  10
ATOM     10  CA  UNL     1      37.023 -24.167 -12.712  0.00  0.00    +0.172 C 
BRANCH  10  12
ATOM     11  OXT UNL     1      37.210 -22.428 -11.018  0.00  0.00    -0.248 OA
ATOM     12  C   UNL     1      36.516 -23.212 -11.651  0.00  0.00    +0.332 C 
BRANCH  12  13
ATOM     13  O   UNL     1      35.168 -23.291 -11.501  0.00  0.00    -0.479 OA
ATOM     14  H   UNL     1      34.608 -22.706 -11.974  0.00  0.00    +0.295 HD
ENDBRANCH  12  13
ENDBRANCH  10  12
BRANCH  10  15
ATOM     15  CB  UNL     1      38.395 -24.773 -12.392  0.00  0.00    +0.043 C 
BRANCH  15  16
ATOM     16  CG  UNL     1      38.892 -25.852 -13.364  0.00  0.00    +0.112 C 
BRANCH  16  18
ATOM     17  OE2 UNL     1      41.114 -25.825 -14.364  0.00  0.00    -0.250 OA
ATOM     18  CD  UNL     1      39.979 -25.373 -14.301  0.00  0.00    +0.314 C 
BRANCH  18  19
ATOM     19  OE1 UNL     1      39.558 -24.328 -15.063  0.00  0.00    -0.480 OA
ATOM     20  HE1 UNL     1      40.185 -23.781 -15.495  0.00  0.00    +0.295 HD
ENDBRANCH  18  19
ENDBRANCH  16  18
ENDBRANCH  15  16
ENDBRANCH  10  15
ENDBRANCH   7  10
ENDBRANCH   3   8
BRANCH   2  21
ATOM     21  N   UNL     1      34.970 -21.178 -19.396  0.00  0.00    -0.297 N 
ATOM     22  C   UNL     1      33.542 -20.862 -19.458  0.00  0.00    +0.113 C 
BRANCH  21  23
ATOM     23  C   UNL     1      35.741 -20.987 -20.605  0.00  0.00    +0.118 C 
BRANCH  23  27
ATOM     24  O   UNL     1      33.599 -19.067 -24.881  0.00  0.00    -0.209 OA
ATOM     25  N   UNL     1      34.803 -15.838 -22.831  0.00  0.00    -0.290 N 
ATOM     26  N   UNL     1      33.762 -16.784 -24.756  0.00  0.00    -0.322 NA
ATOM     27  C   UNL     1      35.498 -19.635 -21.185  0.00  0.00    -0.002 C 
ATOM     28  C   UNL     1      34.637 -18.239 -22.955  0.00  0.00    +0.108 C 
ATOM     29  C   UNL     1      34.861 -19.511 -22.421  0.00  0.00    +0.011 C 
ATOM     30  C   UNL     1      35.046 -17.091 -22.263  0.00  0.00    +0.062 C 
ATOM     31  C   UNL     1      35.908 -18.495 -20.491  0.00  0.00    -0.001 C 
ATOM     32  C   UNL     1      35.683 -17.226 -21.027  0.00  0.00    +0.015 C 
ATOM     33  C   UNL     1      33.960 -18.065 -24.270  0.00  0.00    +0.207 C 
ATOM     34  C   UNL     1      34.174 -15.770 -24.052  0.00  0.00    +0.174 C 
ATOM     35  C   UNL     1      33.941 -14.388 -24.613  0.00  0.00    +0.085 C 
ATOM     36  H   UNL     1      35.080 -15.017 -22.365  0.00  0.00    +0.154 HD
ENDBRANCH  23  27
ENDBRANCH  21  23
ENDBRANCH   2  21
TORSDOF 11
ENDMDL
MODEL 7
REMARK VINA RESULT:     -10.3      5.045      9.001
REMARK  Name = 104758
REMARK  11 active torsions:
REMARK  status: ('A' for Active; 'I' for Inactive)
REMARK    1  A    between atoms: C_2  and  N_21
REMARK    2  A    between atoms: C_3  and  C_8
REMARK    3  A    between atoms: N_7  and  CA_10
REMARK    4  A    between atoms: CA_10  and  C_12
REMARK    5  A    between atoms: CA_10  and  CB_15
REMARK    6  A    between atoms: C_12  and  O_13
REMARK    7  A    between atoms: CB_15  and  CG_16
REMARK    8  A    between atoms: CG_16  and  CD_18
REMARK    9  A    between atoms: CD_18  and  OE1_19
REMARK   10  A    between atoms: N_21  and  C_23
REMARK   11  A    between atoms: C_23  and  C_27
REMARK                            x       y       z     vdW  Elec       q    Type
REMARK                         _______ _______ _______ _____ _____    ______ ____
ROOT
ATOM      1  S   UNL     1      35.848 -22.157 -16.663  0.00  0.00    -0.068 S 
ATOM      2  C   UNL     1      34.533 -22.945 -15.901  0.00  0.00    +0.079 C 
ATOM      3  C   UNL     1      34.962 -21.968 -18.116  0.00  0.00    +0.084 C 
ATOM      4  C   UNL     1      33.445 -23.061 -16.737  0.00  0.00    +0.022 C 
ATOM      5  C   UNL     1      33.693 -22.495 -18.020  0.00  0.00    +0.013 C 
ENDROOT
BRANCH   3   8
ATOM      6  O   UNL     1      36.773 -21.516 -19.576  0.00  0.00    -0.270 OA
ATOM      7  N   UNL     1      34.806 -20.391 -19.951  0.00  0.00    -0.293 N 
ATOM      8  C   ACE A   0      35.582 -21.323 -19.228  0.00  0.00    +0.252 C 
ATOM      9  H   UNL     1      33.874 -20.247 -19.670  0.00  0.00    +0.150 HD
BRANCH   7  10
ATOM     10  CA  UNL     1      35.303 -19.638 -21.079  0.00  0.00    +0.172 C 
BRANCH  10  12
ATOM     11  OXT UNL     1      35.442 -17.313 -20.369  0.00  0.00    -0.248 OA
ATOM     12  C   UNL     1      35.983 -18.397 -20.539  0.00  0.00    +0.332 C 
BRANCH  12  13
ATOM     13  O   UNL     1      37.283 -18.631 -20.218  0.00  0.00    -0.479 OA
ATOM     14  H   UNL     1      37.944 -18.012 -20.459  0.00  0.00    +0.295 HD
ENDBRANCH  12  13
ENDBRANCH  10  12
BRANCH  10  15
ATOM     15  CB  UNL     1      34.215 -19.343 -22.119  0.00  0.00    +0.043 C 
BRANCH  15  16
ATOM     16  CG  UNL     1      34.708 -19.085 -23.549  0.00  0.00    +0.112 C 
BRANCH  16  18
ATOM     17  OE2 UNL     1      33.657 -17.305 -24.841  0.00  0.00    -0.250 OA
ATOM     18  CD  UNL     1      34.491 -17.663 -24.021  0.00  0.00    +0.314 C 
BRANCH  18  19
ATOM     19  OE1 UNL     1      35.377 -16.806 -23.448  0.00  0.00    -0.480 OA
ATOM     20  HE1 UNL     1      35.072 -16.014 -23.050  0.00  0.00    +0.295 HD
ENDBRANCH  18  19
ENDBRANCH  16  18
ENDBRANCH  15  16
ENDBRANCH  10  15
ENDBRANCH   7  10
ENDBRANCH   3   8
BRANCH   2  21
ATOM     21  N   UNL     1      34.617 -23.392 -14.588  0.00  0.00    -0.297 N 
ATOM     22  C   UNL     1      33.436 -23.912 -13.896  0.00  0.00    +0.113 C 
BRANCH  21  23
ATOM     23  C   UNL     1      35.861 -23.375 -13.849  0.00  0.00    +0.118 C 
BRANCH  23  27
ATOM     24  O   UNL     1      40.852 -24.649 -13.693  0.00  0.00    -0.209 OA
ATOM     25  N   UNL     1      39.020 -27.952 -15.039  0.00  0.00    -0.290 N 
ATOM     26  N   UNL     1      41.022 -26.818 -14.415  0.00  0.00    -0.322 NA
ATOM     27  C   UNL     1      36.685 -24.577 -14.163  0.00  0.00    -0.002 C 
ATOM     28  C   UNL     1      38.832 -25.671 -14.283  0.00  0.00    +0.108 C 
ATOM     29  C   UNL     1      38.069 -24.539 -13.986  0.00  0.00    +0.011 C 
ATOM     30  C   UNL     1      38.221 -26.842 -14.755  0.00  0.00    +0.062 C 
ATOM     31  C   UNL     1      36.071 -25.739 -14.633  0.00  0.00    -0.001 C 
ATOM     32  C   UNL     1      36.835 -26.869 -14.928  0.00  0.00    +0.015 C 
ATOM     33  C   UNL     1      40.312 -25.671 -14.107  0.00  0.00    +0.207 C 
ATOM     34  C   UNL     1      40.379 -27.862 -14.849  0.00  0.00    +0.174 C 
ATOM     35  C   UNL     1      41.186 -29.095 -15.175  0.00  0.00    +0.085 C 
ATOM     36  H   UNL     1      38.616 -28.786 -15.370  0.00  0.00    +0.154 HD
ENDBRANCH  23  27
ENDBRANCH  21  23
ENDBRANCH   2  21
TORSDOF 11
ENDMDL
MODEL 8
REMARK VINA RESULT:     -10.2      4.581     11.981
REMARK  Name = 104758
REMARK  11 active torsions:
REMARK  status: ('A' for Active; 'I' for Inactive)
REMARK    1  A    between atoms: C_2  and  N_21
REMARK    2  A    between atoms: C_3  and  C_8
REMARK    3  A    between atoms: N_7  and  CA_10
REMARK    4  A    between atoms: CA_10  and  C_12
REMARK    5  A    between atoms: CA_10  and  CB_15
REMARK    6  A    between atoms: C_12  and  O_13
REMARK    7  A    between atoms: CB_15  and  CG_16
REMARK    8  A    between atoms: CG_16  and  CD_18
REMARK    9  A    between atoms: CD_18  and  OE1_19
REMARK   10  A    between atoms: N_21  and  C_23
REMARK   11  A    between atoms: C_23  and  C_27
REMARK                            x       y       z     vdW  Elec       q    Type
REMARK                         _______ _______ _______ _____ _____    ______ ____
ROOT
ATOM      1  S   UNL     1      36.660 -21.668 -17.410  0.00  0.00    -0.068 S 
ATOM      2  C   UNL     1      35.114 -21.782 -18.137  0.00  0.00    +0.079 C 
ATOM      3  C   UNL     1      36.164 -22.622 -16.078  0.00  0.00    +0.084 C 
ATOM      4  C   UNL     1      34.241 -22.530 -17.379  0.00  0.00    +0.022 C 
ATOM      5  C   UNL     1      34.849 -23.018 -16.187  0.00  0.00    +0.013 C 
ENDROOT
BRANCH   3   8
ATOM      6  O   UNL     1      37.587 -22.031 -14.278  0.00  0.00    -0.270 OA
ATOM      7  N   UNL     1      37.519 -24.244 -14.890  0.00  0.00    -0.293 N 
ATOM      8  C   ACE A   0      37.101 -22.904 -15.039  0.00  0.00    +0.252 C 
ATOM      9  H   UNL     1      37.133 -24.920 -15.492  0.00  0.00    +0.150 HD
BRANCH   7  10
ATOM     10  CA  UNL     1      38.484 -24.678 -13.905  0.00  0.00    +0.172 C 
BRANCH  10  12
ATOM     11  OXT UNL     1      40.832 -24.778 -14.539  0.00  0.00    -0.248 OA
ATOM     12  C   UNL     1      39.692 -25.208 -14.649  0.00  0.00    +0.332 C 
BRANCH  12  13
ATOM     13  O   UNL     1      39.375 -26.265 -15.442  0.00  0.00    -0.479 OA
ATOM     14  H   UNL     1      38.609 -26.774 -15.262  0.00  0.00    +0.295 HD
ENDBRANCH  12  13
ENDBRANCH  10  12
BRANCH  10  15
ATOM     15  CB  UNL     1      37.893 -25.671 -12.897  0.00  0.00    +0.043 C 
BRANCH  15  16
ATOM     16  CG  UNL     1      37.586 -25.107 -11.503  0.00  0.00    +0.112 C 
BRANCH  16  18
ATOM     17  OE2 UNL     1      39.028 -23.184 -11.101  0.00  0.00    -0.250 OA
ATOM     18  CD  UNL     1      37.921 -23.639 -11.353  0.00  0.00    +0.314 C 
BRANCH  18  19
ATOM     19  OE1 UNL     1      36.817 -22.858 -11.493  0.00  0.00    -0.480 OA
ATOM     20  HE1 UNL     1      36.906 -21.925 -11.535  0.00  0.00    +0.295 HD
ENDBRANCH  18  19
ENDBRANCH  16  18
ENDBRANCH  15  16
ENDBRANCH  10  15
ENDBRANCH   7  10
ENDBRANCH   3   8
BRANCH   2  21
ATOM     21  N   UNL     1      34.836 -21.167 -19.351  0.00  0.00    -0.297 N 
ATOM     22  C   UNL     1      33.461 -20.821 -19.719  0.00  0.00    +0.113 C 
BRANCH  21  23
ATOM     23  C   UNL     1      35.876 -20.834 -20.300  0.00  0.00    +0.118 C 
BRANCH  23  27
ATOM     24  O   UNL     1      33.818 -19.272 -24.759  0.00  0.00    -0.209 OA
ATOM     25  N   UNL     1      34.783 -15.875 -22.861  0.00  0.00    -0.290 N 
ATOM     26  N   UNL     1      33.866 -16.980 -24.764  0.00  0.00    -0.322 NA
ATOM     27  C   UNL     1      35.592 -19.531 -20.968  0.00  0.00    -0.002 C 
ATOM     28  C   UNL     1      34.737 -18.284 -22.848  0.00  0.00    +0.108 C 
ATOM     29  C   UNL     1      35.000 -19.510 -22.231  0.00  0.00    +0.011 C 
ATOM     30  C   UNL     1      35.063 -17.079 -22.210  0.00  0.00    +0.062 C 
ATOM     31  C   UNL     1      35.918 -18.334 -20.327  0.00  0.00    -0.001 C 
ATOM     32  C   UNL     1      35.655 -17.111 -20.945  0.00  0.00    +0.015 C 
ATOM     33  C   UNL     1      34.106 -18.220 -24.196  0.00  0.00    +0.207 C 
ATOM     34  C   UNL     1      34.200 -15.908 -24.106  0.00  0.00    +0.174 C 
ATOM     35  C   UNL     1      33.925 -14.574 -24.756  0.00  0.00    +0.085 C 
ATOM     36  H   UNL     1      35.001 -15.015 -22.434  0.00  0.00    +0.154 HD
ENDBRANCH  23  27
ENDBRANCH  21  23
ENDBRANCH   2  21
TORSDOF 11
ENDMDL
MODEL 9
REMARK VINA RESULT:     -10.2      3.124     10.756
REMARK  Name = 104758
REMARK  11 active torsions:
REMARK  status: ('A' for Active; 'I' for Inactive)
REMARK    1  A    between atoms: C_2  and  N_21
REMARK    2  A    between atoms: C_3  and  C_8
REMARK    3  A    between atoms: N_7  and  CA_10
REMARK    4  A    between atoms: CA_10  and  C_12
REMARK    5  A    between atoms: CA_10  and  CB_15
REMARK    6  A    between atoms: C_12  and  O_13
REMARK    7  A    between atoms: CB_15  and  CG_16
REMARK    8  A    between atoms: CG_16  and  CD_18
REMARK    9  A    between atoms: CD_18  and  OE1_19
REMARK   10  A    between atoms: N_21  and  C_23
REMARK   11  A    between atoms: C_23  and  C_27
REMARK                            x       y       z     vdW  Elec       q    Type
REMARK                         _______ _______ _______ _____ _____    ______ ____
ROOT
ATOM      1  S   UNL     1      35.255 -21.162 -19.257  0.00  0.00    -0.068 S 
ATOM      2  C   UNL     1      34.735 -20.065 -20.465  0.00  0.00    +0.079 C 
ATOM      3  C   UNL     1      33.642 -21.534 -18.823  0.00  0.00    +0.084 C 
ATOM      4  C   UNL     1      33.362 -19.986 -20.534  0.00  0.00    +0.022 C 
ATOM      5  C   UNL     1      32.729 -20.837 -19.583  0.00  0.00    +0.013 C 
ENDROOT
BRANCH   3   8
ATOM      6  O   UNL     1      34.221 -23.361 -17.431  0.00  0.00    -0.270 OA
ATOM      7  N   UNL     1      32.154 -22.410 -17.121  0.00  0.00    -0.293 N 
ATOM      8  C   ACE A   0      33.403 -22.474 -17.776  0.00  0.00    +0.252 C 
ATOM      9  H   UNL     1      31.519 -21.711 -17.400  0.00  0.00    +0.150 HD
BRANCH   7  10
ATOM     10  CA  UNL     1      31.755 -23.312 -16.065  0.00  0.00    +0.172 C 
BRANCH  10  12
ATOM     11  OXT UNL     1      29.561 -24.044 -15.306  0.00  0.00    -0.248 OA
ATOM     12  C   UNL     1      30.242 -23.300 -15.998  0.00  0.00    +0.332 C 
BRANCH  12  13
ATOM     13  O   UNL     1      29.708 -22.326 -16.781  0.00  0.00    -0.479 OA
ATOM     14  H   UNL     1      29.336 -21.560 -16.389  0.00  0.00    +0.295 HD
ENDBRANCH  12  13
ENDBRANCH  10  12
BRANCH  10  15
ATOM     15  CB  UNL     1      32.435 -22.994 -14.727  0.00  0.00    +0.043 C 
BRANCH  15  16
ATOM     16  CG  UNL     1      32.793 -24.204 -13.854  0.00  0.00    +0.112 C 
BRANCH  16  18
ATOM     17  OE2 UNL     1      35.110 -23.501 -13.582  0.00  0.00    -0.250 OA
ATOM     18  CD  UNL     1      34.121 -24.070 -13.142  0.00  0.00    +0.314 C 
BRANCH  18  19
ATOM     19  OE1 UNL     1      34.110 -24.705 -11.940  0.00  0.00    -0.480 OA
ATOM     20  HE1 UNL     1      33.314 -25.082 -11.616  0.00  0.00    +0.295 HD
ENDBRANCH  18  19
ENDBRANCH  16  18
ENDBRANCH  15  16
ENDBRANCH  10  15
ENDBRANCH   7  10
ENDBRANCH   3   8
BRANCH   2  21
ATOM     21  N   UNL     1      35.644 -19.367 -21.250  0.00  0.00    -0.297 N 
ATOM     22  C   UNL     1      36.851 -18.785 -20.662  0.00  0.00    +0.113 C 
BRANCH  21  23
ATOM     23  C   UNL     1      35.450 -19.187 -22.673  0.00  0.00    +0.118 C 
BRANCH  23  27
ATOM     24  O   UNL     1      34.655 -14.836 -20.028  0.00  0.00    -0.209 OA
ATOM     25  N   UNL     1      33.903 -13.840 -23.838  0.00  0.00    -0.290 N 
ATOM     26  N   UNL     1      34.039 -13.226 -21.539  0.00  0.00    -0.322 NA
ATOM     27  C   UNL     1      35.043 -17.786 -22.983  0.00  0.00    -0.002 C 
ATOM     28  C   UNL     1      34.550 -15.539 -22.257  0.00  0.00    +0.108 C 
ATOM     29  C   UNL     1      34.932 -16.849 -21.955  0.00  0.00    +0.011 C 
ATOM     30  C   UNL     1      34.281 -15.160 -23.579  0.00  0.00    +0.062 C 
ATOM     31  C   UNL     1      34.777 -17.415 -24.302  0.00  0.00    -0.001 C 
ATOM     32  C   UNL     1      34.396 -16.106 -24.601  0.00  0.00    +0.015 C 
ATOM     33  C   UNL     1      34.420 -14.509 -21.188  0.00  0.00    +0.207 C 
ATOM     34  C   UNL     1      33.806 -12.956 -22.790  0.00  0.00    +0.174 C 
ATOM     35  C   UNL     1      33.392 -11.545 -23.136  0.00  0.00    +0.085 C 
ATOM     36  H   UNL     1      33.709 -13.548 -24.758  0.00  0.00    +0.154 HD
ENDBRANCH  23  27
ENDBRANCH  21  23
ENDBRANCH   2  21
TORSDOF 11
ENDMDL
