MODEL 1
REMARK VINA RESULT:     -11.4      0.000      0.000
REMARK  Name = 10267580
REMARK  2 active torsions:
REMARK  status: ('A' for Active; 'I' for Inactive)
REMARK    1  A    between atoms: N_1  and  C_21
REMARK    2  A    between atoms: C_7  and  C_14
REMARK                            x       y       z     vdW  Elec       q    Type
REMARK                         _______ _______ _______ _____ _____    ______ ____
ROOT
ATOM      1  N   UNL     1      35.699 -23.269 -16.228  0.00  0.00    -0.290 N 
ATOM      2  N   UNL     1      33.347 -23.234 -16.169  0.00  0.00    -0.327 NA
ATOM      3  N   UNL     1      32.093 -22.030 -17.837  0.00  0.00    -0.342 NA
ATOM      4  C   UNL     1      34.489 -22.041 -17.933  0.00  0.00    +0.143 C 
ATOM      5  C   UNL     1      34.473 -22.836 -16.791  0.00  0.00    +0.184 C 
ATOM      6  C   UNL     1      33.236 -21.651 -18.435  0.00  0.00    +0.133 C 
ATOM      7  C   UNL     1      32.210 -22.800 -16.738  0.00  0.00    +0.165 C 
ATOM      8  C   UNL     1      35.679 -21.638 -18.566  0.00  0.00    -0.011 C 
ATOM      9  C   UNL     1      33.213 -20.854 -19.577  0.00  0.00    +0.029 C 
ATOM     10  C   UNL     1      35.625 -20.841 -19.706  0.00  0.00    -0.004 C 
ATOM     11  C   UNL     1      34.391 -20.449 -20.211  0.00  0.00    +0.002 C 
ATOM     12  H   UNL     1      36.470 -23.289 -16.840  0.00  0.00    +0.154 HD
ENDROOT
BRANCH   7  14
ATOM     13  N   UNL     1      29.859 -22.659 -16.631  0.00  0.00    -0.398 NA
ATOM     14  C   UNL     1      30.981 -23.202 -16.103  0.00  0.00    +0.197 C 
ATOM     15  C   UNL     1      30.982 -24.084 -15.031  0.00  0.00    +0.098 C 
ATOM     16  C   UNL     1      28.688 -23.017 -16.056  0.00  0.00    +0.110 C 
ATOM     17  C   UNL     1      29.758 -24.428 -14.467  0.00  0.00    -0.016 C 
ATOM     18  C   UNL     1      28.586 -23.889 -14.983  0.00  0.00    +0.023 C 
ATOM     19  C   UNL     1      27.450 -22.420 -16.635  0.00  0.00    +0.066 C 
ENDBRANCH   7  14
BRANCH   1  21
ATOM     20  N   UNL     1      36.461 -24.468 -12.271  0.00  0.00    -0.242 NA
ATOM     21  C   UNL     1      35.949 -23.664 -14.927  0.00  0.00    +0.053 C 
ATOM     22  C   UNL     1      36.102 -22.718 -13.900  0.00  0.00    +0.035 C 
ATOM     23  C   UNL     1      36.059 -25.022 -14.589  0.00  0.00    +0.035 C 
ATOM     24  C   UNL     1      36.353 -23.165 -12.612  0.00  0.00    +0.100 C 
ATOM     25  C   UNL     1      36.311 -25.366 -13.271  0.00  0.00    +0.100 C 
ENDBRANCH   1  21
TORSDOF 2
ENDMDL
MODEL 2
REMARK VINA RESULT:     -10.9      1.560      6.685
REMARK  Name = 10267580
REMARK  2 active torsions:
REMARK  status: ('A' for Active; 'I' for Inactive)
REMARK    1  A    between atoms: N_1  and  C_21
REMARK    2  A    between atoms: C_7  and  C_14
REMARK                            x       y       z     vdW  Elec       q    Type
REMARK                         _______ _______ _______ _____ _____    ______ ____
ROOT
ATOM      1  N   UNL     1      32.554 -22.240 -18.146  0.00  0.00    -0.290 N 
ATOM      2  N   UNL     1      33.999 -23.183 -16.547  0.00  0.00    -0.327 NA
ATOM      3  N   UNL     1      33.142 -24.007 -14.451  0.00  0.00    -0.342 NA
ATOM      4  C   UNL     1      31.636 -23.053 -16.055  0.00  0.00    +0.143 C 
ATOM      5  C   UNL     1      32.738 -22.843 -16.878  0.00  0.00    +0.184 C 
ATOM      6  C   UNL     1      31.895 -23.656 -14.813  0.00  0.00    +0.133 C 
ATOM      7  C   UNL     1      34.125 -23.752 -15.337  0.00  0.00    +0.165 C 
ATOM      8  C   UNL     1      30.328 -22.689 -16.423  0.00  0.00    -0.011 C 
ATOM      9  C   UNL     1      30.817 -23.882 -13.962  0.00  0.00    +0.029 C 
ATOM     10  C   UNL     1      29.269 -22.926 -15.552  0.00  0.00    -0.004 C 
ATOM     11  C   UNL     1      29.514 -23.523 -14.321  0.00  0.00    +0.002 C 
ATOM     12  H   UNL     1      31.650 -22.313 -18.531  0.00  0.00    +0.154 HD
ENDROOT
BRANCH   7  14
ATOM     13  N   UNL     1      35.713 -25.459 -14.985  0.00  0.00    -0.398 NA
ATOM     14  C   UNL     1      35.457 -24.130 -14.942  0.00  0.00    +0.197 C 
ATOM     15  C   UNL     1      36.388 -23.178 -14.551  0.00  0.00    +0.098 C 
ATOM     16  C   UNL     1      36.956 -25.847 -14.618  0.00  0.00    +0.110 C 
ATOM     17  C   UNL     1      37.656 -23.615 -14.182  0.00  0.00    -0.016 C 
ATOM     18  C   UNL     1      37.952 -24.973 -14.214  0.00  0.00    +0.023 C 
ATOM     19  C   UNL     1      37.239 -27.311 -14.665  0.00  0.00    +0.066 C 
ENDBRANCH   7  14
BRANCH   1  21
ATOM     20  N   UNL     1      35.378 -20.168 -20.472  0.00  0.00    -0.242 NA
ATOM     21  C   UNL     1      33.482 -21.558 -18.912  0.00  0.00    +0.053 C 
ATOM     22  C   UNL     1      34.857 -21.818 -18.785  0.00  0.00    +0.035 C 
ATOM     23  C   UNL     1      33.083 -20.584 -19.840  0.00  0.00    +0.035 C 
ATOM     24  C   UNL     1      35.747 -21.108 -19.573  0.00  0.00    +0.100 C 
ATOM     25  C   UNL     1      34.052 -19.929 -20.582  0.00  0.00    +0.100 C 
ENDBRANCH   1  21
TORSDOF 2
ENDMDL
MODEL 3
REMARK VINA RESULT:     -10.5      1.506      5.167
REMARK  Name = 10267580
REMARK  2 active torsions:
REMARK  status: ('A' for Active; 'I' for Inactive)
REMARK    1  A    between atoms: N_1  and  C_21
REMARK    2  A    between atoms: C_7  and  C_14
REMARK                            x       y       z     vdW  Elec       q    Type
REMARK                         _______ _______ _______ _____ _____    ______ ____
ROOT
ATOM      1  N   UNL     1      34.637 -24.639 -13.813  0.00  0.00    -0.290 N 
ATOM      2  N   UNL     1      34.316 -23.399 -15.787  0.00  0.00    -0.327 NA
ATOM      3  N   UNL     1      32.095 -22.910 -16.584  0.00  0.00    -0.342 NA
ATOM      4  C   UNL     1      32.379 -24.176 -14.567  0.00  0.00    +0.143 C 
ATOM      5  C   UNL     1      33.753 -24.053 -14.753  0.00  0.00    +0.184 C 
ATOM      6  C   UNL     1      31.566 -23.569 -15.538  0.00  0.00    +0.133 C 
ATOM      7  C   UNL     1      33.440 -22.860 -16.652  0.00  0.00    +0.165 C 
ATOM      8  C   UNL     1      31.815 -24.864 -13.478  0.00  0.00    -0.011 C 
ATOM      9  C   UNL     1      30.186 -23.673 -15.386  0.00  0.00    +0.029 C 
ATOM     10  C   UNL     1      30.432 -24.952 -13.352  0.00  0.00    -0.004 C 
ATOM     11  C   UNL     1      29.617 -24.355 -14.307  0.00  0.00    +0.002 C 
ATOM     12  H   UNL     1      34.267 -24.797 -12.914  0.00  0.00    +0.154 HD
ENDROOT
BRANCH   7  14
ATOM     13  N   UNL     1      33.095 -21.555 -18.584  0.00  0.00    -0.398 NA
ATOM     14  C   UNL     1      34.000 -22.152 -17.774  0.00  0.00    +0.197 C 
ATOM     15  C   UNL     1      35.371 -22.105 -17.981  0.00  0.00    +0.098 C 
ATOM     16  C   UNL     1      33.589 -20.882 -19.648  0.00  0.00    +0.110 C 
ATOM     17  C   UNL     1      35.841 -21.403 -19.086  0.00  0.00    -0.016 C 
ATOM     18  C   UNL     1      34.940 -20.778 -19.940  0.00  0.00    +0.023 C 
ATOM     19  C   UNL     1      32.594 -20.223 -20.542  0.00  0.00    +0.066 C 
ENDBRANCH   7  14
BRANCH   1  21
ATOM     20  N   UNL     1      38.639 -25.795 -14.380  0.00  0.00    -0.242 NA
ATOM     21  C   UNL     1      35.953 -25.018 -13.999  0.00  0.00    +0.053 C 
ATOM     22  C   UNL     1      36.275 -26.251 -14.592  0.00  0.00    +0.035 C 
ATOM     23  C   UNL     1      37.012 -24.186 -13.603  0.00  0.00    +0.035 C 
ATOM     24  C   UNL     1      37.609 -26.586 -14.756  0.00  0.00    +0.100 C 
ATOM     25  C   UNL     1      38.314 -24.613 -13.811  0.00  0.00    +0.100 C 
ENDBRANCH   1  21
TORSDOF 2
ENDMDL
MODEL 4
REMARK VINA RESULT:     -10.2      1.803      6.627
REMARK  Name = 10267580
REMARK  2 active torsions:
REMARK  status: ('A' for Active; 'I' for Inactive)
REMARK    1  A    between atoms: N_1  and  C_21
REMARK    2  A    between atoms: C_7  and  C_14
REMARK                            x       y       z     vdW  Elec       q    Type
REMARK                         _______ _______ _______ _____ _____    ______ ____
ROOT
ATOM      1  N   UNL     1      33.004 -24.544 -13.168  0.00  0.00    -0.290 N 
ATOM      2  N   UNL     1      34.308 -23.488 -14.818  0.00  0.00    -0.327 NA
ATOM      3  N   UNL     1      36.614 -22.937 -14.395  0.00  0.00    -0.342 NA
ATOM      4  C   UNL     1      35.320 -24.012 -12.687  0.00  0.00    +0.143 C 
ATOM      5  C   UNL     1      34.247 -23.997 -13.573  0.00  0.00    +0.184 C 
ATOM      6  C   UNL     1      36.520 -23.454 -13.157  0.00  0.00    +0.133 C 
ATOM      7  C   UNL     1      35.504 -22.982 -15.158  0.00  0.00    +0.165 C 
ATOM      8  C   UNL     1      35.232 -24.549 -11.390  0.00  0.00    -0.011 C 
ATOM      9  C   UNL     1      37.616 -23.450 -12.298  0.00  0.00    +0.029 C 
ATOM     10  C   UNL     1      36.344 -24.532 -10.553  0.00  0.00    -0.004 C 
ATOM     11  C   UNL     1      37.537 -23.982 -11.008  0.00  0.00    +0.002 C 
ATOM     12  H   UNL     1      33.041 -25.206 -12.439  0.00  0.00    +0.154 HD
ENDROOT
BRANCH   7  14
ATOM     13  N   UNL     1      34.489 -22.504 -17.231  0.00  0.00    -0.398 NA
ATOM     14  C   UNL     1      35.613 -22.427 -16.482  0.00  0.00    +0.197 C 
ATOM     15  C   UNL     1      36.800 -21.862 -16.927  0.00  0.00    +0.098 C 
ATOM     16  C   UNL     1      34.560 -21.992 -18.481  0.00  0.00    +0.110 C 
ATOM     17  C   UNL     1      36.834 -21.346 -18.218  0.00  0.00    -0.016 C 
ATOM     18  C   UNL     1      35.697 -21.408 -19.016  0.00  0.00    +0.023 C 
ATOM     19  C   UNL     1      33.321 -22.076 -19.308  0.00  0.00    +0.066 C 
ENDBRANCH   7  14
BRANCH   1  21
ATOM     20  N   UNL     1      29.174 -23.693 -14.679  0.00  0.00    -0.242 NA
ATOM     21  C   UNL     1      31.745 -24.263 -13.664  0.00  0.00    +0.053 C 
ATOM     22  C   UNL     1      30.816 -25.290 -13.905  0.00  0.00    +0.035 C 
ATOM     23  C   UNL     1      31.352 -22.945 -13.946  0.00  0.00    +0.035 C 
ATOM     24  C   UNL     1      29.567 -24.957 -14.404  0.00  0.00    +0.100 C 
ATOM     25  C   UNL     1      30.079 -22.718 -14.443  0.00  0.00    +0.100 C 
ENDBRANCH   1  21
TORSDOF 2
ENDMDL
MODEL 5
REMARK VINA RESULT:     -10.1      1.204      5.734
REMARK  Name = 10267580
REMARK  2 active torsions:
REMARK  status: ('A' for Active; 'I' for Inactive)
REMARK    1  A    between atoms: N_1  and  C_21
REMARK    2  A    between atoms: C_7  and  C_14
REMARK                            x       y       z     vdW  Elec       q    Type
REMARK                         _______ _______ _______ _____ _____    ______ ____
ROOT
ATOM      1  N   UNL     1      31.268 -22.411 -16.741  0.00  0.00    -0.290 N 
ATOM      2  N   UNL     1      33.241 -23.173 -15.710  0.00  0.00    -0.327 NA
ATOM      3  N   UNL     1      35.388 -22.797 -16.736  0.00  0.00    -0.342 NA
ATOM      4  C   UNL     1      33.402 -22.005 -17.820  0.00  0.00    +0.143 C 
ATOM      5  C   UNL     1      32.680 -22.535 -16.755  0.00  0.00    +0.184 C 
ATOM      6  C   UNL     1      34.796 -22.165 -17.764  0.00  0.00    +0.133 C 
ATOM      7  C   UNL     1      34.580 -23.266 -15.765  0.00  0.00    +0.165 C 
ATOM      8  C   UNL     1      32.792 -21.343 -18.901  0.00  0.00    -0.011 C 
ATOM      9  C   UNL     1      35.552 -21.647 -18.813  0.00  0.00    +0.029 C 
ATOM     10  C   UNL     1      33.573 -20.836 -19.935  0.00  0.00    -0.004 C 
ATOM     11  C   UNL     1      34.953 -20.989 -19.891  0.00  0.00    +0.002 C 
ATOM     12  H   UNL     1      30.895 -21.676 -17.281  0.00  0.00    +0.154 HD
ENDROOT
BRANCH   7  14
ATOM     13  N   UNL     1      36.289 -24.702 -15.007  0.00  0.00    -0.398 NA
ATOM     14  C   UNL     1      35.222 -23.942 -14.667  0.00  0.00    +0.197 C 
ATOM     15  C   UNL     1      34.755 -23.802 -13.368  0.00  0.00    +0.098 C 
ATOM     16  C   UNL     1      36.913 -25.351 -13.997  0.00  0.00    +0.110 C 
ATOM     17  C   UNL     1      35.424 -24.484 -12.357  0.00  0.00    -0.016 C 
ATOM     18  C   UNL     1      36.524 -25.275 -12.669  0.00  0.00    +0.023 C 
ATOM     19  C   UNL     1      38.090 -26.189 -14.368  0.00  0.00    +0.066 C 
ENDBRANCH   7  14
BRANCH   1  21
ATOM     20  N   UNL     1      28.471 -24.792 -14.694  0.00  0.00    -0.242 NA
ATOM     21  C   UNL     1      30.348 -23.193 -16.068  0.00  0.00    +0.053 C 
ATOM     22  C   UNL     1      30.758 -24.297 -15.301  0.00  0.00    +0.035 C 
ATOM     23  C   UNL     1      28.974 -22.913 -16.129  0.00  0.00    +0.035 C 
ATOM     24  C   UNL     1      29.798 -25.050 -14.646  0.00  0.00    +0.100 C 
ATOM     25  C   UNL     1      28.093 -23.728 -15.437  0.00  0.00    +0.100 C 
ENDBRANCH   1  21
TORSDOF 2
ENDMDL
MODEL 6
REMARK VINA RESULT:     -10.0      1.617      6.251
REMARK  Name = 10267580
REMARK  2 active torsions:
REMARK  status: ('A' for Active; 'I' for Inactive)
REMARK    1  A    between atoms: N_1  and  C_21
REMARK    2  A    between atoms: C_7  and  C_14
REMARK                            x       y       z     vdW  Elec       q    Type
REMARK                         _______ _______ _______ _____ _____    ______ ____
ROOT
ATOM      1  N   UNL     1      32.597 -24.299 -14.688  0.00  0.00    -0.290 N 
ATOM      2  N   UNL     1      33.468 -22.999 -16.445  0.00  0.00    -0.327 NA
ATOM      3  N   UNL     1      35.825 -22.512 -16.562  0.00  0.00    -0.342 NA
ATOM      4  C   UNL     1      34.977 -23.841 -14.755  0.00  0.00    +0.143 C 
ATOM      5  C   UNL     1      33.713 -23.693 -15.317  0.00  0.00    +0.184 C 
ATOM      6  C   UNL     1      36.035 -23.213 -15.434  0.00  0.00    +0.133 C 
ATOM      7  C   UNL     1      34.554 -22.443 -17.006  0.00  0.00    +0.165 C 
ATOM      8  C   UNL     1      35.208 -24.571 -13.575  0.00  0.00    -0.011 C 
ATOM      9  C   UNL     1      37.315 -23.338 -14.901  0.00  0.00    +0.029 C 
ATOM     10  C   UNL     1      36.498 -24.678 -13.065  0.00  0.00    -0.004 C 
ATOM     11  C   UNL     1      37.552 -24.062 -13.729  0.00  0.00    +0.002 C 
ATOM     12  H   UNL     1      32.797 -25.065 -14.101  0.00  0.00    +0.154 HD
ENDROOT
BRANCH   7  14
ATOM     13  N   UNL     1      35.452 -21.151 -18.762  0.00  0.00    -0.398 NA
ATOM     14  C   UNL     1      34.338 -21.691 -18.215  0.00  0.00    +0.197 C 
ATOM     15  C   UNL     1      33.066 -21.549 -18.754  0.00  0.00    +0.098 C 
ATOM     16  C   UNL     1      35.281 -20.437 -19.898  0.00  0.00    +0.110 C 
ATOM     17  C   UNL     1      32.931 -20.808 -19.923  0.00  0.00    -0.016 C 
ATOM     18  C   UNL     1      34.054 -20.239 -20.512  0.00  0.00    +0.023 C 
ATOM     19  C   UNL     1      36.508 -19.842 -20.503  0.00  0.00    +0.066 C 
ENDBRANCH   7  14
BRANCH   1  21
ATOM     20  N   UNL     1      28.541 -23.237 -15.002  0.00  0.00    -0.242 NA
ATOM     21  C   UNL     1      31.264 -23.949 -14.791  0.00  0.00    +0.053 C 
ATOM     22  C   UNL     1      30.307 -24.870 -15.251  0.00  0.00    +0.035 C 
ATOM     23  C   UNL     1      30.821 -22.664 -14.440  0.00  0.00    +0.035 C 
ATOM     24  C   UNL     1      28.983 -24.471 -15.337  0.00  0.00    +0.100 C 
ATOM     25  C   UNL     1      29.474 -22.364 -14.562  0.00  0.00    +0.100 C 
ENDBRANCH   1  21
TORSDOF 2
ENDMDL
MODEL 7
REMARK VINA RESULT:      -8.4      1.774      5.675
REMARK  Name = 10267580
REMARK  2 active torsions:
REMARK  status: ('A' for Active; 'I' for Inactive)
REMARK    1  A    between atoms: N_1  and  C_21
REMARK    2  A    between atoms: C_7  and  C_14
REMARK                            x       y       z     vdW  Elec       q    Type
REMARK                         _______ _______ _______ _____ _____    ______ ____
ROOT
ATOM      1  N   UNL     1      34.972 -24.904 -13.131  0.00  0.00    -0.290 N 
ATOM      2  N   UNL     1      34.942 -23.654 -15.124  0.00  0.00    -0.327 NA
ATOM      3  N   UNL     1      32.855 -23.009 -16.139  0.00  0.00    -0.342 NA
ATOM      4  C   UNL     1      32.841 -24.283 -14.107  0.00  0.00    +0.143 C 
ATOM      5  C   UNL     1      34.232 -24.260 -14.153  0.00  0.00    +0.184 C 
ATOM      6  C   UNL     1      32.176 -23.624 -15.154  0.00  0.00    +0.133 C 
ATOM      7  C   UNL     1      34.200 -23.057 -16.070  0.00  0.00    +0.165 C 
ATOM      8  C   UNL     1      32.122 -24.924 -13.083  0.00  0.00    -0.011 C 
ATOM      9  C   UNL     1      30.784 -23.626 -15.142  0.00  0.00    +0.029 C 
ATOM     10  C   UNL     1      30.730 -24.910 -13.097  0.00  0.00    -0.004 C 
ATOM     11  C   UNL     1      30.061 -24.261 -14.128  0.00  0.00    +0.002 C 
ATOM     12  H   UNL     1      34.502 -25.032 -12.274  0.00  0.00    +0.154 HD
ENDROOT
BRANCH   7  14
ATOM     13  N   UNL     1      36.072 -21.796 -16.750  0.00  0.00    -0.398 NA
ATOM     14  C   UNL     1      34.919 -22.397 -17.128  0.00  0.00    +0.197 C 
ATOM     15  C   UNL     1      34.438 -22.394 -18.430  0.00  0.00    +0.098 C 
ATOM     16  C   UNL     1      36.770 -21.165 -17.722  0.00  0.00    +0.110 C 
ATOM     17  C   UNL     1      35.185 -21.735 -19.401  0.00  0.00    -0.016 C 
ATOM     18  C   UNL     1      36.374 -21.107 -19.048  0.00  0.00    +0.023 C 
ATOM     19  C   UNL     1      38.041 -20.503 -17.307  0.00  0.00    +0.066 C 
ENDBRANCH   7  14
BRANCH   1  21
ATOM     20  N   UNL     1      38.918 -26.347 -13.292  0.00  0.00    -0.242 NA
ATOM     21  C   UNL     1      36.269 -25.379 -13.184  0.00  0.00    +0.053 C 
ATOM     22  C   UNL     1      37.287 -24.793 -12.414  0.00  0.00    +0.035 C 
ATOM     23  C   UNL     1      36.613 -26.462 -14.008  0.00  0.00    +0.035 C 
ATOM     24  C   UNL     1      38.571 -25.304 -12.503  0.00  0.00    +0.100 C 
ATOM     25  C   UNL     1      37.927 -26.899 -14.026  0.00  0.00    +0.100 C 
ENDBRANCH   1  21
TORSDOF 2
ENDMDL
