MODEL 1
REMARK VINA RESULT:     -11.4      0.000      0.000
REMARK  Name = 9804992
REMARK  10 active torsions:
REMARK  status: ('A' for Active; 'I' for Inactive)
REMARK    1  A    between atoms: C_1  and  C_9
REMARK    2  A    between atoms: C_1  and  O_19
REMARK    3  A    between atoms: C_2  and  C_12
REMARK    4  A    between atoms: C_12  and  N_13
REMARK    5  A    between atoms: N_13  and  C_15
REMARK    6  A    between atoms: N_13  and  C_17
REMARK    7  A    between atoms: O_19  and  C_22
REMARK    8  A    between atoms: N_21  and  C_24
REMARK    9  A    between atoms: C_27  and  C_32
REMARK   10  A    between atoms: N_31  and  O_34
REMARK                            x       y       z     vdW  Elec       q    Type
REMARK                         _______ _______ _______ _____ _____    ______ ____
ROOT
ATOM      1  C   UNL     1      34.894 -17.679 -23.283  0.00  0.00    +0.237 C 
ENDROOT
BRANCH   1   9
ATOM      2  C   UNL     1      33.486 -11.366 -24.090  0.00  0.00    -0.043 C 
ATOM      3  C   UNL     1      34.144 -13.452 -23.025  0.00  0.00    -0.000 C 
ATOM      4  C   UNL     1      33.976 -14.126 -24.258  0.00  0.00    -0.000 C 
ATOM      5  C   UNL     1      33.895 -12.072 -22.958  0.00  0.00    -0.006 C 
ATOM      6  C   UNL     1      33.322 -12.029 -25.302  0.00  0.00    -0.006 C 
ATOM      7  C   UNL     1      33.565 -13.400 -25.388  0.00  0.00    -0.000 C 
ATOM      8  C   UNL     1      34.226 -15.506 -24.325  0.00  0.00    -0.001 C 
ATOM      9  C   UNL     1      34.634 -16.213 -23.193  0.00  0.00    +0.021 C 
ATOM     10  C   UNL     1      34.556 -14.178 -21.896  0.00  0.00    -0.000 C 
ATOM     11  C   UNL     1      34.799 -15.550 -21.981  0.00  0.00    -0.001 C 
BRANCH   2  12
ATOM     12  C   UNL     1      33.225  -9.900 -24.000  0.00  0.00    -0.050 C 
BRANCH  12  13
ATOM     13  N   UNL     1      33.034  -9.452 -22.620  0.00  0.00    +0.390 N 
ATOM     14  H   UNL     1      33.613 -10.026 -22.009  0.00  0.00    -0.079 HD
BRANCH  13  15
ATOM     15  C   UNL     1      33.451  -8.058 -22.476  0.00  0.00    -0.077 C 
ATOM     16  C   UNL     1      34.741  -7.789 -23.231  0.00  0.00    -0.025 C 
ENDBRANCH  13  15
BRANCH  13  17
ATOM     17  C   UNL     1      31.637  -9.613 -22.221  0.00  0.00    -0.077 C 
ATOM     18  C   UNL     1      31.529 -10.110 -20.789  0.00  0.00    -0.025 C 
ENDBRANCH  13  17
ENDBRANCH  12  13
ENDBRANCH   2  12
ENDBRANCH   1   9
BRANCH   1  19
ATOM     19  O   UNL     1      36.082 -17.993 -22.568  0.00  0.00    -0.429 OA
BRANCH  19  22
ATOM     20  O   UNL     1      36.518 -18.141 -20.327  0.00  0.00    -0.226 OA
ATOM     21  N   UNL     1      34.994 -19.565 -21.391  0.00  0.00    -0.250 N 
ATOM     22  C   UNL     1      35.917 -18.540 -21.318  0.00  0.00    +0.406 C 
ATOM     23  H   UNL     1      34.613 -19.740 -22.283  0.00  0.00    +0.158 HD
BRANCH  21  24
ATOM     24  C   UNL     1      34.528 -20.393 -20.345  0.00  0.00    +0.053 C 
ATOM     25  C   UNL     1      33.166 -20.434 -20.043  0.00  0.00    +0.015 C 
ATOM     26  C   UNL     1      35.429 -21.168 -19.615  0.00  0.00    +0.015 C 
ATOM     27  C   UNL     1      33.607 -22.026 -18.279  0.00  0.00    +0.055 C 
ATOM     28  C   UNL     1      32.706 -21.251 -19.010  0.00  0.00    +0.006 C 
ATOM     29  C   UNL     1      34.968 -21.985 -18.582  0.00  0.00    +0.006 C 
BRANCH  27  32
ATOM     30  O   UNL     1      33.891 -23.681 -16.637  0.00  0.00    -0.268 OA
ATOM     31  N   UNL     1      31.790 -22.759 -16.851  0.00  0.00    -0.193 N 
ATOM     32  C   UNL     1      33.127 -22.877 -17.203  0.00  0.00    +0.268 C 
ATOM     33  H   UNL     1      31.192 -22.120 -17.304  0.00  0.00    +0.183 HD
BRANCH  31  34
ATOM     34  O   UNL     1      31.330 -23.591 -15.820  0.00  0.00    -0.295 OA
ATOM     35  H   UNL     1      31.644 -24.497 -15.970  0.00  0.00    +0.241 HD
ENDBRANCH  31  34
ENDBRANCH  27  32
ENDBRANCH  21  24
ENDBRANCH  19  22
ENDBRANCH   1  19
TORSDOF 10
ENDMDL
MODEL 2
REMARK VINA RESULT:     -11.2      3.022     10.893
REMARK  Name = 9804992
REMARK  10 active torsions:
REMARK  status: ('A' for Active; 'I' for Inactive)
REMARK    1  A    between atoms: C_1  and  C_9
REMARK    2  A    between atoms: C_1  and  O_19
REMARK    3  A    between atoms: C_2  and  C_12
REMARK    4  A    between atoms: C_12  and  N_13
REMARK    5  A    between atoms: N_13  and  C_15
REMARK    6  A    between atoms: N_13  and  C_17
REMARK    7  A    between atoms: O_19  and  C_22
REMARK    8  A    between atoms: N_21  and  C_24
REMARK    9  A    between atoms: C_27  and  C_32
REMARK   10  A    between atoms: N_31  and  O_34
REMARK                            x       y       z     vdW  Elec       q    Type
REMARK                         _______ _______ _______ _____ _____    ______ ____
ROOT
ATOM      1  C   UNL     1      36.074 -17.455 -22.286  0.00  0.00    +0.237 C 
ENDROOT
BRANCH   1   9
ATOM      2  C   UNL     1      33.738 -22.216 -18.497  0.00  0.00    -0.043 C 
ATOM      3  C   UNL     1      35.313 -20.731 -19.604  0.00  0.00    -0.000 C 
ATOM      4  C   UNL     1      34.235 -20.077 -20.247  0.00  0.00    -0.000 C 
ATOM      5  C   UNL     1      35.048 -21.799 -18.732  0.00  0.00    -0.006 C 
ATOM      6  C   UNL     1      32.678 -21.573 -19.128  0.00  0.00    -0.006 C 
ATOM      7  C   UNL     1      32.923 -20.511 -19.998  0.00  0.00    -0.000 C 
ATOM      8  C   UNL     1      34.500 -19.009 -21.119  0.00  0.00    -0.001 C 
ATOM      9  C   UNL     1      35.811 -18.592 -21.356  0.00  0.00    +0.021 C 
ATOM     10  C   UNL     1      36.626 -20.297 -19.854  0.00  0.00    -0.000 C 
ATOM     11  C   UNL     1      36.871 -19.234 -20.724  0.00  0.00    -0.001 C 
BRANCH   2  12
ATOM     12  C   UNL     1      33.474 -23.353 -17.567  0.00  0.00    -0.050 C 
BRANCH  12  13
ATOM     13  N   UNL     1      33.225 -22.905 -16.197  0.00  0.00    +0.390 N 
ATOM     14  H   UNL     1      33.386 -21.900 -16.149  0.00  0.00    -0.079 HD
BRANCH  13  15
ATOM     15  C   UNL     1      31.837 -23.169 -15.819  0.00  0.00    -0.077 C 
ATOM     16  C   UNL     1      31.584 -22.802 -14.367  0.00  0.00    -0.025 C 
ENDBRANCH  13  15
BRANCH  13  17
ATOM     17  C   UNL     1      34.143 -23.565 -15.270  0.00  0.00    -0.077 C 
ATOM     18  C   UNL     1      35.412 -22.752 -15.081  0.00  0.00    -0.025 C 
ENDBRANCH  13  17
ENDBRANCH  12  13
ENDBRANCH   2  12
ENDBRANCH   1   9
BRANCH   1  19
ATOM     19  O   UNL     1      35.199 -17.547 -23.403  0.00  0.00    -0.429 OA
BRANCH  19  22
ATOM     20  O   UNL     1      34.087 -16.217 -24.894  0.00  0.00    -0.226 OA
ATOM     21  N   UNL     1      34.564 -15.507 -22.715  0.00  0.00    -0.250 N 
ATOM     22  C   UNL     1      34.564 -16.388 -23.778  0.00  0.00    +0.406 C 
ATOM     23  H   UNL     1      34.999 -15.826 -21.890  0.00  0.00    +0.158 HD
BRANCH  21  24
ATOM     24  C   UNL     1      34.018 -14.204 -22.663  0.00  0.00    +0.053 C 
ATOM     25  C   UNL     1      33.277 -13.803 -21.552  0.00  0.00    +0.015 C 
ATOM     26  C   UNL     1      34.220 -13.321 -23.724  0.00  0.00    +0.015 C 
ATOM     27  C   UNL     1      32.939 -11.634 -22.562  0.00  0.00    +0.055 C 
ATOM     28  C   UNL     1      32.737 -12.518 -21.501  0.00  0.00    +0.006 C 
ATOM     29  C   UNL     1      33.680 -12.036 -23.673  0.00  0.00    +0.006 C 
BRANCH  27  32
ATOM     30  O   UNL     1      31.409 -10.039 -21.768  0.00  0.00    -0.268 OA
ATOM     31  N   UNL     1      32.954  -9.332 -23.323  0.00  0.00    -0.193 N 
ATOM     32  C   UNL     1      32.376 -10.295 -22.509  0.00  0.00    +0.268 C 
ATOM     33  H   UNL     1      33.720  -9.542 -23.906  0.00  0.00    +0.183 HD
BRANCH  31  34
ATOM     34  O   UNL     1      32.398  -8.045 -23.276  0.00  0.00    -0.295 OA
ATOM     35  H   UNL     1      31.795  -7.925 -24.026  0.00  0.00    +0.241 HD
ENDBRANCH  31  34
ENDBRANCH  27  32
ENDBRANCH  21  24
ENDBRANCH  19  22
ENDBRANCH   1  19
TORSDOF 10
ENDMDL
MODEL 3
REMARK VINA RESULT:     -11.2      3.076     11.298
REMARK  Name = 9804992
REMARK  10 active torsions:
REMARK  status: ('A' for Active; 'I' for Inactive)
REMARK    1  A    between atoms: C_1  and  C_9
REMARK    2  A    between atoms: C_1  and  O_19
REMARK    3  A    between atoms: C_2  and  C_12
REMARK    4  A    between atoms: C_12  and  N_13
REMARK    5  A    between atoms: N_13  and  C_15
REMARK    6  A    between atoms: N_13  and  C_17
REMARK    7  A    between atoms: O_19  and  C_22
REMARK    8  A    between atoms: N_21  and  C_24
REMARK    9  A    between atoms: C_27  and  C_32
REMARK   10  A    between atoms: N_31  and  O_34
REMARK                            x       y       z     vdW  Elec       q    Type
REMARK                         _______ _______ _______ _____ _____    ______ ____
ROOT
ATOM      1  C   UNL     1      36.571 -20.643 -20.105  0.00  0.00    +0.237 C 
ENDROOT
BRANCH   1   9
ATOM      2  C   UNL     1      32.298 -23.315 -15.972  0.00  0.00    -0.043 C 
ATOM      3  C   UNL     1      33.192 -22.117 -17.890  0.00  0.00    -0.000 C 
ATOM      4  C   UNL     1      34.505 -22.354 -17.418  0.00  0.00    -0.000 C 
ATOM      5  C   UNL     1      32.099 -22.605 -17.156  0.00  0.00    -0.006 C 
ATOM      6  C   UNL     1      33.589 -23.549 -15.508  0.00  0.00    -0.006 C 
ATOM      7  C   UNL     1      34.686 -23.071 -16.225  0.00  0.00    -0.000 C 
ATOM      8  C   UNL     1      35.597 -21.866 -18.153  0.00  0.00    -0.001 C 
ATOM      9  C   UNL     1      35.398 -21.154 -19.337  0.00  0.00    +0.021 C 
ATOM     10  C   UNL     1      33.010 -21.399 -19.084  0.00  0.00    -0.000 C 
ATOM     11  C   UNL     1      34.108 -20.922 -19.802  0.00  0.00    -0.001 C 
BRANCH   2  12
ATOM     12  C   UNL     1      31.126 -23.826 -15.203  0.00  0.00    -0.050 C 
BRANCH  12  13
ATOM     13  N   UNL     1      30.683 -22.887 -14.173  0.00  0.00    +0.390 N 
ATOM     14  H   UNL     1      31.243 -22.038 -14.245  0.00  0.00    -0.079 HD
BRANCH  13  15
ATOM     15  C   UNL     1      29.279 -22.533 -14.375  0.00  0.00    -0.077 C 
ATOM     16  C   UNL     1      28.601 -23.500 -15.331  0.00  0.00    -0.025 C 
ENDBRANCH  13  15
BRANCH  13  17
ATOM     17  C   UNL     1      30.880 -23.459 -12.842  0.00  0.00    -0.077 C 
ATOM     18  C   UNL     1      31.155 -24.951 -12.921  0.00  0.00    -0.025 C 
ENDBRANCH  13  17
ENDBRANCH  12  13
ENDBRANCH   2  12
ENDBRANCH   1   9
BRANCH   1  19
ATOM     19  O   UNL     1      36.813 -19.287 -19.750  0.00  0.00    -0.429 OA
BRANCH  19  22
ATOM     20  O   UNL     1      37.719 -18.209 -21.552  0.00  0.00    -0.226 OA
ATOM     21  N   UNL     1      35.572 -17.714 -20.761  0.00  0.00    -0.250 N 
ATOM     22  C   UNL     1      36.786 -18.373 -20.775  0.00  0.00    +0.406 C 
ATOM     23  H   UNL     1      34.942 -17.986 -20.054  0.00  0.00    +0.158 HD
BRANCH  21  24
ATOM     24  C   UNL     1      35.122 -16.699 -21.636  0.00  0.00    +0.053 C 
ATOM     25  C   UNL     1      35.017 -16.954 -23.004  0.00  0.00    +0.015 C 
ATOM     26  C   UNL     1      34.784 -15.443 -21.132  0.00  0.00    +0.015 C 
ATOM     27  C   UNL     1      34.236 -14.695 -23.363  0.00  0.00    +0.055 C 
ATOM     28  C   UNL     1      34.574 -15.952 -23.867  0.00  0.00    +0.006 C 
ATOM     29  C   UNL     1      34.342 -14.441 -21.996  0.00  0.00    +0.006 C 
BRANCH  27  32
ATOM     30  O   UNL     1      33.287 -13.937 -25.373  0.00  0.00    -0.268 OA
ATOM     31  N   UNL     1      33.915 -12.339 -23.836  0.00  0.00    -0.193 N 
ATOM     32  C   UNL     1      33.775 -13.651 -24.264  0.00  0.00    +0.268 C 
ATOM     33  H   UNL     1      34.303 -12.122 -22.957  0.00  0.00    +0.183 HD
BRANCH  31  34
ATOM     34  O   UNL     1      33.480 -11.336 -24.715  0.00  0.00    -0.295 OA
ATOM     35  H   UNL     1      33.136 -10.586 -24.206  0.00  0.00    +0.241 HD
ENDBRANCH  31  34
ENDBRANCH  27  32
ENDBRANCH  21  24
ENDBRANCH  19  22
ENDBRANCH   1  19
TORSDOF 10
ENDMDL
MODEL 4
REMARK VINA RESULT:     -11.2      2.825     11.091
REMARK  Name = 9804992
REMARK  10 active torsions:
REMARK  status: ('A' for Active; 'I' for Inactive)
REMARK    1  A    between atoms: C_1  and  C_9
REMARK    2  A    between atoms: C_1  and  O_19
REMARK    3  A    between atoms: C_2  and  C_12
REMARK    4  A    between atoms: C_12  and  N_13
REMARK    5  A    between atoms: N_13  and  C_15
REMARK    6  A    between atoms: N_13  and  C_17
REMARK    7  A    between atoms: O_19  and  C_22
REMARK    8  A    between atoms: N_21  and  C_24
REMARK    9  A    between atoms: C_27  and  C_32
REMARK   10  A    between atoms: N_31  and  O_34
REMARK                            x       y       z     vdW  Elec       q    Type
REMARK                         _______ _______ _______ _____ _____    ______ ____
ROOT
ATOM      1  C   UNL     1      35.628 -19.047 -21.851  0.00  0.00    +0.237 C 
ENDROOT
BRANCH   1   9
ATOM      2  C   UNL     1      33.489 -22.789 -16.961  0.00  0.00    -0.043 C 
ATOM      3  C   UNL     1      33.479 -21.356 -18.926  0.00  0.00    -0.000 C 
ATOM      4  C   UNL     1      34.892 -21.283 -18.872  0.00  0.00    -0.000 C 
ATOM      5  C   UNL     1      32.793 -22.113 -17.964  0.00  0.00    -0.006 C 
ATOM      6  C   UNL     1      34.878 -22.718 -16.908  0.00  0.00    -0.006 C 
ATOM      7  C   UNL     1      35.576 -21.970 -17.856  0.00  0.00    -0.000 C 
ATOM      8  C   UNL     1      35.578 -20.525 -19.834  0.00  0.00    -0.001 C 
ATOM      9  C   UNL     1      34.882 -19.848 -20.837  0.00  0.00    +0.021 C 
ATOM     10  C   UNL     1      32.795 -20.668 -19.942  0.00  0.00    -0.000 C 
ATOM     11  C   UNL     1      33.493 -19.920 -20.891  0.00  0.00    -0.001 C 
BRANCH   2  12
ATOM     12  C   UNL     1      32.744 -23.589 -15.947  0.00  0.00    -0.050 C 
BRANCH  12  13
ATOM     13  N   UNL     1      31.562 -22.889 -15.443  0.00  0.00    +0.390 N 
ATOM     14  H   UNL     1      31.455 -22.018 -15.962  0.00  0.00    -0.079 HD
BRANCH  13  15
ATOM     15  C   UNL     1      30.363 -23.700 -15.649  0.00  0.00    -0.077 C 
ATOM     16  C   UNL     1      29.112 -22.838 -15.657  0.00  0.00    -0.025 C 
ENDBRANCH  13  15
BRANCH  13  17
ATOM     17  C   UNL     1      31.725 -22.566 -14.027  0.00  0.00    -0.077 C 
ATOM     18  C   UNL     1      32.325 -23.735 -13.263  0.00  0.00    -0.025 C 
ENDBRANCH  13  17
ENDBRANCH  12  13
ENDBRANCH   2  12
ENDBRANCH   1   9
BRANCH   1  19
ATOM     19  O   UNL     1      35.022 -19.218 -23.126  0.00  0.00    -0.429 OA
BRANCH  19  22
ATOM     20  O   UNL     1      33.715 -18.144 -24.665  0.00  0.00    -0.226 OA
ATOM     21  N   UNL     1      34.843 -16.986 -22.972  0.00  0.00    -0.250 N 
ATOM     22  C   UNL     1      34.451 -18.101 -23.686  0.00  0.00    +0.406 C 
ATOM     23  H   UNL     1      35.442 -17.151 -22.208  0.00  0.00    +0.158 HD
BRANCH  21  24
ATOM     24  C   UNL     1      34.490 -15.637 -23.201  0.00  0.00    +0.053 C 
ATOM     25  C   UNL     1      34.587 -14.705 -22.167  0.00  0.00    +0.015 C 
ATOM     26  C   UNL     1      34.044 -15.236 -24.461  0.00  0.00    +0.015 C 
ATOM     27  C   UNL     1      33.792 -12.974 -23.653  0.00  0.00    +0.055 C 
ATOM     28  C   UNL     1      34.238 -13.374 -22.393  0.00  0.00    +0.006 C 
ATOM     29  C   UNL     1      33.695 -13.905 -24.687  0.00  0.00    +0.006 C 
BRANCH  27  32
ATOM     30  O   UNL     1      33.502 -11.091 -25.028  0.00  0.00    -0.268 OA
ATOM     31  N   UNL     1      33.010 -10.847 -22.790  0.00  0.00    -0.193 N 
ATOM     32  C   UNL     1      33.428 -11.586 -23.888  0.00  0.00    +0.268 C 
ATOM     33  H   UNL     1      32.954 -11.246 -21.891  0.00  0.00    +0.183 HD
BRANCH  31  34
ATOM     34  O   UNL     1      32.673  -9.505 -23.021  0.00  0.00    -0.295 OA
ATOM     35  H   UNL     1      32.896  -8.976 -22.239  0.00  0.00    +0.241 HD
ENDBRANCH  31  34
ENDBRANCH  27  32
ENDBRANCH  21  24
ENDBRANCH  19  22
ENDBRANCH   1  19
TORSDOF 10
ENDMDL
MODEL 5
REMARK VINA RESULT:     -11.0      1.636      2.521
REMARK  Name = 9804992
REMARK  10 active torsions:
REMARK  status: ('A' for Active; 'I' for Inactive)
REMARK    1  A    between atoms: C_1  and  C_9
REMARK    2  A    between atoms: C_1  and  O_19
REMARK    3  A    between atoms: C_2  and  C_12
REMARK    4  A    between atoms: C_12  and  N_13
REMARK    5  A    between atoms: N_13  and  C_15
REMARK    6  A    between atoms: N_13  and  C_17
REMARK    7  A    between atoms: O_19  and  C_22
REMARK    8  A    between atoms: N_21  and  C_24
REMARK    9  A    between atoms: C_27  and  C_32
REMARK   10  A    between atoms: N_31  and  O_34
REMARK                            x       y       z     vdW  Elec       q    Type
REMARK                         _______ _______ _______ _____ _____    ______ ____
ROOT
ATOM      1  C   UNL     1      35.590 -16.660 -22.916  0.00  0.00    +0.237 C 
ENDROOT
BRANCH   1   9
ATOM      2  C   UNL     1      32.002 -11.480 -21.247  0.00  0.00    -0.043 C 
ATOM      3  C   UNL     1      33.295 -13.036 -22.598  0.00  0.00    -0.000 C 
ATOM      4  C   UNL     1      33.500 -13.847 -21.456  0.00  0.00    -0.000 C 
ATOM      5  C   UNL     1      32.543 -11.856 -22.477  0.00  0.00    -0.006 C 
ATOM      6  C   UNL     1      32.203 -12.278 -20.125  0.00  0.00    -0.006 C 
ATOM      7  C   UNL     1      32.947 -13.453 -20.226  0.00  0.00    -0.000 C 
ATOM      8  C   UNL     1      34.251 -15.027 -21.576  0.00  0.00    -0.001 C 
ATOM      9  C   UNL     1      34.794 -15.403 -22.806  0.00  0.00    +0.021 C 
ATOM     10  C   UNL     1      33.848 -13.430 -23.827  0.00  0.00    -0.000 C 
ATOM     11  C   UNL     1      34.592 -14.607 -23.929  0.00  0.00    -0.001 C 
BRANCH   2  12
ATOM     12  C   UNL     1      31.206 -10.223 -21.137  0.00  0.00    -0.050 C 
BRANCH  12  13
ATOM     13  N   UNL     1      32.053  -9.030 -21.091  0.00  0.00    +0.390 N 
ATOM     14  H   UNL     1      32.990  -9.286 -21.400  0.00  0.00    -0.079 HD
BRANCH  13  15
ATOM     15  C   UNL     1      31.534  -8.003 -21.993  0.00  0.00    -0.077 C 
ATOM     16  C   UNL     1      32.304  -7.981 -23.302  0.00  0.00    -0.025 C 
ENDBRANCH  13  15
BRANCH  13  17
ATOM     17  C   UNL     1      32.138  -8.518 -19.725  0.00  0.00    -0.077 C 
ATOM     18  C   UNL     1      32.566  -7.060 -19.711  0.00  0.00    -0.025 C 
ENDBRANCH  13  17
ENDBRANCH  12  13
ENDBRANCH   2  12
ENDBRANCH   1   9
BRANCH   1  19
ATOM     19  O   UNL     1      34.848 -17.626 -23.649  0.00  0.00    -0.429 OA
BRANCH  19  22
ATOM     20  O   UNL     1      34.706 -19.907 -23.729  0.00  0.00    -0.226 OA
ATOM     21  N   UNL     1      34.656 -18.732 -21.705  0.00  0.00    -0.250 N 
ATOM     22  C   UNL     1      34.732 -18.870 -23.077  0.00  0.00    +0.406 C 
ATOM     23  H   UNL     1      34.694 -17.809 -21.361  0.00  0.00    +0.158 HD
BRANCH  21  24
ATOM     24  C   UNL     1      34.530 -19.750 -20.733  0.00  0.00    +0.053 C 
ATOM     25  C   UNL     1      33.264 -20.194 -20.349  0.00  0.00    +0.015 C 
ATOM     26  C   UNL     1      35.670 -20.310 -20.158  0.00  0.00    +0.015 C 
ATOM     27  C   UNL     1      34.280 -21.759 -18.813  0.00  0.00    +0.055 C 
ATOM     28  C   UNL     1      33.139 -21.198 -19.389  0.00  0.00    +0.006 C 
ATOM     29  C   UNL     1      35.545 -21.314 -19.197  0.00  0.00    +0.006 C 
BRANCH  27  32
ATOM     30  O   UNL     1      33.386 -23.771 -17.996  0.00  0.00    -0.268 OA
ATOM     31  N   UNL     1      34.899 -22.669 -16.652  0.00  0.00    -0.193 N 
ATOM     32  C   UNL     1      34.150 -22.805 -17.812  0.00  0.00    +0.268 C 
ATOM     33  H   UNL     1      35.502 -21.902 -16.515  0.00  0.00    +0.183 HD
BRANCH  31  34
ATOM     34  O   UNL     1      34.759 -23.675 -15.685  0.00  0.00    -0.295 OA
ATOM     35  H   UNL     1      33.817 -23.828 -15.511  0.00  0.00    +0.241 HD
ENDBRANCH  31  34
ENDBRANCH  27  32
ENDBRANCH  21  24
ENDBRANCH  19  22
ENDBRANCH   1  19
TORSDOF 10
ENDMDL
MODEL 6
REMARK VINA RESULT:     -10.9      2.138      3.622
REMARK  Name = 9804992
REMARK  10 active torsions:
REMARK  status: ('A' for Active; 'I' for Inactive)
REMARK    1  A    between atoms: C_1  and  C_9
REMARK    2  A    between atoms: C_1  and  O_19
REMARK    3  A    between atoms: C_2  and  C_12
REMARK    4  A    between atoms: C_12  and  N_13
REMARK    5  A    between atoms: N_13  and  C_15
REMARK    6  A    between atoms: N_13  and  C_17
REMARK    7  A    between atoms: O_19  and  C_22
REMARK    8  A    between atoms: N_21  and  C_24
REMARK    9  A    between atoms: C_27  and  C_32
REMARK   10  A    between atoms: N_31  and  O_34
REMARK                            x       y       z     vdW  Elec       q    Type
REMARK                         _______ _______ _______ _____ _____    ______ ____
ROOT
ATOM      1  C   UNL     1      33.796 -15.040 -24.083  0.00  0.00    +0.237 C 
ENDROOT
BRANCH   1   9
ATOM      2  C   UNL     1      32.078  -9.232 -21.677  0.00  0.00    -0.043 C 
ATOM      3  C   UNL     1      33.031 -10.911 -23.156  0.00  0.00    -0.000 C 
ATOM      4  C   UNL     1      32.576 -11.928 -22.283  0.00  0.00    -0.000 C 
ATOM      5  C   UNL     1      32.773  -9.567 -22.838  0.00  0.00    -0.006 C 
ATOM      6  C   UNL     1      31.630 -10.232 -20.819  0.00  0.00    -0.006 C 
ATOM      7  C   UNL     1      31.877 -11.571 -21.118  0.00  0.00    -0.000 C 
ATOM      8  C   UNL     1      32.834 -13.271 -22.600  0.00  0.00    -0.001 C 
ATOM      9  C   UNL     1      33.531 -13.608 -23.762  0.00  0.00    +0.021 C 
ATOM     10  C   UNL     1      33.730 -11.268 -24.320  0.00  0.00    -0.000 C 
ATOM     11  C   UNL     1      33.977 -12.608 -24.620  0.00  0.00    -0.001 C 
BRANCH   2  12
ATOM     12  C   UNL     1      31.813  -7.799 -21.355  0.00  0.00    -0.050 C 
BRANCH  12  13
ATOM     13  N   UNL     1      32.160  -6.906 -22.461  0.00  0.00    +0.390 N 
ATOM     14  H   UNL     1      32.241  -7.460 -23.313  0.00  0.00    -0.079 HD
BRANCH  13  15
ATOM     15  C   UNL     1      31.112  -5.906 -22.657  0.00  0.00    -0.077 C 
ATOM     16  C   UNL     1      30.913  -5.066 -21.408  0.00  0.00    -0.025 C 
ENDBRANCH  13  15
BRANCH  13  17
ATOM     17  C   UNL     1      33.445  -6.258 -22.208  0.00  0.00    -0.077 C 
ATOM     18  C   UNL     1      34.313  -6.251 -23.455  0.00  0.00    -0.025 C 
ENDBRANCH  13  17
ENDBRANCH  12  13
ENDBRANCH   2  12
ENDBRANCH   1   9
BRANCH   1  19
ATOM     19  O   UNL     1      35.084 -15.401 -23.603  0.00  0.00    -0.429 OA
BRANCH  19  22
ATOM     20  O   UNL     1      34.985 -15.505 -21.320  0.00  0.00    -0.226 OA
ATOM     21  N   UNL     1      35.340 -17.410 -22.634  0.00  0.00    -0.250 N 
ATOM     22  C   UNL     1      35.126 -16.065 -22.401  0.00  0.00    +0.406 C 
ATOM     23  H   UNL     1      35.428 -17.675 -23.579  0.00  0.00    +0.158 HD
BRANCH  21  24
ATOM     24  C   UNL     1      35.450 -18.451 -21.685  0.00  0.00    +0.053 C 
ATOM     25  C   UNL     1      34.338 -19.238 -21.382  0.00  0.00    +0.015 C 
ATOM     26  C   UNL     1      36.669 -18.692 -21.051  0.00  0.00    +0.015 C 
ATOM     27  C   UNL     1      35.666 -20.506 -19.810  0.00  0.00    +0.055 C 
ATOM     28  C   UNL     1      34.446 -20.265 -20.445  0.00  0.00    +0.006 C 
ATOM     29  C   UNL     1      36.777 -19.719 -20.114  0.00  0.00    +0.006 C 
BRANCH  27  32
ATOM     30  O   UNL     1      35.019 -22.563 -18.879  0.00  0.00    -0.268 OA
ATOM     31  N   UNL     1      36.750 -21.441 -17.853  0.00  0.00    -0.193 N 
ATOM     32  C   UNL     1      35.777 -21.577 -18.833  0.00  0.00    +0.268 C 
ATOM     33  H   UNL     1      37.347 -20.658 -17.824  0.00  0.00    +0.183 HD
BRANCH  31  34
ATOM     34  O   UNL     1      36.844 -22.471 -16.907  0.00  0.00    -0.295 OA
ATOM     35  H   UNL     1      37.776 -22.706 -16.774  0.00  0.00    +0.241 HD
ENDBRANCH  31  34
ENDBRANCH  27  32
ENDBRANCH  21  24
ENDBRANCH  19  22
ENDBRANCH   1  19
TORSDOF 10
ENDMDL
MODEL 7
REMARK VINA RESULT:     -10.7      3.903     12.223
REMARK  Name = 9804992
REMARK  10 active torsions:
REMARK  status: ('A' for Active; 'I' for Inactive)
REMARK    1  A    between atoms: C_1  and  C_9
REMARK    2  A    between atoms: C_1  and  O_19
REMARK    3  A    between atoms: C_2  and  C_12
REMARK    4  A    between atoms: C_12  and  N_13
REMARK    5  A    between atoms: N_13  and  C_15
REMARK    6  A    between atoms: N_13  and  C_17
REMARK    7  A    between atoms: O_19  and  C_22
REMARK    8  A    between atoms: N_21  and  C_24
REMARK    9  A    between atoms: C_27  and  C_32
REMARK   10  A    between atoms: N_31  and  O_34
REMARK                            x       y       z     vdW  Elec       q    Type
REMARK                         _______ _______ _______ _____ _____    ______ ____
ROOT
ATOM      1  C   UNL     1      35.567 -20.567 -20.205  0.00  0.00    +0.237 C 
ENDROOT
BRANCH   1   9
ATOM      2  C   UNL     1      36.083 -23.494 -14.404  0.00  0.00    -0.043 C 
ATOM      3  C   UNL     1      35.129 -22.698 -16.495  0.00  0.00    -0.000 C 
ATOM      4  C   UNL     1      36.370 -22.104 -16.827  0.00  0.00    -0.000 C 
ATOM      5  C   UNL     1      35.002 -23.389 -15.279  0.00  0.00    -0.006 C 
ATOM      6  C   UNL     1      37.303 -22.910 -14.732  0.00  0.00    -0.006 C 
ATOM      7  C   UNL     1      37.448 -22.220 -15.934  0.00  0.00    -0.000 C 
ATOM      8  C   UNL     1      36.496 -21.412 -18.043  0.00  0.00    -0.001 C 
ATOM      9  C   UNL     1      35.415 -21.306 -18.919  0.00  0.00    +0.021 C 
ATOM     10  C   UNL     1      34.051 -22.582 -17.388  0.00  0.00    -0.000 C 
ATOM     11  C   UNL     1      34.195 -21.891 -18.592  0.00  0.00    -0.001 C 
BRANCH   2  12
ATOM     12  C   UNL     1      35.931 -24.232 -13.117  0.00  0.00    -0.050 C 
BRANCH  12  13
ATOM     13  N   UNL     1      37.190 -24.820 -12.659  0.00  0.00    +0.390 N 
ATOM     14  H   UNL     1      37.952 -24.427 -13.212  0.00  0.00    -0.079 HD
BRANCH  13  15
ATOM     15  C   UNL     1      37.424 -24.493 -11.253  0.00  0.00    -0.077 C 
ATOM     16  C   UNL     1      37.206 -23.013 -10.990  0.00  0.00    -0.025 C 
ENDBRANCH  13  15
BRANCH  13  17
ATOM     17  C   UNL     1      37.177 -26.268 -12.854  0.00  0.00    -0.077 C 
ATOM     18  C   UNL     1      38.158 -26.687 -13.936  0.00  0.00    -0.025 C 
ENDBRANCH  13  17
ENDBRANCH  12  13
ENDBRANCH   2  12
ENDBRANCH   1   9
BRANCH   1  19
ATOM     19  O   UNL     1      36.712 -19.728 -20.135  0.00  0.00    -0.429 OA
BRANCH  19  22
ATOM     20  O   UNL     1      37.763 -18.329 -21.607  0.00  0.00    -0.226 OA
ATOM     21  N   UNL     1      35.494 -18.098 -21.081  0.00  0.00    -0.250 N 
ATOM     22  C   UNL     1      36.749 -18.669 -21.009  0.00  0.00    +0.406 C 
ATOM     23  H   UNL     1      34.798 -18.514 -20.522  0.00  0.00    +0.158 HD
BRANCH  21  24
ATOM     24  C   UNL     1      35.085 -16.989 -21.857  0.00  0.00    +0.053 C 
ATOM     25  C   UNL     1      34.921 -17.126 -23.236  0.00  0.00    +0.015 C 
ATOM     26  C   UNL     1      34.845 -15.759 -21.245  0.00  0.00    +0.015 C 
ATOM     27  C   UNL     1      34.279 -14.802 -23.389  0.00  0.00    +0.055 C 
ATOM     28  C   UNL     1      34.518 -16.033 -24.002  0.00  0.00    +0.006 C 
ATOM     29  C   UNL     1      34.442 -14.666 -22.011  0.00  0.00    +0.006 C 
BRANCH  27  32
ATOM     30  O   UNL     1      33.322 -13.826 -25.299  0.00  0.00    -0.268 OA
ATOM     31  N   UNL     1      34.095 -12.400 -23.664  0.00  0.00    -0.193 N 
ATOM     32  C   UNL     1      33.859 -13.662 -24.188  0.00  0.00    +0.268 C 
ATOM     33  H   UNL     1      34.521 -12.278 -22.784  0.00  0.00    +0.183 HD
BRANCH  31  34
ATOM     34  O   UNL     1      33.700 -11.304 -24.445  0.00  0.00    -0.295 OA
ATOM     35  H   UNL     1      33.993 -11.436 -25.360  0.00  0.00    +0.241 HD
ENDBRANCH  31  34
ENDBRANCH  27  32
ENDBRANCH  21  24
ENDBRANCH  19  22
ENDBRANCH   1  19
TORSDOF 10
ENDMDL
MODEL 8
REMARK VINA RESULT:     -10.7      2.836     11.075
REMARK  Name = 9804992
REMARK  10 active torsions:
REMARK  status: ('A' for Active; 'I' for Inactive)
REMARK    1  A    between atoms: C_1  and  C_9
REMARK    2  A    between atoms: C_1  and  O_19
REMARK    3  A    between atoms: C_2  and  C_12
REMARK    4  A    between atoms: C_12  and  N_13
REMARK    5  A    between atoms: N_13  and  C_15
REMARK    6  A    between atoms: N_13  and  C_17
REMARK    7  A    between atoms: O_19  and  C_22
REMARK    8  A    between atoms: N_21  and  C_24
REMARK    9  A    between atoms: C_27  and  C_32
REMARK   10  A    between atoms: N_31  and  O_34
REMARK                            x       y       z     vdW  Elec       q    Type
REMARK                         _______ _______ _______ _____ _____    ______ ____
ROOT
ATOM      1  C   UNL     1      35.985 -18.644 -22.000  0.00  0.00    +0.237 C 
ENDROOT
BRANCH   1   9
ATOM      2  C   UNL     1      33.378 -22.596 -17.521  0.00  0.00    -0.043 C 
ATOM      3  C   UNL     1      35.037 -21.427 -18.861  0.00  0.00    -0.000 C 
ATOM      4  C   UNL     1      33.998 -20.779 -19.570  0.00  0.00    -0.000 C 
ATOM      5  C   UNL     1      34.710 -22.333 -17.840  0.00  0.00    -0.006 C 
ATOM      6  C   UNL     1      32.356 -21.958 -18.217  0.00  0.00    -0.006 C 
ATOM      7  C   UNL     1      32.662 -21.055 -19.235  0.00  0.00    -0.000 C 
ATOM      8  C   UNL     1      34.324 -19.872 -20.592  0.00  0.00    -0.001 C 
ATOM      9  C   UNL     1      35.657 -19.609 -20.911  0.00  0.00    +0.021 C 
ATOM     10  C   UNL     1      36.373 -21.150 -19.196  0.00  0.00    -0.000 C 
ATOM     11  C   UNL     1      36.679 -20.246 -20.214  0.00  0.00    -0.001 C 
BRANCH   2  12
ATOM     12  C   UNL     1      33.049 -23.562 -16.433  0.00  0.00    -0.050 C 
BRANCH  12  13
ATOM     13  N   UNL     1      33.579 -23.141 -15.135  0.00  0.00    +0.390 N 
ATOM     14  H   UNL     1      34.034 -22.236 -15.248  0.00  0.00    -0.079 HD
BRANCH  13  15
ATOM     15  C   UNL     1      32.495 -22.996 -14.165  0.00  0.00    -0.077 C 
ATOM     16  C   UNL     1      31.138 -23.034 -14.848  0.00  0.00    -0.025 C 
ENDBRANCH  13  15
BRANCH  13  17
ATOM     17  C   UNL     1      34.571 -24.100 -14.655  0.00  0.00    -0.077 C 
ATOM     18  C   UNL     1      34.752 -23.996 -13.150  0.00  0.00    -0.025 C 
ENDBRANCH  13  17
ENDBRANCH  12  13
ENDBRANCH   2  12
ENDBRANCH   1   9
BRANCH   1  19
ATOM     19  O   UNL     1      35.104 -18.850 -23.096  0.00  0.00    -0.429 OA
BRANCH  19  22
ATOM     20  O   UNL     1      34.003 -17.733 -24.760  0.00  0.00    -0.226 OA
ATOM     21  N   UNL     1      34.794 -16.642 -22.846  0.00  0.00    -0.250 N 
ATOM     22  C   UNL     1      34.574 -17.723 -23.676  0.00  0.00    +0.406 C 
ATOM     23  H   UNL     1      35.274 -16.832 -22.007  0.00  0.00    +0.158 HD
BRANCH  21  24
ATOM     24  C   UNL     1      34.416 -15.295 -23.051  0.00  0.00    +0.053 C 
ATOM     25  C   UNL     1      33.879 -14.901 -24.277  0.00  0.00    +0.015 C 
ATOM     26  C   UNL     1      34.580 -14.361 -22.029  0.00  0.00    +0.015 C 
ATOM     27  C   UNL     1      33.672 -12.638 -23.457  0.00  0.00    +0.055 C 
ATOM     28  C   UNL     1      33.507 -13.572 -24.480  0.00  0.00    +0.006 C 
ATOM     29  C   UNL     1      34.208 -13.032 -22.232  0.00  0.00    +0.006 C 
BRANCH  27  32
ATOM     30  O   UNL     1      33.523 -10.683 -24.750  0.00  0.00    -0.268 OA
ATOM     31  N   UNL     1      32.653 -10.603 -22.618  0.00  0.00    -0.193 N 
ATOM     32  C   UNL     1      33.284 -11.253 -23.670  0.00  0.00    +0.268 C 
ATOM     33  H   UNL     1      32.467 -11.062 -21.766  0.00  0.00    +0.183 HD
BRANCH  31  34
ATOM     34  O   UNL     1      32.293  -9.264 -22.825  0.00  0.00    -0.295 OA
ATOM     35  H   UNL     1      32.529  -8.740 -22.043  0.00  0.00    +0.241 HD
ENDBRANCH  31  34
ENDBRANCH  27  32
ENDBRANCH  21  24
ENDBRANCH  19  22
ENDBRANCH   1  19
TORSDOF 10
ENDMDL
MODEL 9
REMARK VINA RESULT:     -10.7      4.743     11.930
REMARK  Name = 9804992
REMARK  10 active torsions:
REMARK  status: ('A' for Active; 'I' for Inactive)
REMARK    1  A    between atoms: C_1  and  C_9
REMARK    2  A    between atoms: C_1  and  O_19
REMARK    3  A    between atoms: C_2  and  C_12
REMARK    4  A    between atoms: C_12  and  N_13
REMARK    5  A    between atoms: N_13  and  C_15
REMARK    6  A    between atoms: N_13  and  C_17
REMARK    7  A    between atoms: O_19  and  C_22
REMARK    8  A    between atoms: N_21  and  C_24
REMARK    9  A    between atoms: C_27  and  C_32
REMARK   10  A    between atoms: N_31  and  O_34
REMARK                            x       y       z     vdW  Elec       q    Type
REMARK                         _______ _______ _______ _____ _____    ______ ____
ROOT
ATOM      1  C   UNL     1      33.313 -12.299 -22.881  0.00  0.00    +0.237 C 
ENDROOT
BRANCH   1   9
ATOM      2  C   UNL     1      35.697 -18.216 -21.546  0.00  0.00    -0.043 C 
ATOM      3  C   UNL     1      34.844 -15.961 -21.226  0.00  0.00    -0.000 C 
ATOM      4  C   UNL     1      34.697 -15.825 -22.627  0.00  0.00    -0.000 C 
ATOM      5  C   UNL     1      35.346 -17.163 -20.701  0.00  0.00    -0.006 C 
ATOM      6  C   UNL     1      35.551 -18.083 -22.923  0.00  0.00    -0.006 C 
ATOM      7  C   UNL     1      35.055 -16.896 -23.462  0.00  0.00    -0.000 C 
ATOM      8  C   UNL     1      34.195 -14.623 -23.151  0.00  0.00    -0.001 C 
ATOM      9  C   UNL     1      33.844 -13.569 -22.306  0.00  0.00    +0.021 C 
ATOM     10  C   UNL     1      34.486 -14.890 -20.390  0.00  0.00    -0.000 C 
ATOM     11  C   UNL     1      33.989 -13.702 -20.929  0.00  0.00    -0.001 C 
BRANCH   2  12
ATOM     12  C   UNL     1      36.229 -19.486 -20.972  0.00  0.00    -0.050 C 
BRANCH  12  13
ATOM     13  N   UNL     1      35.346 -20.048 -19.949  0.00  0.00    +0.390 N 
ATOM     14  H   UNL     1      35.387 -19.453 -19.122  0.00  0.00    -0.079 HD
BRANCH  13  15
ATOM     15  C   UNL     1      33.965 -20.078 -20.429  0.00  0.00    -0.077 C 
ATOM     16  C   UNL     1      33.093 -20.944 -19.537  0.00  0.00    -0.025 C 
ENDBRANCH  13  15
BRANCH  13  17
ATOM     17  C   UNL     1      35.788 -21.390 -19.575  0.00  0.00    -0.077 C 
ATOM     18  C   UNL     1      36.510 -21.379 -18.239  0.00  0.00    -0.025 C 
ENDBRANCH  13  17
ENDBRANCH  12  13
ENDBRANCH   2  12
ENDBRANCH   1   9
BRANCH   1  19
ATOM     19  O   UNL     1      34.251 -11.773 -23.811  0.00  0.00    -0.429 OA
BRANCH  19  22
ATOM     20  O   UNL     1      34.963  -9.833 -24.791  0.00  0.00    -0.226 OA
ATOM     21  N   UNL     1      33.272  -9.857 -23.172  0.00  0.00    -0.250 N 
ATOM     22  C   UNL     1      34.229 -10.412 -23.999  0.00  0.00    +0.406 C 
ATOM     23  H   UNL     1      32.776 -10.488 -22.601  0.00  0.00    +0.158 HD
BRANCH  21  24
ATOM     24  C   UNL     1      32.917  -8.495 -23.043  0.00  0.00    +0.053 C 
ATOM     25  C   UNL     1      33.875  -7.558 -22.654  0.00  0.00    +0.015 C 
ATOM     26  C   UNL     1      31.609  -8.087 -23.304  0.00  0.00    +0.015 C 
ATOM     27  C   UNL     1      32.215  -5.807 -22.787  0.00  0.00    +0.055 C 
ATOM     28  C   UNL     1      33.524  -6.214 -22.526  0.00  0.00    +0.006 C 
ATOM     29  C   UNL     1      31.258  -6.743 -23.176  0.00  0.00    +0.006 C 
BRANCH  27  32
ATOM     30  O   UNL     1      32.413  -3.532 -23.338  0.00  0.00    -0.268 OA
ATOM     31  N   UNL     1      30.866  -4.094 -21.726  0.00  0.00    -0.193 N 
ATOM     32  C   UNL     1      31.850  -4.406 -22.653  0.00  0.00    +0.268 C 
ATOM     33  H   UNL     1      30.425  -4.792 -21.188  0.00  0.00    +0.183 HD
BRANCH  31  34
ATOM     34  O   UNL     1      30.527  -2.740 -21.592  0.00  0.00    -0.295 OA
ATOM     35  H   UNL     1      30.964  -2.226 -22.290  0.00  0.00    +0.241 HD
ENDBRANCH  31  34
ENDBRANCH  27  32
ENDBRANCH  21  24
ENDBRANCH  19  22
ENDBRANCH   1  19
TORSDOF 10
ENDMDL
