MODEL 1
REMARK VINA RESULT:     -11.7      0.000      0.000
REMARK  Name = 24871491
REMARK  6 active torsions:
REMARK  status: ('A' for Active; 'I' for Inactive)
REMARK    1  A    between atoms: N_1  and  C_11
REMARK    2  A    between atoms: N_2  and  C_18
REMARK    3  A    between atoms: C_6  and  C_31
REMARK    4  A    between atoms: C_19  and  C_24
REMARK    5  A    between atoms: C_24  and  C_26
REMARK    6  A    between atoms: C_26  and  O_27
REMARK                            x       y       z     vdW  Elec       q    Type
REMARK                         _______ _______ _______ _____ _____    ______ ____
ROOT
ATOM      1  N   UNL     1      33.591 -23.349 -13.887  0.00  0.00    -0.287 N 
ATOM      2  N   UNL     1      32.023 -21.962 -18.111  0.00  0.00    -0.247 N 
ATOM      3  N   UNL     1      32.815 -22.647 -16.014  0.00  0.00    -0.322 NA
ATOM      4  N   UNL     1      30.479 -22.825 -16.575  0.00  0.00    -0.169 NA
ATOM      5  C   UNL     1      32.526 -23.170 -14.804  0.00  0.00    +0.202 C 
ATOM      6  C   UNL     1      31.255 -23.540 -14.412  0.00  0.00    +0.118 C 
ATOM      7  C   UNL     1      31.759 -22.505 -16.838  0.00  0.00    +0.150 C 
ATOM      8  C   UNL     1      30.260 -23.342 -15.348  0.00  0.00    +0.120 C 
ATOM      9  H   UNL     1      33.319 -23.275 -12.944  0.00  0.00    +0.155 HD
ATOM     10  H   UNL     1      31.224 -21.877 -18.678  0.00  0.00    +0.165 HD
ENDROOT
BRANCH   1  11
ATOM     11  C   UNL     1      34.959 -23.610 -14.063  0.00  0.00    +0.050 C 
ATOM     12  C   UNL     1      35.722 -22.798 -14.903  0.00  0.00    +0.010 C 
ATOM     13  C   UNL     1      37.081 -23.058 -15.077  0.00  0.00    -0.021 C 
ATOM     14  C   UNL     1      35.556 -24.680 -13.396  0.00  0.00    +0.015 C 
ATOM     15  C   UNL     1      37.678 -24.128 -14.410  0.00  0.00    -0.004 C 
ATOM     16  C   UNL     1      36.915 -24.940 -13.571  0.00  0.00    +0.001 C 
ATOM     17  C   UNL     1      37.897 -22.192 -15.976  0.00  0.00    +0.031 C 
ENDBRANCH   1  11
BRANCH   2  18
ATOM     18  C   UNL     1      33.208 -21.518 -18.733  0.00  0.00    +0.058 C 
ATOM     19  C   UNL     1      35.552 -20.639 -19.964  0.00  0.00    -0.011 C 
ATOM     20  C   UNL     1      33.146 -20.576 -19.759  0.00  0.00    +0.015 C 
ATOM     21  C   UNL     1      34.443 -22.021 -18.322  0.00  0.00    +0.015 C 
ATOM     22  C   UNL     1      34.318 -20.136 -20.375  0.00  0.00    -0.002 C 
ATOM     23  C   UNL     1      35.615 -21.582 -18.937  0.00  0.00    -0.002 C 
BRANCH  19  24
ATOM     24  C   UNL     1      36.805 -20.168 -20.622  0.00  0.00    +0.136 C 
BRANCH  24  26
ATOM     25  O   UNL     1      36.148 -17.854 -20.246  0.00  0.00    -0.250 OA
ATOM     26  C   UNL     1      36.854 -18.667 -20.827  0.00  0.00    +0.318 C 
BRANCH  26  27
ATOM     27  O   UNL     1      37.787 -18.312 -21.750  0.00  0.00    -0.480 OA
ATOM     28  H   UNL     1      37.718 -18.626 -22.630  0.00  0.00    +0.295 HD
ENDBRANCH  26  27
ENDBRANCH  24  26
ENDBRANCH  19  24
ENDBRANCH   2  18
BRANCH   6  31
ATOM     29  O   UNL     1      31.211 -23.493 -12.058  0.00  0.00    -0.270 OA
ATOM     30  N   UNL     1      30.311 -25.341 -13.073  0.00  0.00    -0.325 N 
ATOM     31  C   UNL     1      30.942 -24.102 -13.109  0.00  0.00    +0.248 C 
ATOM     32  H   UNL     1      30.084 -25.753 -12.208  0.00  0.00    +0.145 HD
ATOM     33  H   UNL     1      30.092 -25.807 -13.912  0.00  0.00    +0.145 HD
ENDBRANCH   6  31
TORSDOF 6
ENDMDL
MODEL 2
REMARK VINA RESULT:     -11.3      3.109      6.221
REMARK  Name = 24871491
REMARK  6 active torsions:
REMARK  status: ('A' for Active; 'I' for Inactive)
REMARK    1  A    between atoms: N_1  and  C_11
REMARK    2  A    between atoms: N_2  and  C_18
REMARK    3  A    between atoms: C_6  and  C_31
REMARK    4  A    between atoms: C_19  and  C_24
REMARK    5  A    between atoms: C_24  and  C_26
REMARK    6  A    between atoms: C_26  and  O_27
REMARK                            x       y       z     vdW  Elec       q    Type
REMARK                         _______ _______ _______ _____ _____    ______ ____
ROOT
ATOM      1  N   UNL     1      31.976 -22.981 -16.952  0.00  0.00    -0.287 N 
ATOM      2  N   UNL     1      33.938 -24.400 -12.907  0.00  0.00    -0.247 N 
ATOM      3  N   UNL     1      32.975 -23.695 -14.924  0.00  0.00    -0.322 NA
ATOM      4  N   UNL     1      31.622 -24.049 -12.962  0.00  0.00    -0.169 NA
ATOM      5  C   UNL     1      31.853 -23.346 -15.589  0.00  0.00    +0.202 C 
ATOM      6  C   UNL     1      30.598 -23.324 -15.015  0.00  0.00    +0.118 C 
ATOM      7  C   UNL     1      32.788 -24.030 -13.633  0.00  0.00    +0.150 C 
ATOM      8  C   UNL     1      30.541 -23.689 -13.686  0.00  0.00    +0.120 C 
ATOM      9  H   UNL     1      31.179 -23.185 -17.491  0.00  0.00    +0.155 HD
ATOM     10  H   UNL     1      33.755 -24.636 -11.970  0.00  0.00    +0.165 HD
ENDROOT
BRANCH   1  11
ATOM     11  C   UNL     1      33.016 -22.384 -17.683  0.00  0.00    +0.050 C 
ATOM     12  C   UNL     1      32.720 -21.535 -18.751  0.00  0.00    +0.010 C 
ATOM     13  C   UNL     1      33.753 -20.943 -19.476  0.00  0.00    -0.021 C 
ATOM     14  C   UNL     1      34.344 -22.638 -17.342  0.00  0.00    +0.015 C 
ATOM     15  C   UNL     1      35.081 -21.197 -19.135  0.00  0.00    -0.004 C 
ATOM     16  C   UNL     1      35.377 -22.046 -18.069  0.00  0.00    +0.001 C 
ATOM     17  C   UNL     1      33.437 -20.037 -20.619  0.00  0.00    +0.031 C 
ENDBRANCH   1  11
BRANCH   2  18
ATOM     18  C   UNL     1      35.300 -24.499 -13.260  0.00  0.00    +0.058 C 
ATOM     19  C   UNL     1      37.993 -24.694 -13.958  0.00  0.00    -0.011 C 
ATOM     20  C   UNL     1      36.267 -23.847 -12.496  0.00  0.00    +0.015 C 
ATOM     21  C   UNL     1      35.679 -25.248 -14.374  0.00  0.00    +0.015 C 
ATOM     22  C   UNL     1      37.614 -23.944 -12.845  0.00  0.00    -0.002 C 
ATOM     23  C   UNL     1      37.026 -25.345 -14.723  0.00  0.00    -0.002 C 
BRANCH  19  24
ATOM     24  C   UNL     1      39.434 -24.798 -14.331  0.00  0.00    +0.136 C 
BRANCH  24  26
ATOM     25  O   UNL     1      39.772 -27.176 -13.934  0.00  0.00    -0.250 OA
ATOM     26  C   UNL     1      39.868 -26.209 -14.676  0.00  0.00    +0.318 C 
BRANCH  26  27
ATOM     27  O   UNL     1      40.391 -26.285 -15.929  0.00  0.00    -0.480 OA
ATOM     28  H   UNL     1      39.823 -26.341 -16.671  0.00  0.00    +0.295 HD
ENDBRANCH  26  27
ENDBRANCH  24  26
ENDBRANCH  19  24
ENDBRANCH   2  18
BRANCH   6  31
ATOM     29  O   UNL     1      29.379 -22.003 -16.539  0.00  0.00    -0.270 OA
ATOM     30  N   UNL     1      28.239 -23.696 -15.494  0.00  0.00    -0.325 N 
ATOM     31  C   UNL     1      29.388 -22.949 -15.730  0.00  0.00    +0.248 C 
ATOM     32  H   UNL     1      27.401 -23.471 -15.960  0.00  0.00    +0.145 HD
ATOM     33  H   UNL     1      28.263 -24.450 -14.861  0.00  0.00    +0.145 HD
ENDBRANCH   6  31
TORSDOF 6
ENDMDL
MODEL 3
REMARK VINA RESULT:     -11.3      3.261      6.868
REMARK  Name = 24871491
REMARK  6 active torsions:
REMARK  status: ('A' for Active; 'I' for Inactive)
REMARK    1  A    between atoms: N_1  and  C_11
REMARK    2  A    between atoms: N_2  and  C_18
REMARK    3  A    between atoms: C_6  and  C_31
REMARK    4  A    between atoms: C_19  and  C_24
REMARK    5  A    between atoms: C_24  and  C_26
REMARK    6  A    between atoms: C_26  and  O_27
REMARK                            x       y       z     vdW  Elec       q    Type
REMARK                         _______ _______ _______ _____ _____    ______ ____
ROOT
ATOM      1  N   UNL     1      35.513 -22.459 -15.174  0.00  0.00    -0.287 N 
ATOM      2  N   UNL     1      31.728 -24.392 -13.133  0.00  0.00    -0.247 N 
ATOM      3  N   UNL     1      33.602 -23.426 -14.158  0.00  0.00    -0.322 NA
ATOM      4  N   UNL     1      33.801 -24.596 -12.061  0.00  0.00    -0.169 NA
ATOM      5  C   UNL     1      34.930 -23.189 -14.109  0.00  0.00    +0.202 C 
ATOM      6  C   UNL     1      35.748 -23.618 -13.084  0.00  0.00    +0.118 C 
ATOM      7  C   UNL     1      33.111 -24.125 -13.116  0.00  0.00    +0.150 C 
ATOM      8  C   UNL     1      35.123 -24.324 -12.076  0.00  0.00    +0.120 C 
ATOM      9  H   UNL     1      36.298 -21.929 -14.909  0.00  0.00    +0.155 HD
ATOM     10  H   UNL     1      31.415 -24.905 -12.354  0.00  0.00    +0.165 HD
ENDROOT
BRANCH   1  11
ATOM     11  C   UNL     1      35.187 -22.345 -16.535  0.00  0.00    +0.050 C 
ATOM     12  C   UNL     1      36.068 -21.713 -17.413  0.00  0.00    +0.010 C 
ATOM     13  C   UNL     1      35.744 -21.600 -18.765  0.00  0.00    -0.021 C 
ATOM     14  C   UNL     1      33.982 -22.864 -17.010  0.00  0.00    +0.015 C 
ATOM     15  C   UNL     1      34.540 -22.119 -19.240  0.00  0.00    -0.004 C 
ATOM     16  C   UNL     1      33.658 -22.750 -18.362  0.00  0.00    +0.001 C 
ATOM     17  C   UNL     1      36.686 -20.924 -19.703  0.00  0.00    +0.031 C 
ENDBRANCH   1  11
BRANCH   2  18
ATOM     18  C   UNL     1      30.704 -24.068 -14.047  0.00  0.00    +0.058 C 
ATOM     19  C   UNL     1      28.679 -23.429 -15.855  0.00  0.00    -0.011 C 
ATOM     20  C   UNL     1      30.004 -25.084 -14.697  0.00  0.00    +0.015 C 
ATOM     21  C   UNL     1      30.393 -22.732 -14.302  0.00  0.00    +0.015 C 
ATOM     22  C   UNL     1      28.990 -24.764 -15.601  0.00  0.00    -0.002 C 
ATOM     23  C   UNL     1      29.380 -22.413 -15.206  0.00  0.00    -0.002 C 
BRANCH  19  24
ATOM     24  C   UNL     1      27.596 -23.087 -16.822  0.00  0.00    +0.136 C 
BRANCH  24  26
ATOM     25  O   UNL     1      25.901 -22.204 -15.313  0.00  0.00    -0.250 OA
ATOM     26  C   UNL     1      26.617 -22.057 -16.295  0.00  0.00    +0.318 C 
BRANCH  26  27
ATOM     27  O   UNL     1      26.618 -20.925 -17.047  0.00  0.00    -0.480 OA
ATOM     28  H   UNL     1      26.352 -20.959 -17.944  0.00  0.00    +0.295 HD
ENDBRANCH  26  27
ENDBRANCH  24  26
ENDBRANCH  19  24
ENDBRANCH   2  18
BRANCH   6  31
ATOM     29  O   UNL     1      37.906 -23.531 -14.025  0.00  0.00    -0.270 OA
ATOM     30  N   UNL     1      37.709 -22.905 -11.828  0.00  0.00    -0.325 N 
ATOM     31  C   UNL     1      37.178 -23.363 -13.030  0.00  0.00    +0.248 C 
ATOM     32  H   UNL     1      38.674 -22.722 -11.754  0.00  0.00    +0.145 HD
ATOM     33  H   UNL     1      37.121 -22.765 -11.052  0.00  0.00    +0.145 HD
ENDBRANCH   6  31
TORSDOF 6
ENDMDL
MODEL 4
REMARK VINA RESULT:     -11.0      2.848      7.124
REMARK  Name = 24871491
REMARK  6 active torsions:
REMARK  status: ('A' for Active; 'I' for Inactive)
REMARK    1  A    between atoms: N_1  and  C_11
REMARK    2  A    between atoms: N_2  and  C_18
REMARK    3  A    between atoms: C_6  and  C_31
REMARK    4  A    between atoms: C_19  and  C_24
REMARK    5  A    between atoms: C_24  and  C_26
REMARK    6  A    between atoms: C_26  and  O_27
REMARK                            x       y       z     vdW  Elec       q    Type
REMARK                         _______ _______ _______ _____ _____    ______ ____
ROOT
ATOM      1  N   UNL     1      35.995 -22.462 -16.327  0.00  0.00    -0.287 N 
ATOM      2  N   UNL     1      33.072 -24.763 -13.432  0.00  0.00    -0.247 N 
ATOM      3  N   UNL     1      34.515 -23.612 -14.876  0.00  0.00    -0.322 NA
ATOM      4  N   UNL     1      35.373 -25.165 -13.246  0.00  0.00    -0.169 NA
ATOM      5  C   UNL     1      35.785 -23.385 -15.274  0.00  0.00    +0.202 C 
ATOM      6  C   UNL     1      36.885 -24.002 -14.713  0.00  0.00    +0.118 C 
ATOM      7  C   UNL     1      34.384 -24.500 -13.872  0.00  0.00    +0.150 C 
ATOM      8  C   UNL     1      36.617 -24.890 -13.692  0.00  0.00    +0.120 C 
ATOM      9  H   UNL     1      36.858 -21.990 -16.275  0.00  0.00    +0.155 HD
ATOM     10  H   UNL     1      33.025 -25.417 -12.698  0.00  0.00    +0.165 HD
ENDROOT
BRANCH   1  11
ATOM     11  C   UNL     1      35.212 -22.088 -17.430  0.00  0.00    +0.050 C 
ATOM     12  C   UNL     1      35.772 -21.329 -18.458  0.00  0.00    +0.010 C 
ATOM     13  C   UNL     1      34.993 -20.958 -19.554  0.00  0.00    -0.021 C 
ATOM     14  C   UNL     1      33.874 -22.476 -17.500  0.00  0.00    +0.015 C 
ATOM     15  C   UNL     1      33.656 -21.346 -19.624  0.00  0.00    -0.004 C 
ATOM     16  C   UNL     1      33.095 -22.104 -18.596  0.00  0.00    +0.001 C 
ATOM     17  C   UNL     1      35.591 -20.145 -20.653  0.00  0.00    +0.031 C 
ENDBRANCH   1  11
BRANCH   2  18
ATOM     18  C   UNL     1      31.813 -24.272 -13.834  0.00  0.00    +0.058 C 
ATOM     19  C   UNL     1      29.322 -23.302 -14.632  0.00  0.00    -0.011 C 
ATOM     20  C   UNL     1      30.729 -25.142 -13.944  0.00  0.00    +0.015 C 
ATOM     21  C   UNL     1      31.653 -22.917 -14.124  0.00  0.00    +0.015 C 
ATOM     22  C   UNL     1      29.483 -24.656 -14.343  0.00  0.00    -0.002 C 
ATOM     23  C   UNL     1      30.407 -22.432 -14.523  0.00  0.00    -0.002 C 
BRANCH  19  24
ATOM     24  C   UNL     1      27.990 -22.783 -15.058  0.00  0.00    +0.136 C 
BRANCH  24  26
ATOM     25  O   UNL     1      28.272 -23.508 -17.366  0.00  0.00    -0.250 OA
ATOM     26  C   UNL     1      27.828 -22.699 -16.563  0.00  0.00    +0.318 C 
BRANCH  26  27
ATOM     27  O   UNL     1      27.120 -21.599 -16.935  0.00  0.00    -0.480 OA
ATOM     28  H   UNL     1      27.378 -21.110 -17.691  0.00  0.00    +0.295 HD
ENDBRANCH  26  27
ENDBRANCH  24  26
ENDBRANCH  19  24
ENDBRANCH   2  18
BRANCH   6  31
ATOM     29  O   UNL     1      38.606 -22.652 -15.588  0.00  0.00    -0.270 OA
ATOM     30  N   UNL     1      39.167 -24.799 -15.011  0.00  0.00    -0.325 N 
ATOM     31  C   UNL     1      38.254 -23.758 -15.139  0.00  0.00    +0.248 C 
ATOM     32  H   UNL     1      40.103 -24.671 -15.289  0.00  0.00    +0.145 HD
ATOM     33  H   UNL     1      38.878 -25.665 -14.642  0.00  0.00    +0.145 HD
ENDBRANCH   6  31
TORSDOF 6
ENDMDL
MODEL 5
REMARK VINA RESULT:     -10.9      3.491      6.863
REMARK  Name = 24871491
REMARK  6 active torsions:
REMARK  status: ('A' for Active; 'I' for Inactive)
REMARK    1  A    between atoms: N_1  and  C_11
REMARK    2  A    between atoms: N_2  and  C_18
REMARK    3  A    between atoms: C_6  and  C_31
REMARK    4  A    between atoms: C_19  and  C_24
REMARK    5  A    between atoms: C_24  and  C_26
REMARK    6  A    between atoms: C_26  and  O_27
REMARK                            x       y       z     vdW  Elec       q    Type
REMARK                         _______ _______ _______ _____ _____    ______ ____
ROOT
ATOM      1  N   UNL     1      36.118 -22.549 -14.565  0.00  0.00    -0.287 N 
ATOM      2  N   UNL     1      32.244 -24.684 -12.934  0.00  0.00    -0.247 N 
ATOM      3  N   UNL     1      34.163 -23.617 -13.755  0.00  0.00    -0.322 NA
ATOM      4  N   UNL     1      34.254 -24.972 -11.765  0.00  0.00    -0.169 NA
ATOM      5  C   UNL     1      35.483 -23.377 -13.607  0.00  0.00    +0.202 C 
ATOM      6  C   UNL     1      36.245 -23.893 -12.579  0.00  0.00    +0.118 C 
ATOM      7  C   UNL     1      33.621 -24.411 -12.811  0.00  0.00    +0.150 C 
ATOM      8  C   UNL     1      35.572 -24.691 -11.677  0.00  0.00    +0.120 C 
ATOM      9  H   UNL     1      36.880 -22.040 -14.207  0.00  0.00    +0.155 HD
ATOM     10  H   UNL     1      31.892 -25.268 -12.224  0.00  0.00    +0.165 HD
ENDROOT
BRANCH   1  11
ATOM     11  C   UNL     1      35.870 -22.313 -15.927  0.00  0.00    +0.050 C 
ATOM     12  C   UNL     1      34.609 -22.578 -16.462  0.00  0.00    +0.010 C 
ATOM     13  C   UNL     1      34.363 -22.343 -17.815  0.00  0.00    -0.021 C 
ATOM     14  C   UNL     1      36.883 -21.814 -16.744  0.00  0.00    +0.015 C 
ATOM     15  C   UNL     1      35.377 -21.843 -18.633  0.00  0.00    -0.004 C 
ATOM     16  C   UNL     1      36.638 -21.580 -18.097  0.00  0.00    +0.001 C 
ATOM     17  C   UNL     1      33.016 -22.626 -18.389  0.00  0.00    +0.031 C 
ENDBRANCH   1  11
BRANCH   2  18
ATOM     18  C   UNL     1      31.271 -24.285 -13.873  0.00  0.00    +0.058 C 
ATOM     19  C   UNL     1      29.347 -23.497 -15.731  0.00  0.00    -0.011 C 
ATOM     20  C   UNL     1      30.269 -25.174 -14.258  0.00  0.00    +0.015 C 
ATOM     21  C   UNL     1      31.312 -23.001 -14.417  0.00  0.00    +0.015 C 
ATOM     22  C   UNL     1      29.306 -24.780 -15.188  0.00  0.00    -0.002 C 
ATOM     23  C   UNL     1      30.350 -22.607 -15.347  0.00  0.00    -0.002 C 
BRANCH  19  24
ATOM     24  C   UNL     1      28.317 -23.075 -16.725  0.00  0.00    +0.136 C 
BRANCH  24  26
ATOM     25  O   UNL     1      26.615 -22.543 -15.067  0.00  0.00    -0.250 OA
ATOM     26  C   UNL     1      27.182 -22.274 -16.118  0.00  0.00    +0.318 C 
BRANCH  26  27
ATOM     27  O   UNL     1      26.853 -21.201 -16.884  0.00  0.00    -0.480 OA
ATOM     28  H   UNL     1      25.966 -21.076 -17.158  0.00  0.00    +0.295 HD
ENDBRANCH  26  27
ENDBRANCH  24  26
ENDBRANCH  19  24
ENDBRANCH   2  18
BRANCH   6  31
ATOM     29  O   UNL     1      38.455 -23.718 -13.377  0.00  0.00    -0.270 OA
ATOM     30  N   UNL     1      38.120 -23.271 -11.154  0.00  0.00    -0.325 N 
ATOM     31  C   UNL     1      37.667 -23.635 -12.418  0.00  0.00    +0.248 C 
ATOM     32  H   UNL     1      39.076 -23.088 -11.007  0.00  0.00    +0.145 HD
ATOM     33  H   UNL     1      37.484 -23.196 -10.406  0.00  0.00    +0.145 HD
ENDBRANCH   6  31
TORSDOF 6
ENDMDL
MODEL 6
REMARK VINA RESULT:     -10.0      2.216      4.699
REMARK  Name = 24871491
REMARK  6 active torsions:
REMARK  status: ('A' for Active; 'I' for Inactive)
REMARK    1  A    between atoms: N_1  and  C_11
REMARK    2  A    between atoms: N_2  and  C_18
REMARK    3  A    between atoms: C_6  and  C_31
REMARK    4  A    between atoms: C_19  and  C_24
REMARK    5  A    between atoms: C_24  and  C_26
REMARK    6  A    between atoms: C_26  and  O_27
REMARK                            x       y       z     vdW  Elec       q    Type
REMARK                         _______ _______ _______ _____ _____    ______ ____
ROOT
ATOM      1  N   UNL     1      34.312 -24.674 -13.759  0.00  0.00    -0.287 N 
ATOM      2  N   UNL     1      37.291 -22.375 -16.599  0.00  0.00    -0.247 N 
ATOM      3  N   UNL     1      35.800 -23.515 -15.195  0.00  0.00    -0.322 NA
ATOM      4  N   UNL     1      38.159 -23.455 -14.709  0.00  0.00    -0.169 NA
ATOM      5  C   UNL     1      35.627 -24.259 -14.082  0.00  0.00    +0.202 C 
ATOM      6  C   UNL     1      36.657 -24.635 -13.244  0.00  0.00    +0.118 C 
ATOM      7  C   UNL     1      37.073 -23.153 -15.445  0.00  0.00    +0.150 C 
ATOM      8  C   UNL     1      37.915 -24.201 -13.611  0.00  0.00    +0.120 C 
ATOM      9  H   UNL     1      34.274 -25.530 -13.276  0.00  0.00    +0.155 HD
ATOM     10  H   UNL     1      38.235 -22.134 -16.740  0.00  0.00    +0.165 HD
ENDROOT
BRANCH   1  11
ATOM     11  C   UNL     1      33.052 -24.100 -13.995  0.00  0.00    +0.050 C 
ATOM     12  C   UNL     1      32.750 -23.573 -15.251  0.00  0.00    +0.010 C 
ATOM     13  C   UNL     1      31.498 -23.004 -15.484  0.00  0.00    -0.021 C 
ATOM     14  C   UNL     1      32.103 -24.058 -12.974  0.00  0.00    +0.015 C 
ATOM     15  C   UNL     1      30.548 -22.962 -14.464  0.00  0.00    -0.004 C 
ATOM     16  C   UNL     1      30.851 -23.488 -13.208  0.00  0.00    +0.001 C 
ATOM     17  C   UNL     1      31.174 -22.439 -16.826  0.00  0.00    +0.031 C 
ENDBRANCH   1  11
BRANCH   2  18
ATOM     18  C   UNL     1      36.423 -21.873 -17.591  0.00  0.00    +0.058 C 
ATOM     19  C   UNL     1      34.707 -20.882 -19.553  0.00  0.00    -0.011 C 
ATOM     20  C   UNL     1      35.059 -22.151 -17.528  0.00  0.00    +0.015 C 
ATOM     21  C   UNL     1      36.931 -21.100 -18.635  0.00  0.00    +0.015 C 
ATOM     22  C   UNL     1      34.200 -21.656 -18.510  0.00  0.00    -0.002 C 
ATOM     23  C   UNL     1      36.073 -20.604 -19.616  0.00  0.00    -0.002 C 
BRANCH  19  24
ATOM     24  C   UNL     1      33.789 -20.352 -20.603  0.00  0.00    +0.136 C 
BRANCH  24  26
ATOM     25  O   UNL     1      34.581 -19.554 -22.762  0.00  0.00    -0.250 OA
ATOM     26  C   UNL     1      34.458 -19.383 -21.557  0.00  0.00    +0.318 C 
BRANCH  26  27
ATOM     27  O   UNL     1      34.918 -18.276 -20.915  0.00  0.00    -0.480 OA
ATOM     28  H   UNL     1      34.335 -17.568 -20.725  0.00  0.00    +0.295 HD
ENDBRANCH  26  27
ENDBRANCH  24  26
ENDBRANCH  19  24
ENDBRANCH   2  18
BRANCH   6  31
ATOM     29  O   UNL     1      35.695 -25.083 -11.141  0.00  0.00    -0.270 OA
ATOM     30  N   UNL     1      37.184 -26.629 -11.949  0.00  0.00    -0.325 N 
ATOM     31  C   UNL     1      36.473 -25.437 -12.046  0.00  0.00    +0.248 C 
ATOM     32  H   UNL     1      37.086 -27.198 -11.151  0.00  0.00    +0.145 HD
ATOM     33  H   UNL     1      37.787 -26.903 -12.677  0.00  0.00    +0.145 HD
ENDBRANCH   6  31
TORSDOF 6
ENDMDL
MODEL 7
REMARK VINA RESULT:      -9.7      2.278      4.914
REMARK  Name = 24871491
REMARK  6 active torsions:
REMARK  status: ('A' for Active; 'I' for Inactive)
REMARK    1  A    between atoms: N_1  and  C_11
REMARK    2  A    between atoms: N_2  and  C_18
REMARK    3  A    between atoms: C_6  and  C_31
REMARK    4  A    between atoms: C_19  and  C_24
REMARK    5  A    between atoms: C_24  and  C_26
REMARK    6  A    between atoms: C_26  and  O_27
REMARK                            x       y       z     vdW  Elec       q    Type
REMARK                         _______ _______ _______ _____ _____    ______ ____
ROOT
ATOM      1  N   UNL     1      34.254 -24.790 -13.691  0.00  0.00    -0.287 N 
ATOM      2  N   UNL     1      37.179 -22.407 -16.517  0.00  0.00    -0.247 N 
ATOM      3  N   UNL     1      35.714 -23.590 -15.120  0.00  0.00    -0.322 NA
ATOM      4  N   UNL     1      38.069 -23.466 -14.625  0.00  0.00    -0.169 NA
ATOM      5  C   UNL     1      35.558 -24.339 -14.008  0.00  0.00    +0.202 C 
ATOM      6  C   UNL     1      36.595 -24.688 -13.167  0.00  0.00    +0.118 C 
ATOM      7  C   UNL     1      36.978 -23.193 -15.364  0.00  0.00    +0.150 C 
ATOM      8  C   UNL     1      37.842 -24.220 -13.529  0.00  0.00    +0.120 C 
ATOM      9  H   UNL     1      34.237 -25.648 -13.209  0.00  0.00    +0.155 HD
ATOM     10  H   UNL     1      38.116 -22.141 -16.655  0.00  0.00    +0.165 HD
ENDROOT
BRANCH   1  11
ATOM     11  C   UNL     1      32.980 -24.251 -13.930  0.00  0.00    +0.050 C 
ATOM     12  C   UNL     1      31.860 -25.083 -13.938  0.00  0.00    +0.010 C 
ATOM     13  C   UNL     1      30.594 -24.547 -14.176  0.00  0.00    -0.021 C 
ATOM     14  C   UNL     1      32.833 -22.883 -14.159  0.00  0.00    +0.015 C 
ATOM     15  C   UNL     1      30.448 -23.179 -14.405  0.00  0.00    -0.004 C 
ATOM     16  C   UNL     1      31.567 -22.347 -14.398  0.00  0.00    +0.001 C 
ATOM     17  C   UNL     1      29.397 -25.437 -14.186  0.00  0.00    +0.031 C 
ENDBRANCH   1  11
BRANCH   2  18
ATOM     18  C   UNL     1      36.302 -21.929 -17.511  0.00  0.00    +0.058 C 
ATOM     19  C   UNL     1      34.567 -20.980 -19.479  0.00  0.00    -0.011 C 
ATOM     20  C   UNL     1      36.799 -21.183 -18.579  0.00  0.00    +0.015 C 
ATOM     21  C   UNL     1      34.936 -22.200 -17.426  0.00  0.00    +0.015 C 
ATOM     22  C   UNL     1      35.932 -20.709 -19.564  0.00  0.00    -0.002 C 
ATOM     23  C   UNL     1      34.069 -21.726 -18.410  0.00  0.00    -0.002 C 
BRANCH  19  24
ATOM     24  C   UNL     1      33.639 -20.473 -20.531  0.00  0.00    +0.136 C 
BRANCH  24  26
ATOM     25  O   UNL     1      34.230 -19.440 -22.655  0.00  0.00    -0.250 OA
ATOM     26  C   UNL     1      34.261 -19.425 -21.432  0.00  0.00    +0.318 C 
BRANCH  26  27
ATOM     27  O   UNL     1      34.874 -18.443 -20.718  0.00  0.00    -0.480 OA
ATOM     28  H   UNL     1      34.411 -17.654 -20.515  0.00  0.00    +0.295 HD
ENDBRANCH  26  27
ENDBRANCH  24  26
ENDBRANCH  19  24
ENDBRANCH   2  18
BRANCH   6  31
ATOM     29  O   UNL     1      35.643 -25.162 -11.065  0.00  0.00    -0.270 OA
ATOM     30  N   UNL     1      37.166 -26.672 -11.876  0.00  0.00    -0.325 N 
ATOM     31  C   UNL     1      36.429 -25.496 -11.970  0.00  0.00    +0.248 C 
ATOM     32  H   UNL     1      37.079 -27.245 -11.079  0.00  0.00    +0.145 HD
ATOM     33  H   UNL     1      37.774 -26.932 -12.604  0.00  0.00    +0.145 HD
ENDBRANCH   6  31
TORSDOF 6
ENDMDL
MODEL 8
REMARK VINA RESULT:      -9.0      2.840      5.063
REMARK  Name = 24871491
REMARK  6 active torsions:
REMARK  status: ('A' for Active; 'I' for Inactive)
REMARK    1  A    between atoms: N_1  and  C_11
REMARK    2  A    between atoms: N_2  and  C_18
REMARK    3  A    between atoms: C_6  and  C_31
REMARK    4  A    between atoms: C_19  and  C_24
REMARK    5  A    between atoms: C_24  and  C_26
REMARK    6  A    between atoms: C_26  and  O_27
REMARK                            x       y       z     vdW  Elec       q    Type
REMARK                         _______ _______ _______ _____ _____    ______ ____
ROOT
ATOM      1  N   UNL     1      34.425 -24.697 -13.228  0.00  0.00    -0.287 N 
ATOM      2  N   UNL     1      37.545 -22.482 -15.980  0.00  0.00    -0.247 N 
ATOM      3  N   UNL     1      35.984 -23.581 -14.620  0.00  0.00    -0.322 NA
ATOM      4  N   UNL     1      38.314 -23.495 -14.012  0.00  0.00    -0.169 NA
ATOM      5  C   UNL     1      35.754 -24.288 -13.494  0.00  0.00    +0.202 C 
ATOM      6  C   UNL     1      36.739 -24.632 -12.591  0.00  0.00    +0.118 C 
ATOM      7  C   UNL     1      37.268 -23.222 -14.814  0.00  0.00    +0.150 C 
ATOM      8  C   UNL     1      38.013 -24.205 -12.904  0.00  0.00    +0.120 C 
ATOM      9  H   UNL     1      34.362 -25.537 -12.719  0.00  0.00    +0.155 HD
ATOM     10  H   UNL     1      38.494 -22.241 -16.079  0.00  0.00    +0.165 HD
ENDROOT
BRANCH   1  11
ATOM     11  C   UNL     1      33.178 -24.137 -13.549  0.00  0.00    +0.050 C 
ATOM     12  C   UNL     1      32.925 -23.696 -14.849  0.00  0.00    +0.010 C 
ATOM     13  C   UNL     1      31.687 -23.140 -15.167  0.00  0.00    -0.021 C 
ATOM     14  C   UNL     1      32.191 -24.023 -12.570  0.00  0.00    +0.015 C 
ATOM     15  C   UNL     1      30.700 -23.025 -14.188  0.00  0.00    -0.004 C 
ATOM     16  C   UNL     1      30.952 -23.466 -12.889  0.00  0.00    +0.001 C 
ATOM     17  C   UNL     1      31.417 -22.666 -16.556  0.00  0.00    +0.031 C 
ENDBRANCH   1  11
BRANCH   2  18
ATOM     18  C   UNL     1      36.731 -22.017 -17.033  0.00  0.00    +0.058 C 
ATOM     19  C   UNL     1      35.119 -21.098 -19.116  0.00  0.00    -0.011 C 
ATOM     20  C   UNL     1      35.393 -22.403 -17.101  0.00  0.00    +0.015 C 
ATOM     21  C   UNL     1      37.264 -21.171 -18.006  0.00  0.00    +0.015 C 
ATOM     22  C   UNL     1      34.586 -21.944 -18.143  0.00  0.00    -0.002 C 
ATOM     23  C   UNL     1      36.458 -20.712 -19.047  0.00  0.00    -0.002 C 
BRANCH  19  24
ATOM     24  C   UNL     1      34.257 -20.607 -20.230  0.00  0.00    +0.136 C 
BRANCH  24  26
ATOM     25  O   UNL     1      31.955 -19.914 -19.840  0.00  0.00    -0.250 OA
ATOM     26  C   UNL     1      32.776 -20.811 -19.983  0.00  0.00    +0.318 C 
BRANCH  26  27
ATOM     27  O   UNL     1      32.447 -22.129 -19.934  0.00  0.00    -0.480 OA
ATOM     28  H   UNL     1      33.025 -22.741 -19.523  0.00  0.00    +0.295 HD
ENDBRANCH  26  27
ENDBRANCH  24  26
ENDBRANCH  19  24
ENDBRANCH   2  18
BRANCH   6  31
ATOM     29  O   UNL     1      36.892 -26.567 -11.256  0.00  0.00    -0.270 OA
ATOM     30  N   UNL     1      35.811 -24.763 -10.342  0.00  0.00    -0.325 N 
ATOM     31  C   UNL     1      36.493 -25.394 -11.377  0.00  0.00    +0.248 C 
ATOM     32  H   UNL     1      35.626 -25.248  -9.506  0.00  0.00    +0.145 HD
ATOM     33  H   UNL     1      35.512 -23.831 -10.447  0.00  0.00    +0.145 HD
ENDBRANCH   6  31
TORSDOF 6
ENDMDL
MODEL 9
REMARK VINA RESULT:      -8.8     13.976     17.337
REMARK  Name = 24871491
REMARK  6 active torsions:
REMARK  status: ('A' for Active; 'I' for Inactive)
REMARK    1  A    between atoms: N_1  and  C_11
REMARK    2  A    between atoms: N_2  and  C_18
REMARK    3  A    between atoms: C_6  and  C_31
REMARK    4  A    between atoms: C_19  and  C_24
REMARK    5  A    between atoms: C_24  and  C_26
REMARK    6  A    between atoms: C_26  and  O_27
REMARK                            x       y       z     vdW  Elec       q    Type
REMARK                         _______ _______ _______ _____ _____    ______ ____
ROOT
ATOM      1  N   UNL     1      33.749  -8.991 -22.501  0.00  0.00    -0.287 N 
ATOM      2  N   UNL     1      32.699  -4.604 -23.870  0.00  0.00    -0.247 N 
ATOM      3  N   UNL     1      33.229  -6.787 -23.199  0.00  0.00    -0.322 NA
ATOM      4  N   UNL     1      31.747  -5.413 -21.887  0.00  0.00    -0.169 NA
ATOM      5  C   UNL     1      33.064  -7.770 -22.289  0.00  0.00    +0.202 C 
ATOM      6  C   UNL     1      32.268  -7.650 -21.169  0.00  0.00    +0.118 C 
ATOM      7  C   UNL     1      32.551  -5.652 -22.940  0.00  0.00    +0.150 C 
ATOM      8  C   UNL     1      31.627  -6.438 -21.017  0.00  0.00    +0.120 C 
ATOM      9  H   UNL     1      33.984  -9.464 -21.670  0.00  0.00    +0.155 HD
ATOM     10  H   UNL     1      32.186  -3.797 -23.640  0.00  0.00    +0.165 HD
ENDROOT
BRANCH   1  11
ATOM     11  C   UNL     1      34.157  -9.660 -23.666  0.00  0.00    +0.050 C 
ATOM     12  C   UNL     1      33.484 -10.808 -24.084  0.00  0.00    +0.010 C 
ATOM     13  C   UNL     1      33.890 -11.472 -25.242  0.00  0.00    -0.021 C 
ATOM     14  C   UNL     1      35.235  -9.175 -24.407  0.00  0.00    +0.015 C 
ATOM     15  C   UNL     1      34.968 -10.987 -25.983  0.00  0.00    -0.004 C 
ATOM     16  C   UNL     1      35.641  -9.839 -25.565  0.00  0.00    +0.001 C 
ATOM     17  C   UNL     1      33.172 -12.700 -25.688  0.00  0.00    +0.031 C 
ENDBRANCH   1  11
BRANCH   2  18
ATOM     18  C   UNL     1      33.438  -4.484 -25.065  0.00  0.00    +0.058 C 
ATOM     19  C   UNL     1      34.899  -4.248 -27.429  0.00  0.00    -0.011 C 
ATOM     20  C   UNL     1      32.807  -4.067 -26.235  0.00  0.00    +0.015 C 
ATOM     21  C   UNL     1      34.800  -4.785 -25.075  0.00  0.00    +0.015 C 
ATOM     22  C   UNL     1      33.537  -3.949 -27.418  0.00  0.00    -0.002 C 
ATOM     23  C   UNL     1      35.531  -4.667 -26.257  0.00  0.00    -0.002 C 
BRANCH  19  24
ATOM     24  C   UNL     1      35.680  -4.122 -28.693  0.00  0.00    +0.136 C 
BRANCH  24  26
ATOM     25  O   UNL     1      37.586  -5.636 -28.616  0.00  0.00    -0.250 OA
ATOM     26  C   UNL     1      37.141  -4.499 -28.542  0.00  0.00    +0.318 C 
BRANCH  26  27
ATOM     27  O   UNL     1      37.922  -3.411 -28.306  0.00  0.00    -0.480 OA
ATOM     28  H   UNL     1      37.691  -2.580 -28.670  0.00  0.00    +0.295 HD
ENDBRANCH  26  27
ENDBRANCH  24  26
ENDBRANCH  19  24
ENDBRANCH   2  18
BRANCH   6  31
ATOM     29  O   UNL     1      31.533  -9.780 -20.481  0.00  0.00    -0.270 OA
ATOM     30  N   UNL     1      32.581  -8.489 -18.904  0.00  0.00    -0.325 N 
ATOM     31  C   UNL     1      32.090  -8.708 -20.186  0.00  0.00    +0.248 C 
ATOM     32  H   UNL     1      32.479  -9.182 -18.212  0.00  0.00    +0.145 HD
ATOM     33  H   UNL     1      33.032  -7.641 -18.687  0.00  0.00    +0.145 HD
ENDBRANCH   6  31
TORSDOF 6
ENDMDL
