MODEL 1
REMARK VINA RESULT:     -11.1      0.000      0.000
REMARK  Name = 11740318
REMARK  5 active torsions:
REMARK  status: ('A' for Active; 'I' for Inactive)
REMARK    1  A    between atoms: N_1  and  C_20
REMARK    2  A    between atoms: C_2  and  O_8
REMARK    3  A    between atoms: O_8  and  C_9
REMARK    4  A    between atoms: C_14  and  N_15
REMARK    5  A    between atoms: C_20  and  C_23
REMARK                            x       y       z     vdW  Elec       q    Type
REMARK                         _______ _______ _______ _____ _____    ______ ____
ROOT
ATOM      1  N   UNL     1      34.977 -19.023 -21.839  0.00  0.00    +0.392 N 
ATOM      2  C   UNL     1      34.730 -16.828 -22.959  0.00  0.00    +0.145 C 
ATOM      3  C   UNL     1      35.541 -17.674 -21.972  0.00  0.00    -0.032 C 
ATOM      4  C   UNL     1      34.627 -17.515 -24.317  0.00  0.00    +0.039 C 
ATOM      5  C   UNL     1      34.115 -18.940 -24.158  0.00  0.00    -0.019 C 
ATOM      6  C   UNL     1      34.946 -19.716 -23.134  0.00  0.00    -0.077 C 
ATOM      7  H   UNL     1      34.016 -18.930 -21.510  0.00  0.00    -0.079 HD
ENDROOT
BRANCH   2   8
ATOM      8  O   UNL     1      35.357 -15.563 -23.137  0.00  0.00    -0.481 OA
BRANCH   8   9
ATOM      9  C   UNL     1      34.604 -14.456 -22.850  0.00  0.00    +0.138 C 
ATOM     10  C   UNL     1      34.325 -13.534 -23.852  0.00  0.00    +0.038 C 
ATOM     11  C   UNL     1      34.125 -14.265 -21.558  0.00  0.00    +0.038 C 
ATOM     12  C   UNL     1      33.558 -12.405 -23.559  0.00  0.00    +0.018 C 
ATOM     13  C   UNL     1      33.358 -13.138 -21.266  0.00  0.00    +0.018 C 
ATOM     14  C   UNL     1      33.074 -12.208 -22.266  0.00  0.00    +0.057 C 
BRANCH  14  15
ATOM     15  N   UNL     1      32.313 -11.090 -21.976  0.00  0.00    -0.246 N 
ATOM     16  N   UNL     1      30.804  -9.792 -20.971  0.00  0.00    -0.224 NA
ATOM     17  C   UNL     1      32.375  -9.872 -22.603  0.00  0.00    +0.092 C 
ATOM     18  C   UNL     1      31.351 -10.987 -21.002  0.00  0.00    +0.172 C 
ATOM     19  C   UNL     1      31.439  -9.092 -21.967  0.00  0.00    +0.117 C 
ENDBRANCH  14  15
ENDBRANCH   8   9
ENDBRANCH   2   8
BRANCH   1  20
ATOM     20  C   UNL     1      35.735 -19.801 -20.860  0.00  0.00    -0.050 C 
BRANCH  20  23
ATOM     21  O   UNL     1      34.873 -22.938 -17.146  0.00  0.00    -0.435 OA
ATOM     22  O   UNL     1      32.484 -22.682 -17.331  0.00  0.00    -0.435 OA
ATOM     23  C   UNL     1      34.831 -20.561 -19.926  0.00  0.00    -0.040 C 
ATOM     24  C   UNL     1      35.391 -21.400 -18.969  0.00  0.00    +0.034 C 
ATOM     25  C   UNL     1      33.444 -20.405 -20.043  0.00  0.00    -0.003 C 
ATOM     26  C   UNL     1      34.521 -22.074 -18.137  0.00  0.00    +0.176 C 
ATOM     27  C   UNL     1      32.586 -21.100 -19.188  0.00  0.00    +0.040 C 
ATOM     28  C   UNL     1      33.157 -21.929 -18.244  0.00  0.00    +0.176 C 
ATOM     29  C   UNL     1      33.577 -23.318 -16.639  0.00  0.00    +0.429 C 
ENDBRANCH  20  23
ENDBRANCH   1  20
TORSDOF 5
ENDMDL
MODEL 2
REMARK VINA RESULT:     -10.7      4.661      8.493
REMARK  Name = 11740318
REMARK  5 active torsions:
REMARK  status: ('A' for Active; 'I' for Inactive)
REMARK    1  A    between atoms: N_1  and  C_20
REMARK    2  A    between atoms: C_2  and  O_8
REMARK    3  A    between atoms: O_8  and  C_9
REMARK    4  A    between atoms: C_14  and  N_15
REMARK    5  A    between atoms: C_20  and  C_23
REMARK                            x       y       z     vdW  Elec       q    Type
REMARK                         _______ _______ _______ _____ _____    ______ ____
ROOT
ATOM      1  N   UNL     1      33.349 -23.289 -14.064  0.00  0.00    +0.392 N 
ATOM      2  C   UNL     1      32.841 -22.777 -16.433  0.00  0.00    +0.145 C 
ATOM      3  C   UNL     1      33.701 -23.588 -15.458  0.00  0.00    -0.032 C 
ATOM      4  C   UNL     1      31.354 -23.012 -16.181  0.00  0.00    +0.039 C 
ATOM      5  C   UNL     1      31.017 -22.775 -14.715  0.00  0.00    -0.019 C 
ATOM      6  C   UNL     1      31.935 -23.585 -13.797  0.00  0.00    -0.077 C 
ATOM      7  H   UNL     1      33.495 -22.291 -13.911  0.00  0.00    -0.079 HD
ENDROOT
BRANCH   2   8
ATOM      8  O   UNL     1      33.139 -23.160 -17.771  0.00  0.00    -0.481 OA
BRANCH   8   9
ATOM      9  C   UNL     1      33.560 -22.169 -18.616  0.00  0.00    +0.138 C 
ATOM     10  C   UNL     1      34.921 -21.977 -18.830  0.00  0.00    +0.038 C 
ATOM     11  C   UNL     1      32.623 -21.363 -19.254  0.00  0.00    +0.038 C 
ATOM     12  C   UNL     1      35.350 -20.966 -19.691  0.00  0.00    +0.018 C 
ATOM     13  C   UNL     1      33.052 -20.353 -20.115  0.00  0.00    +0.018 C 
ATOM     14  C   UNL     1      34.415 -20.155 -20.334  0.00  0.00    +0.057 C 
BRANCH  14  15
ATOM     15  N   UNL     1      34.840 -19.154 -21.189  0.00  0.00    -0.246 N 
ATOM     16  N   UNL     1      35.131 -17.998 -23.072  0.00  0.00    -0.224 NA
ATOM     17  C   UNL     1      35.583 -18.052 -20.852  0.00  0.00    +0.092 C 
ATOM     18  C   UNL     1      34.595 -19.072 -22.537  0.00  0.00    +0.172 C 
ATOM     19  C   UNL     1      35.748 -17.358 -22.027  0.00  0.00    +0.117 C 
ENDBRANCH  14  15
ENDBRANCH   8   9
ENDBRANCH   2   8
BRANCH   1  20
ATOM     20  C   UNL     1      34.211 -24.035 -13.148  0.00  0.00    -0.050 C 
BRANCH  20  23
ATOM     21  O   UNL     1      38.555 -26.236 -13.963  0.00  0.00    -0.435 OA
ATOM     22  O   UNL     1      39.544 -24.219 -14.835  0.00  0.00    -0.435 OA
ATOM     23  C   UNL     1      35.643 -24.049 -13.611  0.00  0.00    -0.040 C 
ATOM     24  C   UNL     1      36.374 -25.229 -13.529  0.00  0.00    +0.034 C 
ATOM     25  C   UNL     1      36.208 -22.872 -14.116  0.00  0.00    -0.003 C 
ATOM     26  C   UNL     1      37.682 -25.191 -13.965  0.00  0.00    +0.176 C 
ATOM     27  C   UNL     1      37.535 -22.861 -14.552  0.00  0.00    +0.040 C 
ATOM     28  C   UNL     1      38.247 -24.039 -14.463  0.00  0.00    +0.176 C 
ATOM     29  C   UNL     1      39.732 -25.613 -14.517  0.00  0.00    +0.429 C 
ENDBRANCH  20  23
ENDBRANCH   1  20
TORSDOF 5
ENDMDL
MODEL 3
REMARK VINA RESULT:     -10.1      3.248     10.108
REMARK  Name = 11740318
REMARK  5 active torsions:
REMARK  status: ('A' for Active; 'I' for Inactive)
REMARK    1  A    between atoms: N_1  and  C_20
REMARK    2  A    between atoms: C_2  and  O_8
REMARK    3  A    between atoms: O_8  and  C_9
REMARK    4  A    between atoms: C_14  and  N_15
REMARK    5  A    between atoms: C_20  and  C_23
REMARK                            x       y       z     vdW  Elec       q    Type
REMARK                         _______ _______ _______ _____ _____    ______ ____
ROOT
ATOM      1  N   UNL     1      35.370 -18.587 -21.742  0.00  0.00    +0.392 N 
ATOM      2  C   UNL     1      35.327 -20.377 -20.032  0.00  0.00    +0.145 C 
ATOM      3  C   UNL     1      34.989 -19.979 -21.472  0.00  0.00    -0.032 C 
ATOM      4  C   UNL     1      36.804 -20.145 -19.729  0.00  0.00    +0.039 C 
ATOM      5  C   UNL     1      37.205 -18.721 -20.087  0.00  0.00    -0.019 C 
ATOM      6  C   UNL     1      36.808 -18.378 -21.524  0.00  0.00    -0.077 C 
ATOM      7  H   UNL     1      34.863 -17.991 -21.088  0.00  0.00    -0.079 HD
ENDROOT
BRANCH   2   8
ATOM      8  O   UNL     1      35.034 -21.756 -19.833  0.00  0.00    -0.481 OA
BRANCH   8   9
ATOM      9  C   UNL     1      34.513 -22.105 -18.616  0.00  0.00    +0.138 C 
ATOM     10  C   UNL     1      35.367 -22.382 -17.554  0.00  0.00    +0.038 C 
ATOM     11  C   UNL     1      33.133 -22.180 -18.453  0.00  0.00    +0.038 C 
ATOM     12  C   UNL     1      34.835 -22.739 -16.314  0.00  0.00    +0.018 C 
ATOM     13  C   UNL     1      32.602 -22.536 -17.214  0.00  0.00    +0.018 C 
ATOM     14  C   UNL     1      33.453 -22.815 -16.144  0.00  0.00    +0.057 C 
BRANCH  14  15
ATOM     15  N   UNL     1      32.926 -23.167 -14.915  0.00  0.00    -0.246 N 
ATOM     16  N   UNL     1      32.825 -23.954 -12.832  0.00  0.00    -0.224 NA
ATOM     17  C   UNL     1      31.627 -23.007 -14.506  0.00  0.00    +0.092 C 
ATOM     18  C   UNL     1      33.604 -23.741 -13.869  0.00  0.00    +0.172 C 
ATOM     19  C   UNL     1      31.591 -23.498 -13.223  0.00  0.00    +0.117 C 
ENDBRANCH  14  15
ENDBRANCH   8   9
ENDBRANCH   2   8
BRANCH   1  20
ATOM     20  C   UNL     1      34.998 -18.209 -23.105  0.00  0.00    -0.050 C 
BRANCH  20  23
ATOM     21  O   UNL     1      33.546 -14.188 -25.575  0.00  0.00    -0.435 OA
ATOM     22  O   UNL     1      33.800 -12.769 -23.644  0.00  0.00    -0.435 OA
ATOM     23  C   UNL     1      34.685 -16.741 -23.214  0.00  0.00    -0.040 C 
ATOM     24  C   UNL     1      34.251 -16.226 -24.431  0.00  0.00    +0.034 C 
ATOM     25  C   UNL     1      34.836 -15.925 -22.087  0.00  0.00    -0.003 C 
ATOM     26  C   UNL     1      33.976 -14.875 -24.481  0.00  0.00    +0.176 C 
ATOM     27  C   UNL     1      34.550 -14.560 -22.165  0.00  0.00    +0.040 C 
ATOM     28  C   UNL     1      34.122 -14.065 -23.379  0.00  0.00    +0.176 C 
ATOM     29  C   UNL     1      33.435 -12.855 -25.036  0.00  0.00    +0.429 C 
ENDBRANCH  20  23
ENDBRANCH   1  20
TORSDOF 5
ENDMDL
MODEL 4
REMARK VINA RESULT:     -10.1      1.082      1.764
REMARK  Name = 11740318
REMARK  5 active torsions:
REMARK  status: ('A' for Active; 'I' for Inactive)
REMARK    1  A    between atoms: N_1  and  C_20
REMARK    2  A    between atoms: C_2  and  O_8
REMARK    3  A    between atoms: O_8  and  C_9
REMARK    4  A    between atoms: C_14  and  N_15
REMARK    5  A    between atoms: C_20  and  C_23
REMARK                            x       y       z     vdW  Elec       q    Type
REMARK                         _______ _______ _______ _____ _____    ______ ____
ROOT
ATOM      1  N   UNL     1      34.954 -18.241 -22.288  0.00  0.00    +0.392 N 
ATOM      2  C   UNL     1      34.109 -16.523 -23.858  0.00  0.00    +0.145 C 
ATOM      3  C   UNL     1      35.239 -16.943 -22.914  0.00  0.00    -0.032 C 
ATOM      4  C   UNL     1      33.846 -17.594 -24.913  0.00  0.00    +0.039 C 
ATOM      5  C   UNL     1      33.629 -18.949 -24.255  0.00  0.00    -0.019 C 
ATOM      6  C   UNL     1      34.775 -19.291 -23.300  0.00  0.00    -0.077 C 
ATOM      7  H   UNL     1      34.081 -18.153 -21.768  0.00  0.00    -0.079 HD
ENDROOT
BRANCH   2   8
ATOM      8  O   UNL     1      34.459 -15.312 -24.519  0.00  0.00    -0.481 OA
BRANCH   8   9
ATOM      9  C   UNL     1      33.991 -14.151 -23.966  0.00  0.00    +0.138 C 
ATOM     10  C   UNL     1      34.046 -12.968 -24.697  0.00  0.00    +0.038 C 
ATOM     11  C   UNL     1      33.465 -14.163 -22.679  0.00  0.00    +0.038 C 
ATOM     12  C   UNL     1      33.569 -11.784 -24.133  0.00  0.00    +0.018 C 
ATOM     13  C   UNL     1      32.988 -12.980 -22.116  0.00  0.00    +0.018 C 
ATOM     14  C   UNL     1      33.040 -11.790 -22.843  0.00  0.00    +0.057 C 
BRANCH  14  15
ATOM     15  N   UNL     1      32.566 -10.617 -22.284  0.00  0.00    -0.246 N 
ATOM     16  N   UNL     1      32.159  -8.441 -22.025  0.00  0.00    -0.224 NA
ATOM     17  C   UNL     1      31.840 -10.497 -21.127  0.00  0.00    +0.092 C 
ATOM     18  C   UNL     1      32.729  -9.349 -22.785  0.00  0.00    +0.172 C 
ATOM     19  C   UNL     1      31.603  -9.150 -20.990  0.00  0.00    +0.117 C 
ENDBRANCH  14  15
ENDBRANCH   8   9
ENDBRANCH   2   8
BRANCH   1  20
ATOM     20  C   UNL     1      36.021 -18.604 -21.355  0.00  0.00    -0.050 C 
BRANCH  20  23
ATOM     21  O   UNL     1      32.656 -21.316 -18.966  0.00  0.00    -0.435 OA
ATOM     22  O   UNL     1      34.335 -22.711 -17.947  0.00  0.00    -0.435 OA
ATOM     23  C   UNL     1      35.603 -19.719 -20.433  0.00  0.00    -0.040 C 
ATOM     24  C   UNL     1      34.250 -19.925 -20.185  0.00  0.00    +0.034 C 
ATOM     25  C   UNL     1      36.586 -20.524 -19.846  0.00  0.00    -0.003 C 
ATOM     26  C   UNL     1      33.917 -20.959 -19.334  0.00  0.00    +0.176 C 
ATOM     27  C   UNL     1      36.222 -21.563 -18.988  0.00  0.00    +0.040 C 
ATOM     28  C   UNL     1      34.876 -21.755 -18.751  0.00  0.00    +0.176 C 
ATOM     29  C   UNL     1      32.929 -22.428 -18.089  0.00  0.00    +0.429 C 
ENDBRANCH  20  23
ENDBRANCH   1  20
TORSDOF 5
ENDMDL
MODEL 5
REMARK VINA RESULT:     -10.1      5.429      8.698
REMARK  Name = 11740318
REMARK  5 active torsions:
REMARK  status: ('A' for Active; 'I' for Inactive)
REMARK    1  A    between atoms: N_1  and  C_20
REMARK    2  A    between atoms: C_2  and  O_8
REMARK    3  A    between atoms: O_8  and  C_9
REMARK    4  A    between atoms: C_14  and  N_15
REMARK    5  A    between atoms: C_20  and  C_23
REMARK                            x       y       z     vdW  Elec       q    Type
REMARK                         _______ _______ _______ _____ _____    ______ ____
ROOT
ATOM      1  N   UNL     1      32.661 -23.138 -13.955  0.00  0.00    +0.392 N 
ATOM      2  C   UNL     1      32.014 -22.650 -16.295  0.00  0.00    +0.145 C 
ATOM      3  C   UNL     1      32.957 -23.421 -15.366  0.00  0.00    -0.032 C 
ATOM      4  C   UNL     1      30.554 -22.951 -15.970  0.00  0.00    +0.039 C 
ATOM      5  C   UNL     1      30.279 -22.729 -14.489  0.00  0.00    -0.019 C 
ATOM      6  C   UNL     1      31.276 -23.498 -13.620  0.00  0.00    -0.077 C 
ATOM      7  H   UNL     1      32.769 -22.135 -13.807  0.00  0.00    -0.079 HD
ENDROOT
BRANCH   2   8
ATOM      8  O   UNL     1      32.263 -23.019 -17.646  0.00  0.00    -0.481 OA
BRANCH   8   9
ATOM      9  C   UNL     1      33.091 -22.200 -18.366  0.00  0.00    +0.138 C 
ATOM     10  C   UNL     1      32.546 -21.250 -19.223  0.00  0.00    +0.038 C 
ATOM     11  C   UNL     1      34.470 -22.325 -18.234  0.00  0.00    +0.038 C 
ATOM     12  C   UNL     1      33.390 -20.414 -19.957  0.00  0.00    +0.018 C 
ATOM     13  C   UNL     1      35.313 -21.490 -18.967  0.00  0.00    +0.018 C 
ATOM     14  C   UNL     1      34.773 -20.535 -19.828  0.00  0.00    +0.057 C 
BRANCH  14  15
ATOM     15  N   UNL     1      35.610 -19.707 -20.554  0.00  0.00    -0.246 N 
ATOM     16  N   UNL     1      37.447 -18.594 -21.148  0.00  0.00    -0.224 NA
ATOM     17  C   UNL     1      35.293 -19.027 -21.702  0.00  0.00    +0.092 C 
ATOM     18  C   UNL     1      36.919 -19.411 -20.265  0.00  0.00    +0.172 C 
ATOM     19  C   UNL     1      36.439 -18.351 -22.047  0.00  0.00    +0.117 C 
ENDBRANCH  14  15
ENDBRANCH   8   9
ENDBRANCH   2   8
BRANCH   1  20
ATOM     20  C   UNL     1      33.599 -23.845 -13.084  0.00  0.00    -0.050 C 
BRANCH  20  23
ATOM     21  O   UNL     1      37.203 -21.913 -15.851  0.00  0.00    -0.435 OA
ATOM     22  O   UNL     1      38.787 -23.595 -15.169  0.00  0.00    -0.435 OA
ATOM     23  C   UNL     1      35.004 -23.808 -13.625  0.00  0.00    -0.040 C 
ATOM     24  C   UNL     1      35.365 -22.800 -14.512  0.00  0.00    +0.034 C 
ATOM     25  C   UNL     1      35.916 -24.791 -13.223  0.00  0.00    -0.003 C 
ATOM     26  C   UNL     1      36.662 -22.808 -14.980  0.00  0.00    +0.176 C 
ATOM     27  C   UNL     1      37.224 -24.775 -13.711  0.00  0.00    +0.040 C 
ATOM     28  C   UNL     1      37.567 -23.769 -14.591  0.00  0.00    +0.176 C 
ATOM     29  C   UNL     1      38.550 -22.417 -15.965  0.00  0.00    +0.429 C 
ENDBRANCH  20  23
ENDBRANCH   1  20
TORSDOF 5
ENDMDL
MODEL 6
REMARK VINA RESULT:     -10.0      3.655     10.368
REMARK  Name = 11740318
REMARK  5 active torsions:
REMARK  status: ('A' for Active; 'I' for Inactive)
REMARK    1  A    between atoms: N_1  and  C_20
REMARK    2  A    between atoms: C_2  and  O_8
REMARK    3  A    between atoms: O_8  and  C_9
REMARK    4  A    between atoms: C_14  and  N_15
REMARK    5  A    between atoms: C_20  and  C_23
REMARK                            x       y       z     vdW  Elec       q    Type
REMARK                         _______ _______ _______ _____ _____    ______ ____
ROOT
ATOM      1  N   UNL     1      35.244 -20.076 -20.799  0.00  0.00    +0.392 N 
ATOM      2  C   UNL     1      34.917 -21.874 -19.129  0.00  0.00    +0.145 C 
ATOM      3  C   UNL     1      35.832 -20.757 -19.638  0.00  0.00    -0.032 C 
ATOM      4  C   UNL     1      33.525 -21.341 -18.804  0.00  0.00    +0.039 C 
ATOM      5  C   UNL     1      32.958 -20.571 -19.989  0.00  0.00    -0.019 C 
ATOM      6  C   UNL     1      33.936 -19.495 -20.468  0.00  0.00    -0.077 C 
ATOM      7  H   UNL     1      35.103 -20.771 -21.531  0.00  0.00    -0.079 HD
ENDROOT
BRANCH   2   8
ATOM      8  O   UNL     1      35.469 -22.448 -17.949  0.00  0.00    -0.481 OA
BRANCH   8   9
ATOM      9  C   UNL     1      34.585 -22.797 -16.963  0.00  0.00    +0.138 C 
ATOM     10  C   UNL     1      35.000 -22.801 -15.635  0.00  0.00    +0.038 C 
ATOM     11  C   UNL     1      33.281 -23.146 -17.297  0.00  0.00    +0.038 C 
ATOM     12  C   UNL     1      34.100 -23.157 -14.630  0.00  0.00    +0.018 C 
ATOM     13  C   UNL     1      32.381 -23.501 -16.293  0.00  0.00    +0.018 C 
ATOM     14  C   UNL     1      32.791 -23.507 -14.959  0.00  0.00    +0.057 C 
BRANCH  14  15
ATOM     15  N   UNL     1      31.898 -23.859 -13.963  0.00  0.00    -0.246 N 
ATOM     16  N   UNL     1      30.764 -23.771 -12.046  0.00  0.00    -0.224 NA
ATOM     17  C   UNL     1      31.060 -24.944 -13.963  0.00  0.00    +0.092 C 
ATOM     18  C   UNL     1      31.679 -23.186 -12.786  0.00  0.00    +0.172 C 
ATOM     19  C   UNL     1      30.373 -24.867 -12.774  0.00  0.00    +0.117 C 
ENDBRANCH  14  15
ENDBRANCH   8   9
ENDBRANCH   2   8
BRANCH   1  20
ATOM     20  C   UNL     1      36.151 -19.044 -21.300  0.00  0.00    -0.050 C 
BRANCH  20  23
ATOM     21  O   UNL     1      34.780 -14.658 -23.108  0.00  0.00    -0.435 OA
ATOM     22  O   UNL     1      33.714 -15.653 -25.027  0.00  0.00    -0.435 OA
ATOM     23  C   UNL     1      35.486 -18.161 -22.322  0.00  0.00    -0.040 C 
ATOM     24  C   UNL     1      35.499 -16.782 -22.143  0.00  0.00    +0.034 C 
ATOM     25  C   UNL     1      34.869 -18.749 -23.433  0.00  0.00    -0.003 C 
ATOM     26  C   UNL     1      34.877 -16.016 -23.107  0.00  0.00    +0.176 C 
ATOM     27  C   UNL     1      34.247 -17.950 -24.395  0.00  0.00    +0.040 C 
ATOM     28  C   UNL     1      34.267 -16.584 -24.202  0.00  0.00    +0.176 C 
ATOM     29  C   UNL     1      34.044 -14.435 -24.328  0.00  0.00    +0.429 C 
ENDBRANCH  20  23
ENDBRANCH   1  20
TORSDOF 5
ENDMDL
MODEL 7
REMARK VINA RESULT:      -9.9      6.938     10.915
REMARK  Name = 11740318
REMARK  5 active torsions:
REMARK  status: ('A' for Active; 'I' for Inactive)
REMARK    1  A    between atoms: N_1  and  C_20
REMARK    2  A    between atoms: C_2  and  O_8
REMARK    3  A    between atoms: O_8  and  C_9
REMARK    4  A    between atoms: C_14  and  N_15
REMARK    5  A    between atoms: C_20  and  C_23
REMARK                            x       y       z     vdW  Elec       q    Type
REMARK                         _______ _______ _______ _____ _____    ______ ____
ROOT
ATOM      1  N   UNL     1      35.982 -22.952 -14.355  0.00  0.00    +0.392 N 
ATOM      2  C   UNL     1      34.214 -23.604 -12.749  0.00  0.00    +0.145 C 
ATOM      3  C   UNL     1      34.749 -23.729 -14.179  0.00  0.00    -0.032 C 
ATOM      4  C   UNL     1      35.271 -24.014 -11.728  0.00  0.00    +0.039 C 
ATOM      5  C   UNL     1      36.569 -23.258 -11.970  0.00  0.00    -0.019 C 
ATOM      6  C   UNL     1      37.028 -23.395 -13.423  0.00  0.00    -0.077 C 
ATOM      7  H   UNL     1      35.770 -21.976 -14.147  0.00  0.00    -0.079 HD
ENDROOT
BRANCH   2   8
ATOM      8  O   UNL     1      33.076 -24.443 -12.586  0.00  0.00    -0.481 OA
BRANCH   8   9
ATOM      9  C   UNL     1      31.965 -24.125 -13.320  0.00  0.00    +0.138 C 
ATOM     10  C   UNL     1      31.767 -22.813 -13.736  0.00  0.00    +0.038 C 
ATOM     11  C   UNL     1      31.046 -25.117 -13.645  0.00  0.00    +0.038 C 
ATOM     12  C   UNL     1      30.634 -22.489 -14.485  0.00  0.00    +0.018 C 
ATOM     13  C   UNL     1      29.915 -24.793 -14.393  0.00  0.00    +0.018 C 
ATOM     14  C   UNL     1      29.709 -23.479 -14.813  0.00  0.00    +0.057 C 
BRANCH  14  15
ATOM     15  N   UNL     1      28.587 -23.158 -15.556  0.00  0.00    -0.246 N 
ATOM     16  N   UNL     1      27.132 -23.145 -17.245  0.00  0.00    -0.224 NA
ATOM     17  C   UNL     1      27.579 -22.305 -15.188  0.00  0.00    +0.092 C 
ATOM     18  C   UNL     1      28.268 -23.636 -16.803  0.00  0.00    +0.172 C 
ATOM     19  C   UNL     1      26.697 -22.314 -16.242  0.00  0.00    +0.117 C 
ENDBRANCH  14  15
ENDBRANCH   8   9
ENDBRANCH   2   8
BRANCH   1  20
ATOM     20  C   UNL     1      36.453 -23.045 -15.736  0.00  0.00    -0.050 C 
BRANCH  20  23
ATOM     21  O   UNL     1      34.908 -20.586 -19.730  0.00  0.00    -0.435 OA
ATOM     22  O   UNL     1      32.635 -21.337 -19.455  0.00  0.00    -0.435 OA
ATOM     23  C   UNL     1      35.400 -22.604 -16.718  0.00  0.00    -0.040 C 
ATOM     24  C   UNL     1      35.758 -21.771 -17.772  0.00  0.00    +0.034 C 
ATOM     25  C   UNL     1      34.082 -23.046 -16.550  0.00  0.00    -0.003 C 
ATOM     26  C   UNL     1      34.759 -21.395 -18.645  0.00  0.00    +0.176 C 
ATOM     27  C   UNL     1      33.090 -22.651 -17.449  0.00  0.00    +0.040 C 
ATOM     28  C   UNL     1      33.460 -21.823 -18.488  0.00  0.00    +0.176 C 
ATOM     29  C   UNL     1      33.559 -20.555 -20.239  0.00  0.00    +0.429 C 
ENDBRANCH  20  23
ENDBRANCH   1  20
TORSDOF 5
ENDMDL
MODEL 8
REMARK VINA RESULT:      -9.9      4.356     11.876
REMARK  Name = 11740318
REMARK  5 active torsions:
REMARK  status: ('A' for Active; 'I' for Inactive)
REMARK    1  A    between atoms: N_1  and  C_20
REMARK    2  A    between atoms: C_2  and  O_8
REMARK    3  A    between atoms: O_8  and  C_9
REMARK    4  A    between atoms: C_14  and  N_15
REMARK    5  A    between atoms: C_20  and  C_23
REMARK                            x       y       z     vdW  Elec       q    Type
REMARK                         _______ _______ _______ _____ _____    ______ ____
ROOT
ATOM      1  N   UNL     1      32.945  -9.228 -22.354  0.00  0.00    +0.392 N 
ATOM      2  C   UNL     1      33.873 -11.141 -23.622  0.00  0.00    +0.145 C 
ATOM      3  C   UNL     1      32.611 -10.448 -23.100  0.00  0.00    -0.032 C 
ATOM      4  C   UNL     1      34.711 -10.191 -24.472  0.00  0.00    +0.039 C 
ATOM      5  C   UNL     1      34.985  -8.898 -23.716  0.00  0.00    -0.019 C 
ATOM      6  C   UNL     1      33.688  -8.277 -23.193  0.00  0.00    -0.077 C 
ATOM      7  H   UNL     1      33.545  -9.492 -21.573  0.00  0.00    -0.079 HD
ENDROOT
BRANCH   2   8
ATOM      8  O   UNL     1      33.511 -12.263 -24.420  0.00  0.00    -0.481 OA
BRANCH   8   9
ATOM      9  C   UNL     1      33.865 -13.497 -23.944  0.00  0.00    +0.138 C 
ATOM     10  C   UNL     1      33.823 -14.599 -24.791  0.00  0.00    +0.038 C 
ATOM     11  C   UNL     1      34.264 -13.637 -22.619  0.00  0.00    +0.038 C 
ATOM     12  C   UNL     1      34.184 -15.858 -24.306  0.00  0.00    +0.018 C 
ATOM     13  C   UNL     1      34.625 -14.894 -22.135  0.00  0.00    +0.018 C 
ATOM     14  C   UNL     1      34.585 -16.004 -22.979  0.00  0.00    +0.057 C 
BRANCH  14  15
ATOM     15  N   UNL     1      34.944 -17.251 -22.499  0.00  0.00    -0.246 N 
ATOM     16  N   UNL     1      35.856 -18.799 -21.179  0.00  0.00    -0.224 NA
ATOM     17  C   UNL     1      34.625 -18.464 -23.053  0.00  0.00    +0.092 C 
ATOM     18  C   UNL     1      35.685 -17.511 -21.373  0.00  0.00    +0.172 C 
ATOM     19  C   UNL     1      35.197 -19.399 -22.224  0.00  0.00    +0.117 C 
ENDBRANCH  14  15
ENDBRANCH   8   9
ENDBRANCH   2   8
BRANCH   1  20
ATOM     20  C   UNL     1      31.733  -8.604 -21.824  0.00  0.00    -0.050 C 
BRANCH  20  23
ATOM     21  O   UNL     1      30.928  -4.376 -24.243  0.00  0.00    -0.435 OA
ATOM     22  O   UNL     1      31.812  -3.042 -22.442  0.00  0.00    -0.435 OA
ATOM     23  C   UNL     1      31.769  -7.105 -21.956  0.00  0.00    -0.040 C 
ATOM     24  C   UNL     1      31.289  -6.513 -23.119  0.00  0.00    +0.034 C 
ATOM     25  C   UNL     1      32.285  -6.339 -20.904  0.00  0.00    -0.003 C 
ATOM     26  C   UNL     1      31.343  -5.136 -23.194  0.00  0.00    +0.176 C 
ATOM     27  C   UNL     1      32.328  -4.947 -21.005  0.00  0.00    +0.040 C 
ATOM     28  C   UNL     1      31.849  -4.374 -22.165  0.00  0.00    +0.176 C 
ATOM     29  C   UNL     1      31.226  -3.051 -23.759  0.00  0.00    +0.429 C 
ENDBRANCH  20  23
ENDBRANCH   1  20
TORSDOF 5
ENDMDL
MODEL 9
REMARK VINA RESULT:      -9.8      3.619     10.828
REMARK  Name = 11740318
REMARK  5 active torsions:
REMARK  status: ('A' for Active; 'I' for Inactive)
REMARK    1  A    between atoms: N_1  and  C_20
REMARK    2  A    between atoms: C_2  and  O_8
REMARK    3  A    between atoms: O_8  and  C_9
REMARK    4  A    between atoms: C_14  and  N_15
REMARK    5  A    between atoms: C_20  and  C_23
REMARK                            x       y       z     vdW  Elec       q    Type
REMARK                         _______ _______ _______ _____ _____    ______ ____
ROOT
ATOM      1  N   UNL     1      32.932 -10.893 -22.531  0.00  0.00    +0.392 N 
ATOM      2  C   UNL     1      33.990 -12.715 -23.832  0.00  0.00    +0.145 C 
ATOM      3  C   UNL     1      32.769 -12.267 -23.022  0.00  0.00    -0.032 C 
ATOM      4  C   UNL     1      34.271 -11.752 -24.982  0.00  0.00    +0.039 C 
ATOM      5  C   UNL     1      34.360 -10.321 -24.470  0.00  0.00    -0.019 C 
ATOM      6  C   UNL     1      33.128  -9.951 -23.641  0.00  0.00    -0.077 C 
ATOM      7  H   UNL     1      33.767 -10.867 -21.946  0.00  0.00    -0.079 HD
ENDROOT
BRANCH   2   8
ATOM      8  O   UNL     1      33.759 -14.011 -24.373  0.00  0.00    -0.481 OA
BRANCH   8   9
ATOM      9  C   UNL     1      34.197 -15.075 -23.632  0.00  0.00    +0.138 C 
ATOM     10  C   UNL     1      34.315 -16.327 -24.225  0.00  0.00    +0.038 C 
ATOM     11  C   UNL     1      34.520 -14.895 -22.291  0.00  0.00    +0.038 C 
ATOM     12  C   UNL     1      34.761 -17.412 -23.469  0.00  0.00    +0.018 C 
ATOM     13  C   UNL     1      34.966 -15.978 -21.535  0.00  0.00    +0.018 C 
ATOM     14  C   UNL     1      35.087 -17.237 -22.125  0.00  0.00    +0.057 C 
BRANCH  14  15
ATOM     15  N   UNL     1      35.530 -18.312 -21.375  0.00  0.00    -0.246 N 
ATOM     16  N   UNL     1      36.874 -19.573 -20.121  0.00  0.00    -0.224 NA
ATOM     17  C   UNL     1      34.832 -19.459 -21.097  0.00  0.00    +0.092 C 
ATOM     18  C   UNL     1      36.753 -18.433 -20.763  0.00  0.00    +0.172 C 
ATOM     19  C   UNL     1      35.680 -20.217 -20.325  0.00  0.00    +0.117 C 
ENDBRANCH  14  15
ENDBRANCH   8   9
ENDBRANCH   2   8
BRANCH   1  20
ATOM     20  C   UNL     1      31.780 -10.499 -21.721  0.00  0.00    -0.050 C 
BRANCH  20  23
ATOM     21  O   UNL     1      31.010  -5.734 -22.761  0.00  0.00    -0.435 OA
ATOM     22  O   UNL     1      31.819  -5.014 -20.609  0.00  0.00    -0.435 OA
ATOM     23  C   UNL     1      31.804  -9.031 -21.388  0.00  0.00    -0.040 C 
ATOM     24  C   UNL     1      31.357  -8.112 -22.331  0.00  0.00    +0.034 C 
ATOM     25  C   UNL     1      32.276  -8.623 -20.135  0.00  0.00    -0.003 C 
ATOM     26  C   UNL     1      31.398  -6.779 -21.980  0.00  0.00    +0.176 C 
ATOM     27  C   UNL     1      32.307  -7.267 -19.804  0.00  0.00    +0.040 C 
ATOM     28  C   UNL     1      31.861  -6.367 -20.751  0.00  0.00    +0.176 C 
ATOM     29  C   UNL     1      31.277  -4.620 -21.886  0.00  0.00    +0.429 C 
ENDBRANCH  20  23
ENDBRANCH   1  20
TORSDOF 5
ENDMDL
