MODEL 1
REMARK VINA RESULT:     -12.8      0.000      0.000
REMARK  Name = 10407120
REMARK  4 active torsions:
REMARK  status: ('A' for Active; 'I' for Inactive)
REMARK    1  A    between atoms: N_2  and  C_19
REMARK    2  A    between atoms: C_3  and  C_6
REMARK    3  A    between atoms: C_5  and  C_16
REMARK    4  A    between atoms: C_19  and  C_21
REMARK                            x       y       z     vdW  Elec       q    Type
REMARK                         _______ _______ _______ _____ _____    ______ ____
ROOT
ATOM      1  O   UNL     1      34.313 -15.994 -25.319  0.00  0.00    -0.270 OA
ATOM      2  N   UNL     1      33.641 -14.213 -23.984  0.00  0.00    -0.267 N 
ATOM      3  C   UNL     1      34.190 -15.479 -24.206  0.00  0.00    +0.250 C 
ATOM      4  C   UNL     1      33.176 -13.428 -25.120  0.00  0.00    +0.116 C 
ENDROOT
BRANCH   3   6
ATOM      5  C   UNL     1      34.897 -17.556 -23.071  0.00  0.00    +0.006 C 
ATOM      6  C   UNL     1      34.615 -16.234 -22.990  0.00  0.00    +0.058 C 
BRANCH   5  16
ATOM      7  O   UNL     1      36.149 -22.386 -17.203  0.00  0.00    -0.275 OA
ATOM      8  N   UNL     1      36.529 -20.747 -18.766  0.00  0.00    -0.270 N 
ATOM      9  N   UNL     1      37.001 -19.113 -20.410  0.00  0.00    -0.229 NA
ATOM     10  C   UNL     1      33.815 -20.946 -19.559  0.00  0.00    +0.039 C 
ATOM     11  C   UNL     1      34.785 -20.071 -20.293  0.00  0.00    +0.010 C 
ATOM     12  C   UNL     1      34.524 -22.144 -18.949  0.00  0.00    +0.090 C 
ATOM     13  C   UNL     1      36.104 -19.963 -19.856  0.00  0.00    +0.130 C 
ATOM     14  C   UNL     1      34.380 -19.266 -21.359  0.00  0.00    +0.000 C 
ATOM     15  C   UNL     1      35.783 -21.761 -18.198  0.00  0.00    +0.227 C 
ATOM     16  C   UNL     1      35.289 -18.400 -21.957  0.00  0.00    +0.019 C 
ATOM     17  C   UNL     1      36.574 -18.360 -21.448  0.00  0.00    +0.100 C 
ATOM     18  H   UNL     1      37.417 -20.561 -18.385  0.00  0.00    +0.156 HD
ENDBRANCH   5  16
ENDBRANCH   3   6
BRANCH   2  19
ATOM     19  C   UNL     1      33.454 -13.596 -22.672  0.00  0.00    +0.158 C 
BRANCH  19  21
ATOM     20  O   UNL     1      34.369 -11.526 -23.472  0.00  0.00    -0.456 OA
ATOM     21  C   UNL     1      33.380 -12.100 -22.761  0.00  0.00    +0.139 A 
ATOM     22  C   UNL     1      32.501 -11.198 -22.261  0.00  0.00    +0.013 A 
ATOM     23  C   UNL     1      32.972  -9.930 -22.692  0.00  0.00    +0.033 A 
ATOM     24  C   UNL     1      34.123 -10.187 -23.432  0.00  0.00    +0.145 A 
ATOM     25  C   UNL     1      31.304 -11.467 -21.440  0.00  0.00    +0.034 C 
ATOM     26  C   UNL     1      32.556  -8.597 -22.539  0.00  0.00    +0.003 C 
ATOM     27  C   UNL     1      34.897  -9.200 -24.040  0.00  0.00    +0.037 C 
ATOM     28  C   UNL     1      33.315  -7.582 -23.138  0.00  0.00    +0.000 C 
ATOM     29  C   UNL     1      34.465  -7.881 -23.874  0.00  0.00    +0.003 C 
ENDBRANCH  19  21
ENDBRANCH   2  19
TORSDOF 4
ENDMDL
MODEL 2
REMARK VINA RESULT:     -12.2      1.204      1.609
REMARK  Name = 10407120
REMARK  4 active torsions:
REMARK  status: ('A' for Active; 'I' for Inactive)
REMARK    1  A    between atoms: N_2  and  C_19
REMARK    2  A    between atoms: C_3  and  C_6
REMARK    3  A    between atoms: C_5  and  C_16
REMARK    4  A    between atoms: C_19  and  C_21
REMARK                            x       y       z     vdW  Elec       q    Type
REMARK                         _______ _______ _______ _____ _____    ______ ____
ROOT
ATOM      1  O   UNL     1      34.313 -17.247 -25.065  0.00  0.00    -0.270 OA
ATOM      2  N   UNL     1      34.307 -15.346 -23.728  0.00  0.00    -0.267 N 
ATOM      3  C   UNL     1      34.523 -16.704 -23.979  0.00  0.00    +0.250 C 
ATOM      4  C   UNL     1      33.802 -14.493 -24.795  0.00  0.00    +0.116 C 
ENDROOT
BRANCH   3   6
ATOM      5  C   UNL     1      34.286 -18.565 -22.373  0.00  0.00    +0.006 C 
ATOM      6  C   UNL     1      35.013 -17.516 -22.826  0.00  0.00    +0.058 C 
BRANCH   5  16
ATOM      7  O   UNL     1      35.297 -23.254 -16.346  0.00  0.00    -0.275 OA
ATOM      8  N   UNL     1      35.784 -21.767 -18.028  0.00  0.00    -0.270 N 
ATOM      9  N   UNL     1      36.353 -20.301 -19.794  0.00  0.00    -0.229 NA
ATOM     10  C   UNL     1      33.013 -21.585 -18.598  0.00  0.00    +0.039 C 
ATOM     11  C   UNL     1      34.037 -20.903 -19.453  0.00  0.00    +0.010 C 
ATOM     12  C   UNL     1      33.585 -22.848 -17.974  0.00  0.00    +0.090 C 
ATOM     13  C   UNL     1      35.390 -20.977 -19.125  0.00  0.00    +0.130 C 
ATOM     14  C   UNL     1      33.667 -20.095 -20.530  0.00  0.00    +0.000 C 
ATOM     15  C   UNL     1      34.946 -22.627 -17.345  0.00  0.00    +0.227 C 
ATOM     16  C   UNL     1      34.641 -19.407 -21.245  0.00  0.00    +0.019 C 
ATOM     17  C   UNL     1      35.956 -19.541 -20.839  0.00  0.00    +0.100 C 
ATOM     18  H   UNL     1      36.718 -21.701 -17.726  0.00  0.00    +0.156 HD
ENDBRANCH   5  16
ENDBRANCH   3   6
BRANCH   2  19
ATOM     19  C   UNL     1      34.517 -14.686 -22.440  0.00  0.00    +0.158 C 
BRANCH  19  21
ATOM     20  O   UNL     1      34.193 -12.474 -23.314  0.00  0.00    -0.456 OA
ATOM     21  C   UNL     1      33.821 -13.358 -22.370  0.00  0.00    +0.139 A 
ATOM     22  C   UNL     1      32.876 -12.866 -21.533  0.00  0.00    +0.013 A 
ATOM     23  C   UNL     1      32.622 -11.544 -21.984  0.00  0.00    +0.033 A 
ATOM     24  C   UNL     1      33.457 -11.352 -23.080  0.00  0.00    +0.145 A 
ATOM     25  C   UNL     1      32.240 -13.550 -20.390  0.00  0.00    +0.034 C 
ATOM     26  C   UNL     1      31.781 -10.490 -21.588  0.00  0.00    +0.003 C 
ATOM     27  C   UNL     1      33.515 -10.173 -23.821  0.00  0.00    +0.037 C 
ATOM     28  C   UNL     1      31.818  -9.291 -22.313  0.00  0.00    +0.000 C 
ATOM     29  C   UNL     1      32.671  -9.138 -23.409  0.00  0.00    +0.003 C 
ENDBRANCH  19  21
ENDBRANCH   2  19
TORSDOF 4
ENDMDL
MODEL 3
REMARK VINA RESULT:     -12.1      2.434      9.915
REMARK  Name = 10407120
REMARK  4 active torsions:
REMARK  status: ('A' for Active; 'I' for Inactive)
REMARK    1  A    between atoms: N_2  and  C_19
REMARK    2  A    between atoms: C_3  and  C_6
REMARK    3  A    between atoms: C_5  and  C_16
REMARK    4  A    between atoms: C_19  and  C_21
REMARK                            x       y       z     vdW  Elec       q    Type
REMARK                         _______ _______ _______ _____ _____    ______ ____
ROOT
ATOM      1  O   UNL     1      34.021 -16.574 -25.160  0.00  0.00    -0.270 OA
ATOM      2  N   UNL     1      34.902 -17.431 -23.187  0.00  0.00    -0.267 N 
ATOM      3  C   UNL     1      34.349 -16.423 -23.982  0.00  0.00    +0.250 C 
ATOM      4  C   UNL     1      35.118 -18.754 -23.758  0.00  0.00    +0.116 C 
ENDROOT
BRANCH   3   6
ATOM      5  C   UNL     1      33.443 -14.126 -23.928  0.00  0.00    +0.006 C 
ATOM      6  C   UNL     1      34.188 -15.088 -23.333  0.00  0.00    +0.058 C 
BRANCH   5  16
ATOM      7  O   UNL     1      31.860  -7.386 -20.552  0.00  0.00    -0.275 OA
ATOM      8  N   UNL     1      32.723  -8.898 -22.050  0.00  0.00    -0.270 N 
ATOM      9  N   UNL     1      33.704 -10.419 -23.572  0.00  0.00    -0.229 NA
ATOM     10  C   UNL     1      31.267 -10.948 -20.741  0.00  0.00    +0.039 C 
ATOM     11  C   UNL     1      32.230 -11.253 -21.847  0.00  0.00    +0.010 C 
ATOM     12  C   UNL     1      31.699  -9.707 -19.975  0.00  0.00    +0.090 C 
ATOM     13  C   UNL     1      32.902 -10.221 -22.500  0.00  0.00    +0.130 C 
ATOM     14  C   UNL     1      32.404 -12.553 -22.326  0.00  0.00    +0.000 C 
ATOM     15  C   UNL     1      32.063  -8.553 -20.887  0.00  0.00    +0.227 C 
ATOM     16  C   UNL     1      33.239 -12.785 -23.413  0.00  0.00    +0.019 C 
ATOM     17  C   UNL     1      33.858 -11.694 -23.996  0.00  0.00    +0.100 C 
ATOM     18  H   UNL     1      33.092  -8.172 -22.601  0.00  0.00    +0.156 HD
ENDBRANCH   5  16
ENDBRANCH   3   6
BRANCH   2  19
ATOM     19  C   UNL     1      35.330 -17.267 -21.799  0.00  0.00    +0.158 C 
BRANCH  19  21
ATOM     20  O   UNL     1      33.928 -18.965 -20.844  0.00  0.00    -0.456 OA
ATOM     21  C   UNL     1      35.194 -18.539 -21.015  0.00  0.00    +0.139 A 
ATOM     22  C   UNL     1      36.106 -19.358 -20.437  0.00  0.00    +0.013 A 
ATOM     23  C   UNL     1      35.352 -20.404 -19.841  0.00  0.00    +0.033 A 
ATOM     24  C   UNL     1      34.020 -20.115 -20.119  0.00  0.00    +0.145 A 
ATOM     25  C   UNL     1      37.574 -19.204 -20.424  0.00  0.00    +0.034 C 
ATOM     26  C   UNL     1      35.649 -21.560 -19.099  0.00  0.00    +0.003 C 
ATOM     27  C   UNL     1      32.947 -20.904 -19.708  0.00  0.00    +0.037 C 
ATOM     28  C   UNL     1      34.591 -22.373 -18.671  0.00  0.00    +0.000 C 
ATOM     29  C   UNL     1      33.265 -22.048 -18.970  0.00  0.00    +0.003 C 
ENDBRANCH  19  21
ENDBRANCH   2  19
TORSDOF 4
ENDMDL
MODEL 4
REMARK VINA RESULT:     -12.1      2.265     10.213
REMARK  Name = 10407120
REMARK  4 active torsions:
REMARK  status: ('A' for Active; 'I' for Inactive)
REMARK    1  A    between atoms: N_2  and  C_19
REMARK    2  A    between atoms: C_3  and  C_6
REMARK    3  A    between atoms: C_5  and  C_16
REMARK    4  A    between atoms: C_19  and  C_21
REMARK                            x       y       z     vdW  Elec       q    Type
REMARK                         _______ _______ _______ _____ _____    ______ ____
ROOT
ATOM      1  O   UNL     1      33.873 -16.338 -25.265  0.00  0.00    -0.270 OA
ATOM      2  N   UNL     1      34.792 -17.227 -23.323  0.00  0.00    -0.267 N 
ATOM      3  C   UNL     1      34.265 -16.195 -24.105  0.00  0.00    +0.250 C 
ATOM      4  C   UNL     1      34.899 -18.566 -23.885  0.00  0.00    +0.116 C 
ENDROOT
BRANCH   3   6
ATOM      5  C   UNL     1      33.405 -13.884 -23.968  0.00  0.00    +0.006 C 
ATOM      6  C   UNL     1      34.217 -14.846 -23.469  0.00  0.00    +0.058 C 
BRANCH   5  16
ATOM      7  O   UNL     1      33.434  -6.471 -21.873  0.00  0.00    -0.275 OA
ATOM      8  N   UNL     1      32.896  -8.704 -21.897  0.00  0.00    -0.270 N 
ATOM      9  N   UNL     1      32.244 -10.977 -21.933  0.00  0.00    -0.229 NA
ATOM     10  C   UNL     1      34.888  -9.111 -23.871  0.00  0.00    +0.039 C 
ATOM     11  C   UNL     1      33.973 -10.216 -23.441  0.00  0.00    +0.010 C 
ATOM     12  C   UNL     1      34.202  -7.760 -23.743  0.00  0.00    +0.090 C 
ATOM     13  C   UNL     1      33.029  -9.997 -22.439  0.00  0.00    +0.130 C 
ATOM     14  C   UNL     1      34.105 -11.510 -23.946  0.00  0.00    +0.000 C 
ATOM     15  C   UNL     1      33.512  -7.578 -22.406  0.00  0.00    +0.227 C 
ATOM     16  C   UNL     1      33.295 -12.529 -23.457  0.00  0.00    +0.019 C 
ATOM     17  C   UNL     1      32.392 -12.214 -22.458  0.00  0.00    +0.100 C 
ATOM     18  H   UNL     1      32.326  -8.596 -21.102  0.00  0.00    +0.156 HD
ENDBRANCH   5  16
ENDBRANCH   3   6
BRANCH   2  19
ATOM     19  C   UNL     1      35.294 -17.074 -21.959  0.00  0.00    +0.158 C 
BRANCH  19  21
ATOM     20  O   UNL     1      33.959 -18.804 -20.967  0.00  0.00    -0.456 OA
ATOM     21  C   UNL     1      35.210 -18.355 -21.183  0.00  0.00    +0.139 A 
ATOM     22  C   UNL     1      36.157 -19.164 -20.649  0.00  0.00    +0.013 A 
ATOM     23  C   UNL     1      35.445 -20.228 -20.035  0.00  0.00    +0.033 A 
ATOM     24  C   UNL     1      34.098 -19.959 -20.258  0.00  0.00    +0.145 A 
ATOM     25  C   UNL     1      37.622 -18.985 -20.691  0.00  0.00    +0.034 C 
ATOM     26  C   UNL     1      35.789 -21.385 -19.316  0.00  0.00    +0.003 C 
ATOM     27  C   UNL     1      33.055 -20.770 -19.814  0.00  0.00    +0.037 C 
ATOM     28  C   UNL     1      34.762 -22.220 -18.855  0.00  0.00    +0.000 C 
ATOM     29  C   UNL     1      33.420 -21.915 -19.100  0.00  0.00    +0.003 C 
ENDBRANCH  19  21
ENDBRANCH   2  19
TORSDOF 4
ENDMDL
MODEL 5
REMARK VINA RESULT:     -11.6      0.853      1.749
REMARK  Name = 10407120
REMARK  4 active torsions:
REMARK  status: ('A' for Active; 'I' for Inactive)
REMARK    1  A    between atoms: N_2  and  C_19
REMARK    2  A    between atoms: C_3  and  C_6
REMARK    3  A    between atoms: C_5  and  C_16
REMARK    4  A    between atoms: C_19  and  C_21
REMARK                            x       y       z     vdW  Elec       q    Type
REMARK                         _______ _______ _______ _____ _____    ______ ____
ROOT
ATOM      1  O   UNL     1      33.736 -16.236 -25.273  0.00  0.00    -0.270 OA
ATOM      2  N   UNL     1      34.028 -14.184 -24.220  0.00  0.00    -0.267 N 
ATOM      3  C   UNL     1      34.124 -15.576 -24.307  0.00  0.00    +0.250 C 
ATOM      4  C   UNL     1      33.437 -13.438 -25.323  0.00  0.00    +0.116 C 
ENDROOT
BRANCH   3   6
ATOM      5  C   UNL     1      34.754 -17.622 -23.077  0.00  0.00    +0.006 C 
ATOM      6  C   UNL     1      34.712 -16.270 -23.124  0.00  0.00    +0.058 C 
BRANCH   5  16
ATOM      7  O   UNL     1      36.703 -22.208 -17.202  0.00  0.00    -0.275 OA
ATOM      8  N   UNL     1      36.866 -20.579 -18.813  0.00  0.00    -0.270 N 
ATOM      9  N   UNL     1      37.116 -18.949 -20.509  0.00  0.00    -0.229 NA
ATOM     10  C   UNL     1      34.138 -21.009 -19.452  0.00  0.00    +0.039 C 
ATOM     11  C   UNL     1      34.994 -20.077 -20.253  0.00  0.00    +0.010 C 
ATOM     12  C   UNL     1      34.972 -22.134 -18.860  0.00  0.00    +0.090 C 
ATOM     13  C   UNL     1      36.322 -19.854 -19.892  0.00  0.00    +0.130 C 
ATOM     14  C   UNL     1      34.469 -19.330 -21.309  0.00  0.00    +0.000 C 
ATOM     15  C   UNL     1      36.235 -21.635 -18.186  0.00  0.00    +0.227 C 
ATOM     16  C   UNL     1      35.271 -18.408 -21.972  0.00  0.00    +0.019 C 
ATOM     17  C   UNL     1      36.575 -18.255 -21.535  0.00  0.00    +0.100 C 
ATOM     18  H   UNL     1      37.754 -20.314 -18.484  0.00  0.00    +0.156 HD
ENDBRANCH   5  16
ENDBRANCH   3   6
BRANCH   2  19
ATOM     19  C   UNL     1      34.449 -13.383 -23.072  0.00  0.00    +0.158 C 
BRANCH  19  21
ATOM     20  O   UNL     1      32.759 -11.949 -22.152  0.00  0.00    -0.456 OA
ATOM     21  C   UNL     1      33.767 -12.047 -23.039  0.00  0.00    +0.139 A 
ATOM     22  C   UNL     1      33.967 -10.902 -23.735  0.00  0.00    +0.013 A 
ATOM     23  C   UNL     1      32.997  -9.987 -23.247  0.00  0.00    +0.033 A 
ATOM     24  C   UNL     1      32.280 -10.679 -22.276  0.00  0.00    +0.145 A 
ATOM     25  C   UNL     1      34.977 -10.649 -24.781  0.00  0.00    +0.034 C 
ATOM     26  C   UNL     1      32.646  -8.654 -23.518  0.00  0.00    +0.003 C 
ATOM     27  C   UNL     1      31.226 -10.134 -21.545  0.00  0.00    +0.037 C 
ATOM     28  C   UNL     1      31.590  -8.077 -22.800  0.00  0.00    +0.000 C 
ATOM     29  C   UNL     1      30.893  -8.806 -21.832  0.00  0.00    +0.003 C 
ENDBRANCH  19  21
ENDBRANCH   2  19
TORSDOF 4
ENDMDL
MODEL 6
REMARK VINA RESULT:     -10.9      1.868      2.924
REMARK  Name = 10407120
REMARK  4 active torsions:
REMARK  status: ('A' for Active; 'I' for Inactive)
REMARK    1  A    between atoms: N_2  and  C_19
REMARK    2  A    between atoms: C_3  and  C_6
REMARK    3  A    between atoms: C_5  and  C_16
REMARK    4  A    between atoms: C_19  and  C_21
REMARK                            x       y       z     vdW  Elec       q    Type
REMARK                         _______ _______ _______ _____ _____    ______ ____
ROOT
ATOM      1  O   UNL     1      34.401 -18.493 -24.178  0.00  0.00    -0.270 OA
ATOM      2  N   UNL     1      34.690 -16.425 -23.156  0.00  0.00    -0.267 N 
ATOM      3  C   UNL     1      34.606 -17.820 -23.166  0.00  0.00    +0.250 C 
ATOM      4  C   UNL     1      34.531 -15.690 -24.404  0.00  0.00    +0.116 C 
ENDROOT
BRANCH   3   6
ATOM      5  C   UNL     1      34.225 -19.731 -21.648  0.00  0.00    +0.006 C 
ATOM      6  C   UNL     1      34.749 -18.498 -21.843  0.00  0.00    +0.058 C 
BRANCH   5  16
ATOM      7  O   UNL     1      35.359 -23.518 -15.036  0.00  0.00    -0.275 OA
ATOM      8  N   UNL     1      34.273 -22.635 -16.858  0.00  0.00    -0.270 N 
ATOM      9  N   UNL     1      33.093 -21.676 -18.670  0.00  0.00    -0.229 NA
ATOM     10  C   UNL     1      36.782 -21.815 -17.891  0.00  0.00    +0.039 C 
ATOM     11  C   UNL     1      35.496 -21.440 -18.563  0.00  0.00    +0.010 C 
ATOM     12  C   UNL     1      36.584 -21.965 -16.391  0.00  0.00    +0.090 C 
ATOM     13  C   UNL     1      34.279 -21.891 -18.054  0.00  0.00    +0.130 C 
ATOM     14  C   UNL     1      35.481 -20.727 -19.763  0.00  0.00    +0.000 C 
ATOM     15  C   UNL     1      35.374 -22.807 -16.041  0.00  0.00    +0.227 C 
ATOM     16  C   UNL     1      34.272 -20.475 -20.402  0.00  0.00    +0.019 C 
ATOM     17  C   UNL     1      33.119 -20.969 -19.822  0.00  0.00    +0.100 C 
ATOM     18  H   UNL     1      33.429 -23.060 -16.586  0.00  0.00    +0.156 HD
ENDBRANCH   5  16
ENDBRANCH   3   6
BRANCH   2  19
ATOM     19  C   UNL     1      34.898 -15.605 -21.963  0.00  0.00    +0.158 C 
BRANCH  19  21
ATOM     20  O   UNL     1      34.644 -13.533 -23.147  0.00  0.00    -0.456 OA
ATOM     21  C   UNL     1      34.244 -14.260 -22.087  0.00  0.00    +0.139 A 
ATOM     22  C   UNL     1      33.317 -13.622 -21.332  0.00  0.00    +0.013 A 
ATOM     23  C   UNL     1      33.105 -12.371 -21.969  0.00  0.00    +0.033 A 
ATOM     24  C   UNL     1      33.944 -12.366 -23.080  0.00  0.00    +0.145 A 
ATOM     25  C   UNL     1      32.661 -14.115 -20.105  0.00  0.00    +0.034 C 
ATOM     26  C   UNL     1      32.298 -11.246 -21.731  0.00  0.00    +0.003 C 
ATOM     27  C   UNL     1      34.039 -11.308 -23.982  0.00  0.00    +0.037 C 
ATOM     28  C   UNL     1      32.372 -10.165 -22.621  0.00  0.00    +0.000 C 
ATOM     29  C   UNL     1      33.228 -10.198 -23.725  0.00  0.00    +0.003 C 
ENDBRANCH  19  21
ENDBRANCH   2  19
TORSDOF 4
ENDMDL
MODEL 7
REMARK VINA RESULT:     -10.9      6.197     13.208
REMARK  Name = 10407120
REMARK  4 active torsions:
REMARK  status: ('A' for Active; 'I' for Inactive)
REMARK    1  A    between atoms: N_2  and  C_19
REMARK    2  A    between atoms: C_3  and  C_6
REMARK    3  A    between atoms: C_5  and  C_16
REMARK    4  A    between atoms: C_19  and  C_21
REMARK                            x       y       z     vdW  Elec       q    Type
REMARK                         _______ _______ _______ _____ _____    ______ ____
ROOT
ATOM      1  O   UNL     1      30.928 -24.374 -15.716  0.00  0.00    -0.270 OA
ATOM      2  N   UNL     1      32.405 -24.021 -13.956  0.00  0.00    -0.267 N 
ATOM      3  C   UNL     1      31.899 -23.786 -15.238  0.00  0.00    +0.250 C 
ATOM      4  C   UNL     1      31.767 -25.019 -13.108  0.00  0.00    +0.116 C 
ENDROOT
BRANCH   3   6
ATOM      5  C   UNL     1      33.518 -23.163 -16.995  0.00  0.00    +0.006 C 
ATOM      6  C   UNL     1      32.626 -22.770 -16.056  0.00  0.00    +0.058 C 
BRANCH   5  16
ATOM      7  O   UNL     1      36.938 -18.256 -21.850  0.00  0.00    -0.275 OA
ATOM      8  N   UNL     1      36.675 -19.772 -20.145  0.00  0.00    -0.270 N 
ATOM      9  N   UNL     1      36.445 -21.265 -18.325  0.00  0.00    -0.229 NA
ATOM     10  C   UNL     1      33.964 -20.086 -20.911  0.00  0.00    +0.039 C 
ATOM     11  C   UNL     1      34.515 -20.750 -19.686  0.00  0.00    +0.010 C 
ATOM     12  C   UNL     1      34.693 -18.782 -21.193  0.00  0.00    +0.090 C 
ATOM     13  C   UNL     1      35.863 -20.610 -19.356  0.00  0.00    +0.130 C 
ATOM     14  C   UNL     1      33.735 -21.605 -18.905  0.00  0.00    +0.000 C 
ATOM     15  C   UNL     1      36.200 -18.927 -21.129  0.00  0.00    +0.227 C 
ATOM     16  C   UNL     1      34.307 -22.273 -17.828  0.00  0.00    +0.019 C 
ATOM     17  C   UNL     1      35.653 -22.072 -17.584  0.00  0.00    +0.100 C 
ATOM     18  H   UNL     1      37.645 -19.790 -19.984  0.00  0.00    +0.156 HD
ENDBRANCH   5  16
ENDBRANCH   3   6
BRANCH   2  19
ATOM     19  C   UNL     1      33.575 -23.360 -13.381  0.00  0.00    +0.158 C 
BRANCH  19  21
ATOM     20  O   UNL     1      35.016 -24.966 -14.431  0.00  0.00    -0.456 OA
ATOM     21  C   UNL     1      34.758 -24.280 -13.302  0.00  0.00    +0.139 A 
ATOM     22  C   UNL     1      35.631 -24.562 -12.305  0.00  0.00    +0.013 A 
ATOM     23  C   UNL     1      36.531 -25.517 -12.848  0.00  0.00    +0.033 A 
ATOM     24  C   UNL     1      36.109 -25.732 -14.157  0.00  0.00    +0.145 A 
ATOM     25  C   UNL     1      35.652 -24.000 -10.940  0.00  0.00    +0.034 C 
ATOM     26  C   UNL     1      37.653 -26.222 -12.379  0.00  0.00    +0.003 C 
ATOM     27  C   UNL     1      36.731 -26.608 -15.044  0.00  0.00    +0.037 C 
ATOM     28  C   UNL     1      38.299 -27.111 -13.249  0.00  0.00    +0.000 C 
ATOM     29  C   UNL     1      37.844 -27.299 -14.556  0.00  0.00    +0.003 C 
ENDBRANCH  19  21
ENDBRANCH   2  19
TORSDOF 4
ENDMDL
MODEL 8
REMARK VINA RESULT:     -10.7      6.001     11.817
REMARK  Name = 10407120
REMARK  4 active torsions:
REMARK  status: ('A' for Active; 'I' for Inactive)
REMARK    1  A    between atoms: N_2  and  C_19
REMARK    2  A    between atoms: C_3  and  C_6
REMARK    3  A    between atoms: C_5  and  C_16
REMARK    4  A    between atoms: C_19  and  C_21
REMARK                            x       y       z     vdW  Elec       q    Type
REMARK                         _______ _______ _______ _____ _____    ______ ____
ROOT
ATOM      1  O   UNL     1      37.947 -21.979 -14.349  0.00  0.00    -0.270 OA
ATOM      2  N   UNL     1      36.777 -23.978 -14.558  0.00  0.00    -0.267 N 
ATOM      3  C   UNL     1      37.088 -22.661 -14.911  0.00  0.00    +0.250 C 
ATOM      4  C   UNL     1      37.497 -24.612 -13.461  0.00  0.00    +0.116 C 
ENDROOT
BRANCH   3   6
ATOM      5  C   UNL     1      36.844 -21.891 -17.245  0.00  0.00    +0.006 C 
ATOM      6  C   UNL     1      36.286 -22.072 -16.024  0.00  0.00    +0.058 C 
BRANCH   5  16
ATOM      7  O   UNL     1      34.081 -18.327 -23.490  0.00  0.00    -0.275 OA
ATOM      8  N   UNL     1      34.158 -19.680 -21.636  0.00  0.00    -0.270 N 
ATOM      9  N   UNL     1      34.210 -21.152 -19.785  0.00  0.00    -0.229 NA
ATOM     10  C   UNL     1      36.758 -18.695 -21.088  0.00  0.00    +0.039 C 
ATOM     11  C   UNL     1      36.150 -19.797 -20.276  0.00  0.00    +0.010 C 
ATOM     12  C   UNL     1      36.235 -18.722 -22.515  0.00  0.00    +0.090 C 
ATOM     13  C   UNL     1      34.854 -20.235 -20.544  0.00  0.00    +0.130 C 
ATOM     14  C   UNL     1      36.811 -20.343 -19.175  0.00  0.00    +0.000 C 
ATOM     15  C   UNL     1      34.727 -18.853 -22.584  0.00  0.00    +0.227 C 
ATOM     16  C   UNL     1      36.178 -21.302 -18.393  0.00  0.00    +0.019 C 
ATOM     17  C   UNL     1      34.889 -21.666 -18.735  0.00  0.00    +0.100 C 
ATOM     18  H   UNL     1      33.203 -19.896 -21.729  0.00  0.00    +0.156 HD
ENDBRANCH   5  16
ENDBRANCH   3   6
BRANCH   2  19
ATOM     19  C   UNL     1      35.740 -24.793 -15.187  0.00  0.00    +0.158 C 
BRANCH  19  21
ATOM     20  O   UNL     1      33.665 -23.937 -16.034  0.00  0.00    -0.456 OA
ATOM     21  C   UNL     1      34.365 -24.251 -14.929  0.00  0.00    +0.139 A 
ATOM     22  C   UNL     1      33.678 -24.011 -13.786  0.00  0.00    +0.013 A 
ATOM     23  C   UNL     1      32.422 -23.496 -14.200  0.00  0.00    +0.033 A 
ATOM     24  C   UNL     1      32.464 -23.470 -15.591  0.00  0.00    +0.145 A 
ATOM     25  C   UNL     1      34.131 -24.235 -12.399  0.00  0.00    +0.034 C 
ATOM     26  C   UNL     1      31.256 -23.050 -13.555  0.00  0.00    +0.003 C 
ATOM     27  C   UNL     1      31.417 -23.027 -16.396  0.00  0.00    +0.037 C 
ATOM     28  C   UNL     1      30.185 -22.597 -14.338  0.00  0.00    +0.000 C 
ATOM     29  C   UNL     1      30.267 -22.586 -15.733  0.00  0.00    +0.003 C 
ENDBRANCH  19  21
ENDBRANCH   2  19
TORSDOF 4
ENDMDL
MODEL 9
REMARK VINA RESULT:     -10.7      4.015     11.610
REMARK  Name = 10407120
REMARK  4 active torsions:
REMARK  status: ('A' for Active; 'I' for Inactive)
REMARK    1  A    between atoms: N_2  and  C_19
REMARK    2  A    between atoms: C_3  and  C_6
REMARK    3  A    between atoms: C_5  and  C_16
REMARK    4  A    between atoms: C_19  and  C_21
REMARK                            x       y       z     vdW  Elec       q    Type
REMARK                         _______ _______ _______ _____ _____    ______ ____
ROOT
ATOM      1  O   UNL     1      30.738 -10.762 -20.575  0.00  0.00    -0.270 OA
ATOM      2  N   UNL     1      32.516 -11.912 -21.534  0.00  0.00    -0.267 N 
ATOM      3  C   UNL     1      31.684 -10.802 -21.363  0.00  0.00    +0.250 C 
ATOM      4  C   UNL     1      32.275 -13.113 -20.746  0.00  0.00    +0.116 C 
ENDROOT
BRANCH   3   6
ATOM      5  C   UNL     1      31.809  -8.366 -21.751  0.00  0.00    +0.006 C 
ATOM      6  C   UNL     1      31.978  -9.621 -22.229  0.00  0.00    +0.058 C 
BRANCH   5  16
ATOM      7  O   UNL     1      33.776  -2.233 -25.977  0.00  0.00    -0.275 OA
ATOM      8  N   UNL     1      32.545  -3.600 -24.602  0.00  0.00    -0.270 N 
ATOM      9  N   UNL     1      31.200  -5.003 -23.254  0.00  0.00    -0.229 NA
ATOM     10  C   UNL     1      34.731  -5.402 -24.521  0.00  0.00    +0.039 C 
ATOM     11  C   UNL     1      33.418  -5.732 -23.880  0.00  0.00    +0.010 C 
ATOM     12  C   UNL     1      34.532  -4.494 -25.724  0.00  0.00    +0.090 C 
ATOM     13  C   UNL     1      32.373  -4.810 -23.902  0.00  0.00    +0.130 C 
ATOM     14  C   UNL     1      33.235  -6.913 -23.159  0.00  0.00    +0.000 C 
ATOM     15  C   UNL     1      33.615  -3.324 -25.430  0.00  0.00    +0.227 C 
ATOM     16  C   UNL     1      32.031  -7.144 -22.503  0.00  0.00    +0.019 C 
ATOM     17  C   UNL     1      31.056  -6.166 -22.579  0.00  0.00    +0.100 C 
ATOM     18  H   UNL     1      31.856  -2.906 -24.495  0.00  0.00    +0.156 HD
ENDBRANCH   5  16
ENDBRANCH   3   6
BRANCH   2  19
ATOM     19  C   UNL     1      33.623 -11.994 -22.485  0.00  0.00    +0.158 C 
BRANCH  19  21
ATOM     20  O   UNL     1      34.489 -14.148 -21.878  0.00  0.00    -0.456 OA
ATOM     21  C   UNL     1      33.936 -13.413 -22.861  0.00  0.00    +0.139 A 
ATOM     22  C   UNL     1      33.769 -14.112 -24.009  0.00  0.00    +0.013 A 
ATOM     23  C   UNL     1      34.262 -15.415 -23.735  0.00  0.00    +0.033 A 
ATOM     24  C   UNL     1      34.693 -15.385 -22.412  0.00  0.00    +0.145 A 
ATOM     25  C   UNL     1      33.198 -13.630 -25.282  0.00  0.00    +0.034 C 
ATOM     26  C   UNL     1      34.391 -16.614 -24.457  0.00  0.00    +0.003 C 
ATOM     27  C   UNL     1      35.249 -16.476 -21.747  0.00  0.00    +0.037 C 
ATOM     28  C   UNL     1      34.948 -17.728 -23.815  0.00  0.00    +0.000 C 
ATOM     29  C   UNL     1      35.369 -17.658 -22.484  0.00  0.00    +0.003 C 
ENDBRANCH  19  21
ENDBRANCH   2  19
TORSDOF 4
ENDMDL
