MODEL 1
REMARK VINA RESULT:     -11.1      0.000      0.000
REMARK  Name = 46937030
REMARK  7 active torsions:
REMARK  status: ('A' for Active; 'I' for Inactive)
REMARK    1  A    between atoms: C_3  and  C_10
REMARK    2  A    between atoms: C_7  and  C_25
REMARK    3  A    between atoms: N_9  and  C_12
REMARK    4  A    between atoms: C_12  and  C_13
REMARK    5  A    between atoms: C_18  and  C_21
REMARK    6  A    between atoms: C_25  and  N_26
REMARK    7  A    between atoms: N_26  and  C_29
REMARK                            x       y       z     vdW  Elec       q    Type
REMARK                         _______ _______ _______ _____ _____    ______ ____
ROOT
ATOM      1  O   UNL     1      35.284 -25.157 -11.490  0.00  0.00    -0.277 OA
ATOM      2  N   UNL     1      35.989 -23.944 -13.325  0.00  0.00    -0.275 N 
ATOM      3  C   UNL     1      35.837 -22.901 -14.338  0.00  0.00    +0.152 C 
ATOM      4  C   UNL     1      37.266 -22.525 -14.716  0.00  0.00    +0.031 C 
ATOM      5  C   UNL     1      37.365 -24.420 -13.266  0.00  0.00    +0.094 C 
ATOM      6  C   UNL     1      38.046 -23.817 -14.484  0.00  0.00    +0.024 C 
ATOM      7  C   UNL     1      35.043 -24.367 -12.405  0.00  0.00    +0.204 C 
ENDROOT
BRANCH   3  10
ATOM      8  O   UNL     1      34.894 -24.702 -15.590  0.00  0.00    -0.273 OA
ATOM      9  N   UNL     1      34.778 -22.544 -16.455  0.00  0.00    -0.299 N 
ATOM     10  C   UNL     1      35.117 -23.497 -15.510  0.00  0.00    +0.241 C 
ATOM     11  H   UNL     1      35.011 -21.603 -16.278  0.00  0.00    +0.150 HD
BRANCH   9  12
ATOM     12  C   UNL     1      34.098 -22.861 -17.690  0.00  0.00    +0.116 C 
BRANCH  12  13
ATOM     13  C   UNL     1      34.310 -21.805 -18.736  0.00  0.00    -0.003 C 
ATOM     14  C   UNL     1      35.605 -21.427 -19.092  0.00  0.00    -0.003 C 
ATOM     15  C   UNL     1      33.213 -21.201 -19.350  0.00  0.00    -0.003 C 
ATOM     16  C   UNL     1      35.802 -20.445 -20.064  0.00  0.00    +0.002 C 
ATOM     17  C   UNL     1      33.410 -20.219 -20.322  0.00  0.00    +0.002 C 
ATOM     18  C   UNL     1      34.705 -19.842 -20.679  0.00  0.00    +0.031 C 
BRANCH  18  21
ATOM     19  N   UNL     1      35.556 -17.621 -21.392  0.00  0.00    -0.343 N 
ATOM     20  N   UNL     1      34.476 -19.016 -22.924  0.00  0.00    -0.285 NA
ATOM     21  C   UNL     1      34.910 -18.819 -21.692  0.00  0.00    +0.117 C 
ATOM     22  H   UNL     1      35.684 -16.943 -22.094  0.00  0.00    +0.144 HD
ATOM     23  H   UNL     1      35.883 -17.453 -20.479  0.00  0.00    +0.144 HD
ATOM     24  H   UNL     1      34.614 -18.325 -23.611  0.00  0.00    +0.188 HD
ENDBRANCH  18  21
ENDBRANCH  12  13
ENDBRANCH   9  12
ENDBRANCH   3  10
BRANCH   7  25
ATOM     25  C   UNL     1      33.656 -23.801 -12.571  0.00  0.00    +0.006 C 
BRANCH  25  26
ATOM     26  N   UNL     1      32.834 -24.852 -13.148  0.00  0.00    +0.391 N 
ATOM     27  H   UNL     1      33.113 -25.002 -14.119  0.00  0.00    -0.084 HD
ATOM     28  H   UNL     1      32.967 -25.707 -12.608  0.00  0.00    -0.084 HD
BRANCH  26  29
ATOM     29  C   UNL     1      31.416 -24.481 -13.106  0.00  0.00    -0.061 C 
ATOM     30  C   UNL     1      31.248 -22.981 -13.383  0.00  0.00    -0.021 C 
ATOM     31  C   UNL     1      30.624 -25.444 -14.003  0.00  0.00    -0.021 C 
ATOM     32  C   UNL     1      29.159 -25.059 -14.223  0.00  0.00    -0.002 C 
ATOM     33  C   UNL     1      31.691 -22.459 -14.750  0.00  0.00    -0.002 C 
ATOM     34  C   UNL     1      28.865 -24.441 -15.592  0.00  0.00    -0.000 C 
ATOM     35  C   UNL     1      30.955 -22.987 -15.980  0.00  0.00    -0.000 C 
ATOM     36  C   UNL     1      29.432 -23.043 -15.854  0.00  0.00    -0.000 C 
ENDBRANCH  26  29
ENDBRANCH  25  26
ENDBRANCH   7  25
TORSDOF 7
ENDMDL
MODEL 2
REMARK VINA RESULT:      -9.7      2.230      6.629
REMARK  Name = 46937030
REMARK  7 active torsions:
REMARK  status: ('A' for Active; 'I' for Inactive)
REMARK    1  A    between atoms: C_3  and  C_10
REMARK    2  A    between atoms: C_7  and  C_25
REMARK    3  A    between atoms: N_9  and  C_12
REMARK    4  A    between atoms: C_12  and  C_13
REMARK    5  A    between atoms: C_18  and  C_21
REMARK    6  A    between atoms: C_25  and  N_26
REMARK    7  A    between atoms: N_26  and  C_29
REMARK                            x       y       z     vdW  Elec       q    Type
REMARK                         _______ _______ _______ _____ _____    ______ ____
ROOT
ATOM      1  O   UNL     1      38.176 -22.262 -15.971  0.00  0.00    -0.277 OA
ATOM      2  N   UNL     1      37.085 -24.027 -14.954  0.00  0.00    -0.275 N 
ATOM      3  C   UNL     1      35.957 -24.940 -14.781  0.00  0.00    +0.152 C 
ATOM      4  C   UNL     1      36.575 -26.201 -14.186  0.00  0.00    +0.031 C 
ATOM      5  C   UNL     1      38.269 -24.520 -14.261  0.00  0.00    +0.094 C 
ATOM      6  C   UNL     1      37.774 -25.673 -13.402  0.00  0.00    +0.024 C 
ATOM      7  C   UNL     1      37.146 -22.909 -15.771  0.00  0.00    +0.204 C 
ENDROOT
BRANCH   3  10
ATOM      8  O   UNL     1      35.325 -23.376 -13.092  0.00  0.00    -0.273 OA
ATOM      9  N   UNL     1      33.756 -24.925 -13.839  0.00  0.00    -0.299 N 
ATOM     10  C   UNL     1      34.998 -24.313 -13.816  0.00  0.00    +0.241 C 
ATOM     11  H   UNL     1      33.612 -25.670 -14.467  0.00  0.00    +0.150 HD
BRANCH   9  12
ATOM     12  C   UNL     1      32.660 -24.524 -12.987  0.00  0.00    +0.116 C 
BRANCH  12  13
ATOM     13  C   UNL     1      31.436 -24.163 -13.778  0.00  0.00    -0.003 C 
ATOM     14  C   UNL     1      30.406 -25.092 -13.930  0.00  0.00    -0.003 C 
ATOM     15  C   UNL     1      31.329 -22.901 -14.361  0.00  0.00    -0.003 C 
ATOM     16  C   UNL     1      29.269 -24.758 -14.666  0.00  0.00    +0.002 C 
ATOM     17  C   UNL     1      30.191 -22.567 -15.097  0.00  0.00    +0.002 C 
ATOM     18  C   UNL     1      29.161 -23.495 -15.248  0.00  0.00    +0.031 C 
BRANCH  18  21
ATOM     19  N   UNL     1      26.951 -22.383 -15.456  0.00  0.00    -0.343 N 
ATOM     20  N   UNL     1      27.853 -23.558 -17.263  0.00  0.00    -0.285 NA
ATOM     21  C   UNL     1      27.975 -23.146 -16.014  0.00  0.00    +0.117 C 
ATOM     22  H   UNL     1      26.157 -22.158 -15.994  0.00  0.00    +0.144 HD
ATOM     23  H   UNL     1      27.021 -22.069 -14.526  0.00  0.00    +0.144 HD
ATOM     24  H   UNL     1      27.051 -23.323 -17.783  0.00  0.00    +0.188 HD
ENDBRANCH  18  21
ENDBRANCH  12  13
ENDBRANCH   9  12
ENDBRANCH   3  10
BRANCH   7  25
ATOM     25  C   UNL     1      35.855 -22.501 -16.433  0.00  0.00    +0.006 C 
BRANCH  25  26
ATOM     26  N   UNL     1      36.138 -21.311 -17.219  0.00  0.00    +0.391 N 
ATOM     27  H   UNL     1      35.526 -20.554 -16.913  0.00  0.00    -0.084 HD
ATOM     28  H   UNL     1      37.114 -21.051 -17.083  0.00  0.00    -0.084 HD
BRANCH  26  29
ATOM     29  C   UNL     1      35.910 -21.569 -18.644  0.00  0.00    -0.061 C 
ATOM     30  C   UNL     1      34.659 -22.436 -18.838  0.00  0.00    -0.021 C 
ATOM     31  C   UNL     1      35.952 -20.234 -19.403  0.00  0.00    -0.021 C 
ATOM     32  C   UNL     1      35.529 -20.315 -20.871  0.00  0.00    -0.002 C 
ATOM     33  C   UNL     1      33.319 -21.857 -18.384  0.00  0.00    -0.002 C 
ATOM     34  C   UNL     1      34.122 -19.784 -21.156  0.00  0.00    -0.000 C 
ATOM     35  C   UNL     1      32.818 -20.598 -19.090  0.00  0.00    -0.000 C 
ATOM     36  C   UNL     1      32.951 -20.607 -20.613  0.00  0.00    -0.000 C 
ENDBRANCH  26  29
ENDBRANCH  25  26
ENDBRANCH   7  25
TORSDOF 7
ENDMDL
MODEL 3
REMARK VINA RESULT:      -9.5      2.172      5.551
REMARK  Name = 46937030
REMARK  7 active torsions:
REMARK  status: ('A' for Active; 'I' for Inactive)
REMARK    1  A    between atoms: C_3  and  C_10
REMARK    2  A    between atoms: C_7  and  C_25
REMARK    3  A    between atoms: N_9  and  C_12
REMARK    4  A    between atoms: C_12  and  C_13
REMARK    5  A    between atoms: C_18  and  C_21
REMARK    6  A    between atoms: C_25  and  N_26
REMARK    7  A    between atoms: N_26  and  C_29
REMARK                            x       y       z     vdW  Elec       q    Type
REMARK                         _______ _______ _______ _____ _____    ______ ____
ROOT
ATOM      1  O   UNL     1      33.839 -24.296 -13.276  0.00  0.00    -0.277 OA
ATOM      2  N   UNL     1      33.788 -23.593 -15.477  0.00  0.00    -0.275 N 
ATOM      3  C   UNL     1      34.293 -23.556 -16.848  0.00  0.00    +0.152 C 
ATOM      4  C   UNL     1      33.067 -23.235 -17.697  0.00  0.00    +0.031 C 
ATOM      5  C   UNL     1      32.438 -23.051 -15.401  0.00  0.00    +0.094 C 
ATOM      6  C   UNL     1      32.191 -22.410 -16.757  0.00  0.00    +0.024 C 
ATOM      7  C   UNL     1      34.386 -24.185 -14.375  0.00  0.00    +0.204 C 
ENDROOT
BRANCH   3  10
ATOM      8  O   UNL     1      35.831 -21.973 -15.938  0.00  0.00    -0.273 OA
ATOM      9  N   UNL     1      35.534 -22.060 -18.245  0.00  0.00    -0.299 N 
ATOM     10  C   UNL     1      35.305 -22.454 -16.938  0.00  0.00    +0.241 C 
ATOM     11  H   UNL     1      35.050 -22.524 -18.967  0.00  0.00    +0.150 HD
BRANCH   9  12
ATOM     12  C   UNL     1      36.448 -21.000 -18.604  0.00  0.00    +0.116 C 
BRANCH  12  13
ATOM     13  C   UNL     1      35.983 -20.241 -19.813  0.00  0.00    -0.003 C 
ATOM     14  C   UNL     1      36.871 -19.413 -20.500  0.00  0.00    -0.003 C 
ATOM     15  C   UNL     1      34.663 -20.363 -20.248  0.00  0.00    -0.003 C 
ATOM     16  C   UNL     1      36.439 -18.708 -21.624  0.00  0.00    +0.002 C 
ATOM     17  C   UNL     1      34.232 -19.658 -21.372  0.00  0.00    +0.002 C 
ATOM     18  C   UNL     1      35.120 -18.831 -22.060  0.00  0.00    +0.031 C 
BRANCH  18  21
ATOM     19  N   UNL     1      33.623 -18.566 -24.024  0.00  0.00    -0.343 N 
ATOM     20  N   UNL     1      35.259 -16.962 -23.565  0.00  0.00    -0.285 NA
ATOM     21  C   UNL     1      34.670 -18.097 -23.231  0.00  0.00    +0.117 C 
ATOM     22  H   UNL     1      33.335 -18.052 -24.812  0.00  0.00    +0.144 HD
ATOM     23  H   UNL     1      33.173 -19.411 -23.794  0.00  0.00    +0.144 HD
ATOM     24  H   UNL     1      34.956 -16.464 -24.358  0.00  0.00    +0.188 HD
ENDBRANCH  18  21
ENDBRANCH  12  13
ENDBRANCH   9  12
ENDBRANCH   3  10
BRANCH   7  25
ATOM     25  C   UNL     1      35.785 -24.709 -14.582  0.00  0.00    +0.006 C 
BRANCH  25  26
ATOM     26  N   UNL     1      35.842 -26.024 -13.964  0.00  0.00    +0.391 N 
ATOM     27  H   UNL     1      35.045 -26.134 -13.336  0.00  0.00    -0.084 HD
ATOM     28  H   UNL     1      35.814 -26.733 -14.696  0.00  0.00    -0.084 HD
BRANCH  26  29
ATOM     29  C   UNL     1      37.083 -26.181 -13.200  0.00  0.00    -0.061 C 
ATOM     30  C   UNL     1      37.518 -27.652 -13.181  0.00  0.00    -0.021 C 
ATOM     31  C   UNL     1      38.113 -25.161 -13.710  0.00  0.00    -0.021 C 
ATOM     32  C   UNL     1      39.525 -25.338 -13.149  0.00  0.00    -0.002 C 
ATOM     33  C   UNL     1      37.863 -28.305 -14.520  0.00  0.00    -0.002 C 
ATOM     34  C   UNL     1      40.518 -25.978 -14.123  0.00  0.00    -0.000 C 
ATOM     35  C   UNL     1      39.052 -27.741 -15.296  0.00  0.00    -0.000 C 
ATOM     36  C   UNL     1      40.300 -27.455 -14.458  0.00  0.00    -0.000 C 
ENDBRANCH  26  29
ENDBRANCH  25  26
ENDBRANCH   7  25
TORSDOF 7
ENDMDL
MODEL 4
REMARK VINA RESULT:      -9.4      2.521      6.867
REMARK  Name = 46937030
REMARK  7 active torsions:
REMARK  status: ('A' for Active; 'I' for Inactive)
REMARK    1  A    between atoms: C_3  and  C_10
REMARK    2  A    between atoms: C_7  and  C_25
REMARK    3  A    between atoms: N_9  and  C_12
REMARK    4  A    between atoms: C_12  and  C_13
REMARK    5  A    between atoms: C_18  and  C_21
REMARK    6  A    between atoms: C_25  and  N_26
REMARK    7  A    between atoms: N_26  and  C_29
REMARK                            x       y       z     vdW  Elec       q    Type
REMARK                         _______ _______ _______ _____ _____    ______ ____
ROOT
ATOM      1  O   UNL     1      32.086 -20.987 -18.816  0.00  0.00    -0.277 OA
ATOM      2  N   UNL     1      34.370 -21.232 -19.063  0.00  0.00    -0.275 N 
ATOM      3  C   UNL     1      35.628 -21.963 -18.922  0.00  0.00    +0.152 C 
ATOM      4  C   UNL     1      36.508 -21.430 -20.048  0.00  0.00    +0.031 C 
ATOM      5  C   UNL     1      34.513 -20.118 -19.992  0.00  0.00    +0.094 C 
ATOM      6  C   UNL     1      36.008 -20.000 -20.243  0.00  0.00    +0.024 C 
ATOM      7  C   UNL     1      33.133 -21.578 -18.543  0.00  0.00    +0.204 C 
ENDROOT
BRANCH   3  10
ATOM      8  O   UNL     1      37.031 -20.714 -17.448  0.00  0.00    -0.273 OA
ATOM      9  N   UNL     1      35.740 -22.446 -16.580  0.00  0.00    -0.299 N 
ATOM     10  C   UNL     1      36.214 -21.620 -17.585  0.00  0.00    +0.241 C 
ATOM     11  H   UNL     1      35.082 -23.140 -16.813  0.00  0.00    +0.150 HD
BRANCH   9  12
ATOM     12  C   UNL     1      36.165 -22.339 -15.202  0.00  0.00    +0.116 C 
BRANCH  12  13
ATOM     13  C   UNL     1      36.603 -23.663 -14.645  0.00  0.00    -0.003 C 
ATOM     14  C   UNL     1      37.703 -23.729 -13.790  0.00  0.00    -0.003 C 
ATOM     15  C   UNL     1      35.910 -24.825 -14.982  0.00  0.00    -0.003 C 
ATOM     16  C   UNL     1      38.111 -24.959 -13.272  0.00  0.00    +0.002 C 
ATOM     17  C   UNL     1      36.317 -26.055 -14.464  0.00  0.00    +0.002 C 
ATOM     18  C   UNL     1      37.417 -26.122 -13.608  0.00  0.00    +0.031 C 
BRANCH  18  21
ATOM     19  N   UNL     1      38.854 -28.145 -13.671  0.00  0.00    -0.343 N 
ATOM     20  N   UNL     1      37.256 -27.888 -11.986  0.00  0.00    -0.285 NA
ATOM     21  C   UNL     1      37.840 -27.403 -13.068  0.00  0.00    +0.117 C 
ATOM     22  H   UNL     1      39.125 -29.011 -13.288  0.00  0.00    +0.144 HD
ATOM     23  H   UNL     1      39.300 -27.804 -14.479  0.00  0.00    +0.144 HD
ATOM     24  H   UNL     1      37.541 -28.756 -11.619  0.00  0.00    +0.188 HD
ENDBRANCH  18  21
ENDBRANCH  12  13
ENDBRANCH   9  12
ENDBRANCH   3  10
BRANCH   7  25
ATOM     25  C   UNL     1      33.117 -22.750 -17.595  0.00  0.00    +0.006 C 
BRANCH  25  26
ATOM     26  N   UNL     1      31.737 -22.941 -17.179  0.00  0.00    +0.391 N 
ATOM     27  H   UNL     1      31.140 -22.289 -17.688  0.00  0.00    -0.084 HD
ATOM     28  H   UNL     1      31.462 -23.902 -17.383  0.00  0.00    -0.084 HD
BRANCH  26  29
ATOM     29  C   UNL     1      31.594 -22.703 -15.740  0.00  0.00    -0.061 C 
ATOM     30  C   UNL     1      30.122 -22.816 -15.322  0.00  0.00    -0.021 C 
ATOM     31  C   UNL     1      32.597 -23.591 -14.988  0.00  0.00    -0.021 C 
ATOM     32  C   UNL     1      32.429 -23.606 -13.467  0.00  0.00    -0.002 C 
ATOM     33  C   UNL     1      29.435 -24.169 -15.508  0.00  0.00    -0.002 C 
ATOM     34  C   UNL     1      31.761 -24.868 -12.915  0.00  0.00    -0.000 C 
ATOM     35  C   UNL     1      29.975 -25.353 -14.706  0.00  0.00    -0.000 C 
ATOM     36  C   UNL     1      30.277 -25.060 -13.236  0.00  0.00    -0.000 C 
ENDBRANCH  26  29
ENDBRANCH  25  26
ENDBRANCH   7  25
TORSDOF 7
ENDMDL
MODEL 5
REMARK VINA RESULT:      -9.1      1.648      2.320
REMARK  Name = 46937030
REMARK  7 active torsions:
REMARK  status: ('A' for Active; 'I' for Inactive)
REMARK    1  A    between atoms: C_3  and  C_10
REMARK    2  A    between atoms: C_7  and  C_25
REMARK    3  A    between atoms: N_9  and  C_12
REMARK    4  A    between atoms: C_12  and  C_13
REMARK    5  A    between atoms: C_18  and  C_21
REMARK    6  A    between atoms: C_25  and  N_26
REMARK    7  A    between atoms: N_26  and  C_29
REMARK                            x       y       z     vdW  Elec       q    Type
REMARK                         _______ _______ _______ _____ _____    ______ ____
ROOT
ATOM      1  O   UNL     1      34.467 -25.301 -11.203  0.00  0.00    -0.277 OA
ATOM      2  N   UNL     1      36.227 -23.953 -11.855  0.00  0.00    -0.275 N 
ATOM      3  C   UNL     1      36.808 -22.819 -12.572  0.00  0.00    +0.152 C 
ATOM      4  C   UNL     1      38.055 -22.461 -11.771  0.00  0.00    +0.031 C 
ATOM      5  C   UNL     1      37.158 -24.479 -10.865  0.00  0.00    +0.094 C 
ATOM      6  C   UNL     1      38.482 -23.794 -11.162  0.00  0.00    +0.024 C 
ATOM      7  C   UNL     1      34.926 -24.424 -11.938  0.00  0.00    +0.204 C 
ENDROOT
BRANCH   3  10
ATOM      8  O   UNL     1      37.286 -24.475 -14.224  0.00  0.00    -0.273 OA
ATOM      9  N   UNL     1      37.388 -22.226 -14.818  0.00  0.00    -0.299 N 
ATOM     10  C   UNL     1      37.176 -23.283 -13.949  0.00  0.00    +0.241 C 
ATOM     11  H   UNL     1      37.268 -21.309 -14.479  0.00  0.00    +0.150 HD
BRANCH   9  12
ATOM     12  C   UNL     1      37.776 -22.403 -16.199  0.00  0.00    +0.116 C 
BRANCH  12  13
ATOM     13  C   UNL     1      36.670 -22.035 -17.145  0.00  0.00    -0.003 C 
ATOM     14  C   UNL     1      36.951 -21.286 -18.287  0.00  0.00    -0.003 C 
ATOM     15  C   UNL     1      35.362 -22.441 -16.881  0.00  0.00    -0.003 C 
ATOM     16  C   UNL     1      35.923 -20.943 -19.167  0.00  0.00    +0.002 C 
ATOM     17  C   UNL     1      34.334 -22.099 -17.760  0.00  0.00    +0.002 C 
ATOM     18  C   UNL     1      34.615 -21.350 -18.903  0.00  0.00    +0.031 C 
BRANCH  18  21
ATOM     19  N   UNL     1      32.332 -21.681 -19.820  0.00  0.00    -0.343 N 
ATOM     20  N   UNL     1      33.714 -20.004 -20.678  0.00  0.00    -0.285 NA
ATOM     21  C   UNL     1      33.544 -20.994 -19.820  0.00  0.00    +0.117 C 
ATOM     22  H   UNL     1      31.620 -21.423 -20.449  0.00  0.00    +0.144 HD
ATOM     23  H   UNL     1      32.187 -22.424 -19.191  0.00  0.00    +0.144 HD
ATOM     24  H   UNL     1      32.990 -19.762 -21.300  0.00  0.00    +0.188 HD
ENDBRANCH  18  21
ENDBRANCH  12  13
ENDBRANCH   9  12
ENDBRANCH   3  10
BRANCH   7  25
ATOM     25  C   UNL     1      34.061 -23.798 -13.003  0.00  0.00    +0.006 C 
BRANCH  25  26
ATOM     26  N   UNL     1      33.107 -24.811 -13.425  0.00  0.00    +0.391 N 
ATOM     27  H   UNL     1      33.278 -25.046 -14.403  0.00  0.00    -0.084 HD
ATOM     28  H   UNL     1      33.223 -25.637 -12.838  0.00  0.00    -0.084 HD
BRANCH  26  29
ATOM     29  C   UNL     1      31.734 -24.317 -13.280  0.00  0.00    -0.061 C 
ATOM     30  C   UNL     1      31.644 -22.850 -13.719  0.00  0.00    -0.021 C 
ATOM     31  C   UNL     1      30.777 -25.305 -13.965  0.00  0.00    -0.021 C 
ATOM     32  C   UNL     1      29.328 -24.824 -14.077  0.00  0.00    -0.002 C 
ATOM     33  C   UNL     1      31.966 -22.525 -15.178  0.00  0.00    -0.002 C 
ATOM     34  C   UNL     1      28.926 -24.342 -15.473  0.00  0.00    -0.000 C 
ATOM     35  C   UNL     1      31.058 -23.125 -16.251  0.00  0.00    -0.000 C 
ATOM     36  C   UNL     1      29.559 -23.036 -15.961  0.00  0.00    -0.000 C 
ENDBRANCH  26  29
ENDBRANCH  25  26
ENDBRANCH   7  25
TORSDOF 7
ENDMDL
MODEL 6
REMARK VINA RESULT:      -8.8      7.621     13.183
REMARK  Name = 46937030
REMARK  7 active torsions:
REMARK  status: ('A' for Active; 'I' for Inactive)
REMARK    1  A    between atoms: C_3  and  C_10
REMARK    2  A    between atoms: C_7  and  C_25
REMARK    3  A    between atoms: N_9  and  C_12
REMARK    4  A    between atoms: C_12  and  C_13
REMARK    5  A    between atoms: C_18  and  C_21
REMARK    6  A    between atoms: C_25  and  N_26
REMARK    7  A    between atoms: N_26  and  C_29
REMARK                            x       y       z     vdW  Elec       q    Type
REMARK                         _______ _______ _______ _____ _____    ______ ____
ROOT
ATOM      1  O   UNL     1      31.399 -11.702 -22.281  0.00  0.00    -0.277 OA
ATOM      2  N   UNL     1      33.002 -13.136 -21.436  0.00  0.00    -0.275 N 
ATOM      3  C   UNL     1      34.349 -13.700 -21.377  0.00  0.00    +0.152 C 
ATOM      4  C   UNL     1      34.489 -14.203 -19.944  0.00  0.00    +0.031 C 
ATOM      5  C   UNL     1      32.228 -13.506 -20.258  0.00  0.00    +0.094 C 
ATOM      6  C   UNL     1      33.059 -14.566 -19.554  0.00  0.00    +0.024 C 
ATOM      7  C   UNL     1      32.504 -12.241 -22.370  0.00  0.00    +0.204 C 
ENDROOT
BRANCH   3  10
ATOM      8  O   UNL     1      33.906 -14.772 -23.463  0.00  0.00    -0.273 OA
ATOM      9  N   UNL     1      35.085 -15.933 -21.826  0.00  0.00    -0.299 N 
ATOM     10  C   UNL     1      34.417 -14.839 -22.348  0.00  0.00    +0.241 C 
ATOM     11  H   UNL     1      35.454 -15.867 -20.915  0.00  0.00    +0.150 HD
BRANCH   9  12
ATOM     12  C   UNL     1      35.269 -17.169 -22.552  0.00  0.00    +0.116 C 
BRANCH  12  13
ATOM     13  C   UNL     1      35.339 -18.355 -21.633  0.00  0.00    -0.003 C 
ATOM     14  C   UNL     1      36.546 -18.693 -21.022  0.00  0.00    -0.003 C 
ATOM     15  C   UNL     1      34.197 -19.119 -21.392  0.00  0.00    -0.003 C 
ATOM     16  C   UNL     1      36.612 -19.795 -20.169  0.00  0.00    +0.002 C 
ATOM     17  C   UNL     1      34.263 -20.221 -20.539  0.00  0.00    +0.002 C 
ATOM     18  C   UNL     1      35.470 -20.558 -19.927  0.00  0.00    +0.031 C 
BRANCH  18  21
ATOM     19  N   UNL     1      36.475 -21.772 -18.009  0.00  0.00    -0.343 N 
ATOM     20  N   UNL     1      34.701 -22.716 -19.200  0.00  0.00    -0.285 NA
ATOM     21  C   UNL     1      35.537 -21.706 -19.038  0.00  0.00    +0.117 C 
ATOM     22  H   UNL     1      36.503 -22.559 -17.418  0.00  0.00    +0.144 HD
ATOM     23  H   UNL     1      37.109 -21.032 -17.873  0.00  0.00    +0.144 HD
ATOM     24  H   UNL     1      34.746 -23.495 -18.599  0.00  0.00    +0.188 HD
ENDBRANCH  18  21
ENDBRANCH  12  13
ENDBRANCH   9  12
ENDBRANCH   3  10
BRANCH   7  25
ATOM     25  C   UNL     1      33.402 -11.939 -23.543  0.00  0.00    +0.006 C 
BRANCH  25  26
ATOM     26  N   UNL     1      34.220 -10.797 -23.169  0.00  0.00    +0.391 N 
ATOM     27  H   UNL     1      34.134 -10.637 -22.165  0.00  0.00    -0.084 HD
ATOM     28  H   UNL     1      35.191 -10.993 -23.413  0.00  0.00    -0.084 HD
BRANCH  26  29
ATOM     29  C   UNL     1      33.785  -9.595 -23.888  0.00  0.00    -0.061 C 
ATOM     30  C   UNL     1      32.501  -9.033 -23.263  0.00  0.00    -0.021 C 
ATOM     31  C   UNL     1      34.976  -8.631 -24.009  0.00  0.00    -0.021 C 
ATOM     32  C   UNL     1      34.628  -7.245 -24.555  0.00  0.00    -0.002 C 
ATOM     33  C   UNL     1      32.571  -8.551 -21.813  0.00  0.00    -0.002 C 
ATOM     34  C   UNL     1      34.570  -6.142 -23.495  0.00  0.00    -0.000 C 
ATOM     35  C   UNL     1      33.493  -7.372 -21.505  0.00  0.00    -0.000 C 
ATOM     36  C   UNL     1      33.414  -6.207 -22.493  0.00  0.00    -0.000 C 
ENDBRANCH  26  29
ENDBRANCH  25  26
ENDBRANCH   7  25
TORSDOF 7
ENDMDL
MODEL 7
REMARK VINA RESULT:      -8.7      1.883      2.967
REMARK  Name = 46937030
REMARK  7 active torsions:
REMARK  status: ('A' for Active; 'I' for Inactive)
REMARK    1  A    between atoms: C_3  and  C_10
REMARK    2  A    between atoms: C_7  and  C_25
REMARK    3  A    between atoms: N_9  and  C_12
REMARK    4  A    between atoms: C_12  and  C_13
REMARK    5  A    between atoms: C_18  and  C_21
REMARK    6  A    between atoms: C_25  and  N_26
REMARK    7  A    between atoms: N_26  and  C_29
REMARK                            x       y       z     vdW  Elec       q    Type
REMARK                         _______ _______ _______ _____ _____    ______ ____
ROOT
ATOM      1  O   UNL     1      35.354 -26.522 -15.359  0.00  0.00    -0.277 OA
ATOM      2  N   UNL     1      37.186 -25.642 -14.261  0.00  0.00    -0.275 N 
ATOM      3  C   UNL     1      37.823 -24.868 -13.196  0.00  0.00    +0.152 C 
ATOM      4  C   UNL     1      39.213 -25.481 -13.059  0.00  0.00    +0.031 C 
ATOM      5  C   UNL     1      38.159 -26.472 -14.959  0.00  0.00    +0.094 C 
ATOM      6  C   UNL     1      39.515 -25.994 -14.465  0.00  0.00    +0.024 C 
ATOM      7  C   UNL     1      35.831 -25.744 -14.531  0.00  0.00    +0.204 C 
ENDROOT
BRANCH   3  10
ATOM      8  O   UNL     1      37.902 -22.506 -12.859  0.00  0.00    -0.273 OA
ATOM      9  N   UNL     1      37.988 -23.338 -15.031  0.00  0.00    -0.299 N 
ATOM     10  C   UNL     1      37.915 -23.443 -13.652  0.00  0.00    +0.241 C 
ATOM     11  H   UNL     1      37.991 -24.166 -15.565  0.00  0.00    +0.150 HD
BRANCH   9  12
ATOM     12  C   UNL     1      38.062 -22.073 -15.726  0.00  0.00    +0.116 C 
BRANCH  12  13
ATOM     13  C   UNL     1      36.935 -21.903 -16.704  0.00  0.00    -0.003 C 
ATOM     14  C   UNL     1      37.153 -21.229 -17.906  0.00  0.00    -0.003 C 
ATOM     15  C   UNL     1      35.673 -22.419 -16.411  0.00  0.00    -0.003 C 
ATOM     16  C   UNL     1      36.106 -21.071 -18.815  0.00  0.00    +0.002 C 
ATOM     17  C   UNL     1      34.627 -22.261 -17.321  0.00  0.00    +0.002 C 
ATOM     18  C   UNL     1      34.844 -21.587 -18.523  0.00  0.00    +0.031 C 
BRANCH  18  21
ATOM     19  N   UNL     1      33.790 -20.436 -20.454  0.00  0.00    -0.343 N 
ATOM     20  N   UNL     1      32.700 -22.218 -19.406  0.00  0.00    -0.285 NA
ATOM     21  C   UNL     1      33.754 -21.423 -19.471  0.00  0.00    +0.117 C 
ATOM     22  H   UNL     1      33.040 -20.343 -21.085  0.00  0.00    +0.144 HD
ATOM     23  H   UNL     1      34.564 -19.832 -20.516  0.00  0.00    +0.144 HD
ATOM     24  H   UNL     1      31.960 -22.108 -20.047  0.00  0.00    +0.188 HD
ENDBRANCH  18  21
ENDBRANCH  12  13
ENDBRANCH   9  12
ENDBRANCH   3  10
BRANCH   7  25
ATOM     25  C   UNL     1      34.927 -24.832 -13.740  0.00  0.00    +0.006 C 
BRANCH  25  26
ATOM     26  N   UNL     1      33.845 -24.433 -14.627  0.00  0.00    +0.391 N 
ATOM     27  H   UNL     1      34.176 -23.692 -15.246  0.00  0.00    -0.084 HD
ATOM     28  H   UNL     1      33.551 -25.243 -15.172  0.00  0.00    -0.084 HD
BRANCH  26  29
ATOM     29  C   UNL     1      32.700 -23.941 -13.854  0.00  0.00    -0.061 C 
ATOM     30  C   UNL     1      32.084 -22.712 -14.535  0.00  0.00    -0.021 C 
ATOM     31  C   UNL     1      31.756 -25.117 -13.562  0.00  0.00    -0.021 C 
ATOM     32  C   UNL     1      30.414 -24.726 -12.940  0.00  0.00    -0.002 C 
ATOM     33  C   UNL     1      31.491 -22.899 -15.932  0.00  0.00    -0.002 C 
ATOM     34  C   UNL     1      29.232 -24.754 -13.912  0.00  0.00    -0.000 C 
ATOM     35  C   UNL     1      30.297 -23.842 -16.072  0.00  0.00    -0.000 C 
ATOM     36  C   UNL     1      29.213 -23.683 -15.006  0.00  0.00    -0.000 C 
ENDBRANCH  26  29
ENDBRANCH  25  26
ENDBRANCH   7  25
TORSDOF 7
ENDMDL
MODEL 8
REMARK VINA RESULT:      -8.5     12.658     18.148
REMARK  Name = 46937030
REMARK  7 active torsions:
REMARK  status: ('A' for Active; 'I' for Inactive)
REMARK    1  A    between atoms: C_3  and  C_10
REMARK    2  A    between atoms: C_7  and  C_25
REMARK    3  A    between atoms: N_9  and  C_12
REMARK    4  A    between atoms: C_12  and  C_13
REMARK    5  A    between atoms: C_18  and  C_21
REMARK    6  A    between atoms: C_25  and  N_26
REMARK    7  A    between atoms: N_26  and  C_29
REMARK                            x       y       z     vdW  Elec       q    Type
REMARK                         _______ _______ _______ _____ _____    ______ ____
ROOT
ATOM      1  O   UNL     1      30.539  -4.049 -21.698  0.00  0.00    -0.277 OA
ATOM      2  N   UNL     1      31.873  -5.920 -21.456  0.00  0.00    -0.275 N 
ATOM      3  C   UNL     1      32.753  -6.971 -21.964  0.00  0.00    +0.152 C 
ATOM      4  C   UNL     1      33.623  -7.349 -20.770  0.00  0.00    +0.031 C 
ATOM      5  C   UNL     1      31.947  -5.831 -20.004  0.00  0.00    +0.094 C 
ATOM      6  C   UNL     1      32.723  -7.064 -19.570  0.00  0.00    +0.024 C 
ATOM      7  C   UNL     1      31.154  -4.993 -22.196  0.00  0.00    +0.204 C 
ENDROOT
BRANCH   3  10
ATOM      8  O   UNL     1      31.199  -8.086 -23.394  0.00  0.00    -0.273 OA
ATOM      9  N   UNL     1      31.983  -9.189 -21.500  0.00  0.00    -0.299 N 
ATOM     10  C   UNL     1      31.897  -8.127 -22.384  0.00  0.00    +0.241 C 
ATOM     11  H   UNL     1      32.580  -9.105 -20.722  0.00  0.00    +0.150 HD
BRANCH   9  12
ATOM     12  C   UNL     1      31.238 -10.417 -21.664  0.00  0.00    +0.116 C 
BRANCH  12  13
ATOM     13  C   UNL     1      32.141 -11.615 -21.749  0.00  0.00    -0.003 C 
ATOM     14  C   UNL     1      32.139 -12.562 -20.725  0.00  0.00    -0.003 C 
ATOM     15  C   UNL     1      32.980 -11.779 -22.850  0.00  0.00    -0.003 C 
ATOM     16  C   UNL     1      32.978 -13.674 -20.803  0.00  0.00    +0.002 C 
ATOM     17  C   UNL     1      33.819 -12.891 -22.928  0.00  0.00    +0.002 C 
ATOM     18  C   UNL     1      33.817 -13.839 -21.905  0.00  0.00    +0.031 C 
BRANCH  18  21
ATOM     19  N   UNL     1      34.852 -15.862 -20.905  0.00  0.00    -0.343 N 
ATOM     20  N   UNL     1      35.353 -15.246 -23.103  0.00  0.00    -0.285 NA
ATOM     21  C   UNL     1      34.691 -14.998 -21.987  0.00  0.00    +0.117 C 
ATOM     22  H   UNL     1      35.449 -16.642 -20.983  0.00  0.00    +0.144 HD
ATOM     23  H   UNL     1      34.370 -15.693 -20.064  0.00  0.00    +0.144 HD
ATOM     24  H   UNL     1      35.945 -16.030 -23.160  0.00  0.00    +0.188 HD
ENDBRANCH  18  21
ENDBRANCH  12  13
ENDBRANCH   9  12
ENDBRANCH   3  10
BRANCH   7  25
ATOM     25  C   UNL     1      31.156  -5.193 -23.690  0.00  0.00    +0.006 C 
BRANCH  25  26
ATOM     26  N   UNL     1      31.948  -4.116 -24.262  0.00  0.00    +0.391 N 
ATOM     27  H   UNL     1      31.324  -3.384 -24.602  0.00  0.00    -0.084 HD
ATOM     28  H   UNL     1      32.567  -3.744 -23.541  0.00  0.00    -0.084 HD
BRANCH  26  29
ATOM     29  C   UNL     1      32.763  -4.611 -25.376  0.00  0.00    -0.061 C 
ATOM     30  C   UNL     1      32.572  -3.723 -26.613  0.00  0.00    -0.021 C 
ATOM     31  C   UNL     1      34.204  -4.815 -24.885  0.00  0.00    -0.021 C 
ATOM     32  C   UNL     1      35.219  -5.133 -25.985  0.00  0.00    -0.002 C 
ATOM     33  C   UNL     1      33.002  -2.259 -26.507  0.00  0.00    -0.002 C 
ATOM     34  C   UNL     1      36.119  -3.959 -26.376  0.00  0.00    -0.000 C 
ATOM     35  C   UNL     1      34.483  -1.973 -26.265  0.00  0.00    -0.000 C 
ATOM     36  C   UNL     1      35.453  -2.795 -27.115  0.00  0.00    -0.000 C 
ENDBRANCH  26  29
ENDBRANCH  25  26
ENDBRANCH   7  25
TORSDOF 7
ENDMDL
MODEL 9
REMARK VINA RESULT:      -8.3      9.530     14.020
REMARK  Name = 46937030
REMARK  7 active torsions:
REMARK  status: ('A' for Active; 'I' for Inactive)
REMARK    1  A    between atoms: C_3  and  C_10
REMARK    2  A    between atoms: C_7  and  C_25
REMARK    3  A    between atoms: N_9  and  C_12
REMARK    4  A    between atoms: C_12  and  C_13
REMARK    5  A    between atoms: C_18  and  C_21
REMARK    6  A    between atoms: C_25  and  N_26
REMARK    7  A    between atoms: N_26  and  C_29
REMARK                            x       y       z     vdW  Elec       q    Type
REMARK                         _______ _______ _______ _____ _____    ______ ____
ROOT
ATOM      1  O   UNL     1      33.710 -14.249 -19.755  0.00  0.00    -0.277 OA
ATOM      2  N   UNL     1      32.645 -12.596 -20.967  0.00  0.00    -0.275 N 
ATOM      3  C   UNL     1      32.125 -12.011 -22.202  0.00  0.00    +0.152 C 
ATOM      4  C   UNL     1      30.986 -11.105 -21.745  0.00  0.00    +0.031 C 
ATOM      5  C   UNL     1      32.108 -11.912 -19.798  0.00  0.00    +0.094 C 
ATOM      6  C   UNL     1      31.416 -10.674 -20.344  0.00  0.00    +0.024 C 
ATOM      7  C   UNL     1      33.421 -13.736 -20.838  0.00  0.00    +0.204 C 
ENDROOT
BRANCH   3  10
ATOM      8  O   UNL     1      34.223 -11.736 -23.307  0.00  0.00    -0.273 OA
ATOM      9  N   UNL     1      32.970  -9.847 -22.779  0.00  0.00    -0.299 N 
ATOM     10  C   UNL     1      33.222 -11.207 -22.831  0.00  0.00    +0.241 C 
ATOM     11  H   UNL     1      32.128  -9.541 -22.370  0.00  0.00    +0.150 HD
BRANCH   9  12
ATOM     12  C   UNL     1      33.883  -8.852 -23.296  0.00  0.00    +0.116 C 
BRANCH  12  13
ATOM     13  C   UNL     1      33.334  -7.461 -23.160  0.00  0.00    -0.003 C 
ATOM     14  C   UNL     1      32.154  -7.244 -22.447  0.00  0.00    -0.003 C 
ATOM     15  C   UNL     1      34.002  -6.387 -23.748  0.00  0.00    -0.003 C 
ATOM     16  C   UNL     1      31.643  -5.952 -22.321  0.00  0.00    +0.002 C 
ATOM     17  C   UNL     1      33.491  -5.095 -23.622  0.00  0.00    +0.002 C 
ATOM     18  C   UNL     1      32.312  -4.878 -22.908  0.00  0.00    +0.031 C 
BRANCH  18  21
ATOM     19  N   UNL     1      30.820  -3.221 -21.815  0.00  0.00    -0.343 N 
ATOM     20  N   UNL     1      32.205  -2.573 -23.582  0.00  0.00    -0.285 NA
ATOM     21  C   UNL     1      31.780  -3.531 -22.776  0.00  0.00    +0.117 C 
ATOM     22  H   UNL     1      30.474  -2.302 -21.744  0.00  0.00    +0.144 HD
ATOM     23  H   UNL     1      30.488  -3.921 -21.208  0.00  0.00    +0.144 HD
ATOM     24  H   UNL     1      31.846  -1.661 -23.494  0.00  0.00    +0.188 HD
ENDBRANCH  18  21
ENDBRANCH  12  13
ENDBRANCH   9  12
ENDBRANCH   3  10
BRANCH   7  25
ATOM     25  C   UNL     1      33.915 -14.351 -22.123  0.00  0.00    +0.006 C 
BRANCH  25  26
ATOM     26  N   UNL     1      34.920 -15.338 -21.764  0.00  0.00    +0.391 N 
ATOM     27  H   UNL     1      35.756 -14.858 -21.427  0.00  0.00    -0.084 HD
ATOM     28  H   UNL     1      34.542 -15.941 -21.033  0.00  0.00    -0.084 HD
BRANCH  26  29
ATOM     29  C   UNL     1      35.271 -16.162 -22.924  0.00  0.00    -0.061 C 
ATOM     30  C   UNL     1      36.148 -17.346 -22.493  0.00  0.00    -0.021 C 
ATOM     31  C   UNL     1      33.990 -16.497 -23.702  0.00  0.00    -0.021 C 
ATOM     32  C   UNL     1      34.167 -17.521 -24.825  0.00  0.00    -0.002 C 
ATOM     33  C   UNL     1      35.538 -18.365 -21.529  0.00  0.00    -0.002 C 
ATOM     34  C   UNL     1      33.654 -18.924 -24.490  0.00  0.00    -0.000 C 
ATOM     35  C   UNL     1      34.327 -19.161 -22.015  0.00  0.00    -0.000 C 
ATOM     36  C   UNL     1      34.438 -19.712 -23.437  0.00  0.00    -0.000 C 
ENDBRANCH  26  29
ENDBRANCH  25  26
ENDBRANCH   7  25
TORSDOF 7
ENDMDL
