MODEL 1
REMARK VINA RESULT:     -11.3      0.000      0.000
REMARK  Name = 115368
REMARK  5 active torsions:
REMARK  status: ('A' for Active; 'I' for Inactive)
REMARK    1  A    between atoms: N_2  and  C_17
REMARK    2  A    between atoms: C_17  and  C_18
REMARK    3  A    between atoms: C_18  and  C_19
REMARK    4  A    between atoms: C_19  and  C_20
REMARK    5  A    between atoms: C_20  and  N_23
REMARK                            x       y       z     vdW  Elec       q    Type
REMARK                         _______ _______ _______ _____ _____    ______ ____
ROOT
ATOM      1  S   UNL     1      36.764 -21.132 -18.698  0.00  0.00    +0.014 S 
ATOM      2  N   UNL     1      34.753 -17.315 -23.718  0.00  0.00    +0.389 N 
ATOM      3  N   UNL     1      35.466 -19.105 -21.607  0.00  0.00    -0.297 N 
ATOM      4  N   UNL     1      36.908 -20.119 -20.000  0.00  0.00    -0.194 NA
ATOM      5  C   UNL     1      33.989 -18.548 -23.493  0.00  0.00    -0.055 C 
ATOM      6  C   UNL     1      35.273 -16.802 -22.443  0.00  0.00    -0.055 C 
ATOM      7  C   UNL     1      34.855 -19.626 -22.835  0.00  0.00    +0.069 C 
ATOM      8  C   UNL     1      36.182 -17.835 -21.776  0.00  0.00    +0.069 C 
ATOM      9  C   UNL     1      35.694 -19.908 -20.511  0.00  0.00    +0.140 A 
ATOM     10  C   UNL     1      34.590 -20.565 -19.866  0.00  0.00    +0.040 A 
ATOM     11  C   UNL     1      35.056 -21.319 -18.786  0.00  0.00    +0.050 A 
ATOM     12  C   UNL     1      33.203 -20.564 -20.137  0.00  0.00    +0.003 C 
ATOM     13  C   UNL     1      34.195 -22.069 -17.971  0.00  0.00    +0.008 C 
ATOM     14  C   UNL     1      32.337 -21.307 -19.330  0.00  0.00    +0.000 C 
ATOM     15  C   UNL     1      32.829 -22.050 -18.262  0.00  0.00    +0.001 C 
ATOM     16  H   UNL     1      35.542 -17.526 -24.329  0.00  0.00    -0.080 HD
ENDROOT
BRANCH   2  17
ATOM     17  C   UNL     1      33.922 -16.307 -24.377  0.00  0.00    -0.077 C 
BRANCH  17  18
ATOM     18  C   UNL     1      34.501 -14.912 -24.152  0.00  0.00    -0.021 C 
BRANCH  18  19
ATOM     19  C   UNL     1      33.437 -13.953 -23.607  0.00  0.00    +0.020 C 
BRANCH  19  20
ATOM     20  C   UNL     1      33.951 -13.102 -22.451  0.00  0.00    +0.101 C 
BRANCH  20  23
ATOM     21  O   UNL     1      33.495 -10.306 -23.306  0.00  0.00    -0.274 OA
ATOM     22  O   UNL     1      31.935 -13.512 -20.361  0.00  0.00    -0.274 OA
ATOM     23  N   UNL     1      32.959 -12.159 -21.975  0.00  0.00    -0.230 N 
ATOM     24  C   UNL     1      31.532 -10.333 -21.867  0.00  0.00    +0.086 C 
ATOM     25  C   UNL     1      31.370 -11.164 -20.589  0.00  0.00    +0.086 C 
ATOM     26  C   UNL     1      31.509  -8.820 -21.692  0.00  0.00    +0.010 C 
ATOM     27  C   UNL     1      32.041 -10.566 -19.347  0.00  0.00    +0.010 C 
ATOM     28  C   UNL     1      32.278  -8.340 -20.468  0.00  0.00    +0.001 C 
ATOM     29  C   UNL     1      31.811  -9.068 -19.215  0.00  0.00    +0.001 C 
ATOM     30  C   UNL     1      32.803 -10.881 -22.480  0.00  0.00    +0.231 C 
ATOM     31  C   UNL     1      32.082 -12.449 -20.947  0.00  0.00    +0.231 C 
ENDBRANCH  20  23
ENDBRANCH  19  20
ENDBRANCH  18  19
ENDBRANCH  17  18
ENDBRANCH   2  17
TORSDOF 5
ENDMDL
MODEL 2
REMARK VINA RESULT:     -10.5      4.213     10.429
REMARK  Name = 115368
REMARK  5 active torsions:
REMARK  status: ('A' for Active; 'I' for Inactive)
REMARK    1  A    between atoms: N_2  and  C_17
REMARK    2  A    between atoms: C_17  and  C_18
REMARK    3  A    between atoms: C_18  and  C_19
REMARK    4  A    between atoms: C_19  and  C_20
REMARK    5  A    between atoms: C_20  and  N_23
REMARK                            x       y       z     vdW  Elec       q    Type
REMARK                         _______ _______ _______ _____ _____    ______ ____
ROOT
ATOM      1  S   UNL     1      33.817 -15.305 -25.118  0.00  0.00    +0.014 S 
ATOM      2  N   UNL     1      36.052 -19.843 -20.847  0.00  0.00    +0.389 N 
ATOM      3  N   UNL     1      35.203 -17.735 -22.581  0.00  0.00    -0.297 N 
ATOM      4  N   UNL     1      34.411 -16.767 -24.613  0.00  0.00    -0.194 NA
ATOM      5  C   UNL     1      36.469 -18.457 -20.600  0.00  0.00    -0.055 C 
ATOM      6  C   UNL     1      34.717 -19.868 -21.461  0.00  0.00    -0.055 C 
ATOM      7  C   UNL     1      36.498 -17.646 -21.898  0.00  0.00    +0.069 C 
ATOM      8  C   UNL     1      34.718 -19.105 -22.786  0.00  0.00    +0.069 C 
ATOM      9  C   UNL     1      34.691 -16.685 -23.310  0.00  0.00    +0.140 A 
ATOM     10  C   UNL     1      34.437 -15.425 -22.665  0.00  0.00    +0.040 A 
ATOM     11  C   UNL     1      33.923 -14.516 -23.592  0.00  0.00    +0.050 A 
ATOM     12  C   UNL     1      34.614 -14.997 -21.331  0.00  0.00    +0.003 C 
ATOM     13  C   UNL     1      33.581 -13.202 -23.241  0.00  0.00    +0.008 C 
ATOM     14  C   UNL     1      34.276 -13.690 -20.970  0.00  0.00    +0.000 C 
ATOM     15  C   UNL     1      33.767 -12.805 -21.914  0.00  0.00    +0.001 C 
ATOM     16  H   UNL     1      36.714 -20.273 -21.493  0.00  0.00    -0.080 HD
ENDROOT
BRANCH   2  17
ATOM     17  C   UNL     1      36.061 -20.613 -19.604  0.00  0.00    -0.077 C 
BRANCH  17  18
ATOM     18  C   UNL     1      34.767 -21.414 -19.465  0.00  0.00    -0.021 C 
BRANCH  18  19
ATOM     19  C   UNL     1      34.727 -22.173 -18.135  0.00  0.00    +0.020 C 
BRANCH  19  20
ATOM     20  C   UNL     1      33.510 -23.084 -18.017  0.00  0.00    +0.101 C 
BRANCH  20  23
ATOM     21  O   UNL     1      34.626 -24.019 -15.441  0.00  0.00    -0.274 OA
ATOM     22  O   UNL     1      30.858 -22.070 -17.281  0.00  0.00    -0.274 OA
ATOM     23  N   UNL     1      32.910 -23.037 -16.698  0.00  0.00    -0.230 N 
ATOM     24  C   UNL     1      32.664 -23.033 -14.392  0.00  0.00    +0.086 C 
ATOM     25  C   UNL     1      31.280 -22.889 -15.038  0.00  0.00    +0.086 C 
ATOM     26  C   UNL     1      32.741 -23.929 -13.162  0.00  0.00    +0.010 C 
ATOM     27  C   UNL     1      30.426 -24.160 -15.010  0.00  0.00    +0.010 C 
ATOM     28  C   UNL     1      31.914 -25.201 -13.286  0.00  0.00    +0.001 C 
ATOM     29  C   UNL     1      30.476 -24.878 -13.669  0.00  0.00    +0.001 C 
ATOM     30  C   UNL     1      33.543 -23.464 -15.546  0.00  0.00    +0.231 C 
ATOM     31  C   UNL     1      31.627 -22.574 -16.476  0.00  0.00    +0.231 C 
ENDBRANCH  20  23
ENDBRANCH  19  20
ENDBRANCH  18  19
ENDBRANCH  17  18
ENDBRANCH   2  17
TORSDOF 5
ENDMDL
MODEL 3
REMARK VINA RESULT:     -10.5      4.074     10.303
REMARK  Name = 115368
REMARK  5 active torsions:
REMARK  status: ('A' for Active; 'I' for Inactive)
REMARK    1  A    between atoms: N_2  and  C_17
REMARK    2  A    between atoms: C_17  and  C_18
REMARK    3  A    between atoms: C_18  and  C_19
REMARK    4  A    between atoms: C_19  and  C_20
REMARK    5  A    between atoms: C_20  and  N_23
REMARK                            x       y       z     vdW  Elec       q    Type
REMARK                         _______ _______ _______ _____ _____    ______ ____
ROOT
ATOM      1  S   UNL     1      33.823 -14.219 -25.394  0.00  0.00    +0.014 S 
ATOM      2  N   UNL     1      35.265 -19.340 -21.454  0.00  0.00    +0.389 N 
ATOM      3  N   UNL     1      34.728 -16.998 -23.003  0.00  0.00    -0.297 N 
ATOM      4  N   UNL     1      34.346 -15.738 -24.992  0.00  0.00    -0.194 NA
ATOM      5  C   UNL     1      35.574 -18.006 -20.925  0.00  0.00    -0.055 C 
ATOM      6  C   UNL     1      34.089 -19.276 -22.334  0.00  0.00    -0.055 C 
ATOM      7  C   UNL     1      35.847 -17.009 -22.055  0.00  0.00    +0.069 C 
ATOM      8  C   UNL     1      34.342 -18.323 -23.503  0.00  0.00    +0.069 C 
ATOM      9  C   UNL     1      34.345 -15.852 -23.663  0.00  0.00    +0.140 A 
ATOM     10  C   UNL     1      33.919 -14.703 -22.910  0.00  0.00    +0.040 A 
ATOM     11  C   UNL     1      33.580 -13.667 -23.782  0.00  0.00    +0.050 A 
ATOM     12  C   UNL     1      33.798 -14.479 -21.520  0.00  0.00    +0.003 C 
ATOM     13  C   UNL     1      33.128 -12.420 -23.323  0.00  0.00    +0.008 C 
ATOM     14  C   UNL     1      33.348 -13.241 -21.053  0.00  0.00    +0.000 C 
ATOM     15  C   UNL     1      33.018 -12.226 -21.944  0.00  0.00    +0.001 C 
ATOM     16  H   UNL     1      36.062 -19.667 -22.000  0.00  0.00    -0.080 HD
ENDROOT
BRANCH   2  17
ATOM     17  C   UNL     1      35.039 -20.287 -20.362  0.00  0.00    -0.077 C 
BRANCH  17  18
ATOM     18  C   UNL     1      33.542 -20.524 -20.166  0.00  0.00    -0.021 C 
BRANCH  18  19
ATOM     19  C   UNL     1      33.268 -21.260 -18.850  0.00  0.00    +0.020 C 
BRANCH  19  20
ATOM     20  C   UNL     1      34.200 -22.447 -18.636  0.00  0.00    +0.101 C 
BRANCH  20  23
ATOM     21  O   UNL     1      36.862 -21.787 -17.524  0.00  0.00    -0.274 OA
ATOM     22  O   UNL     1      32.706 -23.407 -16.303  0.00  0.00    -0.274 OA
ATOM     23  N   UNL     1      34.660 -22.548 -17.266  0.00  0.00    -0.230 N 
ATOM     24  C   UNL     1      35.901 -22.229 -15.332  0.00  0.00    +0.086 C 
ATOM     25  C   UNL     1      34.765 -23.214 -15.034  0.00  0.00    +0.086 C 
ATOM     26  C   UNL     1      37.246 -22.539 -14.688  0.00  0.00    +0.010 C 
ATOM     27  C   UNL     1      35.200 -24.680 -14.932  0.00  0.00    +0.010 C 
ATOM     28  C   UNL     1      37.605 -24.018 -14.719  0.00  0.00    +0.001 C 
ATOM     29  C   UNL     1      36.481 -24.862 -14.132  0.00  0.00    +0.001 C 
ATOM     30  C   UNL     1      35.921 -22.167 -16.845  0.00  0.00    +0.231 C 
ATOM     31  C   UNL     1      33.877 -23.060 -16.249  0.00  0.00    +0.231 C 
ENDBRANCH  20  23
ENDBRANCH  19  20
ENDBRANCH  18  19
ENDBRANCH  17  18
ENDBRANCH   2  17
TORSDOF 5
ENDMDL
MODEL 4
REMARK VINA RESULT:     -10.2      4.050     10.115
REMARK  Name = 115368
REMARK  5 active torsions:
REMARK  status: ('A' for Active; 'I' for Inactive)
REMARK    1  A    between atoms: N_2  and  C_17
REMARK    2  A    between atoms: C_17  and  C_18
REMARK    3  A    between atoms: C_18  and  C_19
REMARK    4  A    between atoms: C_19  and  C_20
REMARK    5  A    between atoms: C_20  and  N_23
REMARK                            x       y       z     vdW  Elec       q    Type
REMARK                         _______ _______ _______ _____ _____    ______ ____
ROOT
ATOM      1  S   UNL     1      33.791 -14.435 -25.220  0.00  0.00    +0.014 S 
ATOM      2  N   UNL     1      35.616 -19.489 -21.354  0.00  0.00    +0.389 N 
ATOM      3  N   UNL     1      34.924 -17.173 -22.879  0.00  0.00    -0.297 N 
ATOM      4  N   UNL     1      34.366 -15.942 -24.846  0.00  0.00    -0.194 NA
ATOM      5  C   UNL     1      35.948 -18.145 -20.866  0.00  0.00    -0.055 C 
ATOM      6  C   UNL     1      34.373 -19.451 -22.137  0.00  0.00    -0.055 C 
ATOM      7  C   UNL     1      36.115 -17.158 -22.025  0.00  0.00    +0.069 C 
ATOM      8  C   UNL     1      34.518 -18.509 -23.333  0.00  0.00    +0.069 C 
ATOM      9  C   UNL     1      34.473 -16.040 -23.519  0.00  0.00    +0.140 A 
ATOM     10  C   UNL     1      34.093 -14.888 -22.747  0.00  0.00    +0.040 A 
ATOM     11  C   UNL     1      33.670 -13.867 -23.600  0.00  0.00    +0.050 A 
ATOM     12  C   UNL     1      34.081 -14.649 -21.354  0.00  0.00    +0.003 C 
ATOM     13  C   UNL     1      33.239 -12.621 -23.120  0.00  0.00    +0.008 C 
ATOM     14  C   UNL     1      33.652 -13.412 -20.866  0.00  0.00    +0.000 C 
ATOM     15  C   UNL     1      33.238 -12.411 -21.739  0.00  0.00    +0.001 C 
ATOM     16  H   UNL     1      36.372 -19.812 -21.958  0.00  0.00    -0.080 HD
ENDROOT
BRANCH   2  17
ATOM     17  C   UNL     1      35.492 -20.426 -20.237  0.00  0.00    -0.077 C 
BRANCH  17  18
ATOM     18  C   UNL     1      34.025 -20.594 -19.846  0.00  0.00    -0.021 C 
BRANCH  18  19
ATOM     19  C   UNL     1      33.779 -21.962 -19.201  0.00  0.00    +0.020 C 
BRANCH  19  20
ATOM     20  C   UNL     1      34.395 -22.074 -17.810  0.00  0.00    +0.101 C 
BRANCH  20  23
ATOM     21  O   UNL     1      31.446 -22.049 -17.573  0.00  0.00    -0.274 OA
ATOM     22  O   UNL     1      35.232 -23.930 -15.700  0.00  0.00    -0.274 OA
ATOM     23  N   UNL     1      33.553 -22.814 -16.891  0.00  0.00    -0.230 N 
ATOM     24  C   UNL     1      31.701 -23.838 -15.942  0.00  0.00    +0.086 C 
ATOM     25  C   UNL     1      32.906 -24.041 -15.018  0.00  0.00    +0.086 C 
ATOM     26  C   UNL     1      30.370 -23.547 -15.259  0.00  0.00    +0.010 C 
ATOM     27  C   UNL     1      32.911 -23.155 -13.768  0.00  0.00    +0.010 C 
ATOM     28  C   UNL     1      30.492 -22.590 -14.081  0.00  0.00    +0.001 C 
ATOM     29  C   UNL     1      31.549 -23.073 -13.096  0.00  0.00    +0.001 C 
ATOM     30  C   UNL     1      32.172 -22.761 -16.897  0.00  0.00    +0.231 C 
ATOM     31  C   UNL     1      34.063 -23.632 -15.901  0.00  0.00    +0.231 C 
ENDBRANCH  20  23
ENDBRANCH  19  20
ENDBRANCH  18  19
ENDBRANCH  17  18
ENDBRANCH   2  17
TORSDOF 5
ENDMDL
MODEL 5
REMARK VINA RESULT:     -10.1      2.047      2.988
REMARK  Name = 115368
REMARK  5 active torsions:
REMARK  status: ('A' for Active; 'I' for Inactive)
REMARK    1  A    between atoms: N_2  and  C_17
REMARK    2  A    between atoms: C_17  and  C_18
REMARK    3  A    between atoms: C_18  and  C_19
REMARK    4  A    between atoms: C_19  and  C_20
REMARK    5  A    between atoms: C_20  and  N_23
REMARK                            x       y       z     vdW  Elec       q    Type
REMARK                         _______ _______ _______ _____ _____    ______ ____
ROOT
ATOM      1  S   UNL     1      36.937 -20.220 -19.748  0.00  0.00    +0.014 S 
ATOM      2  N   UNL     1      34.381 -15.744 -23.901  0.00  0.00    +0.389 N 
ATOM      3  N   UNL     1      35.337 -17.819 -22.183  0.00  0.00    -0.297 N 
ATOM      4  N   UNL     1      36.935 -18.982 -20.848  0.00  0.00    -0.194 NA
ATOM      5  C   UNL     1      33.722 -17.055 -23.874  0.00  0.00    -0.055 C 
ATOM      6  C   UNL     1      34.931 -15.426 -22.576  0.00  0.00    -0.055 C 
ATOM      7  C   UNL     1      34.699 -18.160 -23.459  0.00  0.00    +0.069 C 
ATOM      8  C   UNL     1      35.948 -16.485 -22.147  0.00  0.00    +0.069 C 
ATOM      9  C   UNL     1      35.683 -18.783 -21.263  0.00  0.00    +0.140 A 
ATOM     10  C   UNL     1      34.666 -19.633 -20.704  0.00  0.00    +0.040 A 
ATOM     11  C   UNL     1      35.245 -20.526 -19.799  0.00  0.00    +0.050 A 
ATOM     12  C   UNL     1      33.271 -19.697 -20.913  0.00  0.00    +0.003 C 
ATOM     13  C   UNL     1      34.487 -21.478 -19.100  0.00  0.00    +0.008 C 
ATOM     14  C   UNL     1      32.507 -20.640 -20.221  0.00  0.00    +0.000 C 
ATOM     15  C   UNL     1      33.109 -21.519 -19.327  0.00  0.00    +0.001 C 
ATOM     16  H   UNL     1      35.148 -15.777 -24.573  0.00  0.00    -0.080 HD
ENDROOT
BRANCH   2  17
ATOM     17  C   UNL     1      33.443 -14.706 -24.331  0.00  0.00    -0.077 C 
BRANCH  17  18
ATOM     18  C   UNL     1      33.394 -13.577 -23.303  0.00  0.00    -0.021 C 
BRANCH  18  19
ATOM     19  C   UNL     1      34.130 -12.334 -23.812  0.00  0.00    +0.020 C 
BRANCH  19  20
ATOM     20  C   UNL     1      33.181 -11.191 -24.158  0.00  0.00    +0.101 C 
BRANCH  20  23
ATOM     21  O   UNL     1      31.735  -9.515 -22.195  0.00  0.00    -0.274 OA
ATOM     22  O   UNL     1      35.643  -9.678 -24.662  0.00  0.00    -0.274 OA
ATOM     23  N   UNL     1      33.591  -9.934 -23.564  0.00  0.00    -0.230 N 
ATOM     24  C   UNL     1      33.735  -8.131 -22.112  0.00  0.00    +0.086 C 
ATOM     25  C   UNL     1      34.728  -7.922 -23.261  0.00  0.00    +0.086 C 
ATOM     26  C   UNL     1      32.986  -6.892 -21.636  0.00  0.00    +0.010 C 
ATOM     27  C   UNL     1      34.287  -6.894 -24.308  0.00  0.00    +0.010 C 
ATOM     28  C   UNL     1      32.528  -5.989 -22.773  0.00  0.00    +0.001 C 
ATOM     29  C   UNL     1      33.692  -5.637 -23.690  0.00  0.00    +0.001 C 
ATOM     30  C   UNL     1      32.851  -9.253 -22.615  0.00  0.00    +0.231 C 
ATOM     31  C   UNL     1      34.761  -9.286 -23.912  0.00  0.00    +0.231 C 
ENDBRANCH  20  23
ENDBRANCH  19  20
ENDBRANCH  18  19
ENDBRANCH  17  18
ENDBRANCH   2  17
TORSDOF 5
ENDMDL
MODEL 6
REMARK VINA RESULT:     -10.0      3.656      9.778
REMARK  Name = 115368
REMARK  5 active torsions:
REMARK  status: ('A' for Active; 'I' for Inactive)
REMARK    1  A    between atoms: N_2  and  C_17
REMARK    2  A    between atoms: C_17  and  C_18
REMARK    3  A    between atoms: C_18  and  C_19
REMARK    4  A    between atoms: C_19  and  C_20
REMARK    5  A    between atoms: C_20  and  N_23
REMARK                            x       y       z     vdW  Elec       q    Type
REMARK                         _______ _______ _______ _____ _____    ______ ____
ROOT
ATOM      1  S   UNL     1      33.192  -9.638 -23.690  0.00  0.00    +0.014 S 
ATOM      2  N   UNL     1      34.579 -16.110 -23.775  0.00  0.00    +0.389 N 
ATOM      3  N   UNL     1      34.003 -13.322 -23.521  0.00  0.00    -0.297 N 
ATOM      4  N   UNL     1      33.872 -11.048 -24.231  0.00  0.00    -0.194 NA
ATOM      5  C   UNL     1      34.513 -15.478 -22.452  0.00  0.00    -0.055 C 
ATOM      6  C   UNL     1      33.646 -15.450 -24.699  0.00  0.00    -0.055 C 
ATOM      7  C   UNL     1      34.857 -13.987 -22.531  0.00  0.00    +0.069 C 
ATOM      8  C   UNL     1      33.987 -13.966 -24.840  0.00  0.00    +0.069 C 
ATOM      9  C   UNL     1      33.584 -12.020 -23.362  0.00  0.00    +0.140 A 
ATOM     10  C   UNL     1      32.797 -11.658 -22.214  0.00  0.00    +0.040 A 
ATOM     11  C   UNL     1      32.489 -10.297 -22.264  0.00  0.00    +0.050 A 
ATOM     12  C   UNL     1      32.321 -12.416 -21.122  0.00  0.00    +0.003 C 
ATOM     13  C   UNL     1      31.728  -9.666 -21.269  0.00  0.00    +0.008 C 
ATOM     14  C   UNL     1      31.561 -11.797 -20.126  0.00  0.00    +0.000 C 
ATOM     15  C   UNL     1      31.270 -10.439 -20.200  0.00  0.00    +0.001 C 
ATOM     16  H   UNL     1      35.526 -16.007 -24.139  0.00  0.00    -0.080 HD
ENDROOT
BRANCH   2  17
ATOM     17  C   UNL     1      34.280 -17.539 -23.677  0.00  0.00    -0.077 C 
BRANCH  17  18
ATOM     18  C   UNL     1      35.280 -18.228 -22.750  0.00  0.00    -0.021 C 
BRANCH  18  19
ATOM     19  C   UNL     1      34.648 -19.443 -22.061  0.00  0.00    +0.020 C 
BRANCH  19  20
ATOM     20  C   UNL     1      34.548 -19.273 -20.549  0.00  0.00    +0.101 C 
BRANCH  20  23
ATOM     21  O   UNL     1      32.307 -20.826 -19.398  0.00  0.00    -0.274 OA
ATOM     22  O   UNL     1      36.904 -20.889 -19.891  0.00  0.00    -0.274 OA
ATOM     23  N   UNL     1      34.589 -20.540 -19.847  0.00  0.00    -0.230 N 
ATOM     24  C   UNL     1      33.940 -22.567 -18.925  0.00  0.00    +0.086 C 
ATOM     25  C   UNL     1      35.428 -22.343 -18.630  0.00  0.00    +0.086 C 
ATOM     26  C   UNL     1      33.116 -23.180 -17.799  0.00  0.00    +0.010 C 
ATOM     27  C   UNL     1      35.738 -21.921 -17.190  0.00  0.00    +0.010 C 
ATOM     28  C   UNL     1      33.460 -22.622 -16.425  0.00  0.00    +0.001 C 
ATOM     29  C   UNL     1      34.956 -22.719 -16.158  0.00  0.00    +0.001 C 
ATOM     30  C   UNL     1      33.468 -21.205 -19.387  0.00  0.00    +0.231 C 
ATOM     31  C   UNL     1      35.770 -21.195 -19.552  0.00  0.00    +0.231 C 
ENDBRANCH  20  23
ENDBRANCH  19  20
ENDBRANCH  18  19
ENDBRANCH  17  18
ENDBRANCH   2  17
TORSDOF 5
ENDMDL
MODEL 7
REMARK VINA RESULT:     -10.0      6.540     12.111
REMARK  Name = 115368
REMARK  5 active torsions:
REMARK  status: ('A' for Active; 'I' for Inactive)
REMARK    1  A    between atoms: N_2  and  C_17
REMARK    2  A    between atoms: C_17  and  C_18
REMARK    3  A    between atoms: C_18  and  C_19
REMARK    4  A    between atoms: C_19  and  C_20
REMARK    5  A    between atoms: C_20  and  N_23
REMARK                            x       y       z     vdW  Elec       q    Type
REMARK                         _______ _______ _______ _____ _____    ______ ____
ROOT
ATOM      1  S   UNL     1      31.397  -2.234 -24.333  0.00  0.00    +0.014 S 
ATOM      2  N   UNL     1      31.702  -7.473 -20.298  0.00  0.00    +0.389 N 
ATOM      3  N   UNL     1      31.639  -5.342 -22.201  0.00  0.00    -0.297 N 
ATOM      4  N   UNL     1      30.920  -3.263 -23.126  0.00  0.00    -0.194 NA
ATOM      5  C   UNL     1      32.139  -7.693 -21.682  0.00  0.00    -0.055 C 
ATOM      6  C   UNL     1      31.993  -6.093 -19.888  0.00  0.00    -0.055 C 
ATOM      7  C   UNL     1      31.444  -6.726 -22.645  0.00  0.00    +0.069 C 
ATOM      8  C   UNL     1      31.277  -5.096 -20.800  0.00  0.00    +0.069 C 
ATOM      9  C   UNL     1      31.758  -4.301 -23.096  0.00  0.00    +0.140 A 
ATOM     10  C   UNL     1      32.828  -4.306 -24.057  0.00  0.00    +0.040 A 
ATOM     11  C   UNL     1      32.751  -3.160 -24.852  0.00  0.00    +0.050 A 
ATOM     12  C   UNL     1      33.871  -5.226 -24.301  0.00  0.00    +0.003 C 
ATOM     13  C   UNL     1      33.672  -2.900 -25.878  0.00  0.00    +0.008 C 
ATOM     14  C   UNL     1      34.794  -4.975 -25.321  0.00  0.00    +0.000 C 
ATOM     15  C   UNL     1      34.693  -3.827 -26.099  0.00  0.00    +0.001 C 
ATOM     16  H   UNL     1      30.694  -7.622 -20.247  0.00  0.00    -0.080 HD
ENDROOT
BRANCH   2  17
ATOM     17  C   UNL     1      32.349  -8.426 -19.396  0.00  0.00    -0.077 C 
BRANCH  17  18
ATOM     18  C   UNL     1      31.432  -9.619 -19.136  0.00  0.00    -0.021 C 
BRANCH  18  19
ATOM     19  C   UNL     1      32.056 -10.919 -19.653  0.00  0.00    +0.020 C 
BRANCH  19  20
ATOM     20  C   UNL     1      31.474 -11.357 -20.993  0.00  0.00    +0.101 C 
BRANCH  20  23
ATOM     21  O   UNL     1      32.413  -9.826 -23.344  0.00  0.00    -0.274 OA
ATOM     22  O   UNL     1      33.090 -13.803 -21.084  0.00  0.00    -0.274 OA
ATOM     23  N   UNL     1      32.501 -11.710 -21.953  0.00  0.00    -0.230 N 
ATOM     24  C   UNL     1      34.123 -11.539 -23.603  0.00  0.00    +0.086 C 
ATOM     25  C   UNL     1      33.985 -13.010 -23.194  0.00  0.00    +0.086 C 
ATOM     26  C   UNL     1      34.318 -11.269 -25.089  0.00  0.00    +0.010 C 
ATOM     27  C   UNL     1      33.223 -13.883 -24.197  0.00  0.00    +0.010 C 
ATOM     28  C   UNL     1      33.448 -12.142 -25.983  0.00  0.00    +0.001 C 
ATOM     29  C   UNL     1      33.626 -13.615 -25.640  0.00  0.00    +0.001 C 
ATOM     30  C   UNL     1      32.895 -10.893 -22.997  0.00  0.00    +0.231 C 
ATOM     31  C   UNL     1      33.171 -12.917 -21.923  0.00  0.00    +0.231 C 
ENDBRANCH  20  23
ENDBRANCH  19  20
ENDBRANCH  18  19
ENDBRANCH  17  18
ENDBRANCH   2  17
TORSDOF 5
ENDMDL
MODEL 8
REMARK VINA RESULT:      -9.8      2.991      5.277
REMARK  Name = 115368
REMARK  5 active torsions:
REMARK  status: ('A' for Active; 'I' for Inactive)
REMARK    1  A    between atoms: N_2  and  C_17
REMARK    2  A    between atoms: C_17  and  C_18
REMARK    3  A    between atoms: C_18  and  C_19
REMARK    4  A    between atoms: C_19  and  C_20
REMARK    5  A    between atoms: C_20  and  N_23
REMARK                            x       y       z     vdW  Elec       q    Type
REMARK                         _______ _______ _______ _____ _____    ______ ____
ROOT
ATOM      1  S   UNL     1      36.452 -18.456 -21.433  0.00  0.00    +0.014 S 
ATOM      2  N   UNL     1      33.206 -12.721 -22.056  0.00  0.00    +0.389 N 
ATOM      3  N   UNL     1      34.599 -15.216 -22.004  0.00  0.00    -0.297 N 
ATOM      4  N   UNL     1      36.079 -16.871 -21.131  0.00  0.00    -0.194 NA
ATOM      5  C   UNL     1      33.442 -13.472 -23.295  0.00  0.00    -0.055 C 
ATOM      6  C   UNL     1      33.045 -13.646 -20.926  0.00  0.00    -0.055 C 
ATOM      7  C   UNL     1      34.692 -14.350 -23.184  0.00  0.00    +0.069 C 
ATOM      8  C   UNL     1      34.295 -14.510 -20.754  0.00  0.00    +0.069 C 
ATOM      9  C   UNL     1      35.133 -16.485 -21.990  0.00  0.00    +0.140 A 
ATOM     10  C   UNL     1      34.672 -17.465 -22.937  0.00  0.00    +0.040 A 
ATOM     11  C   UNL     1      35.349 -18.670 -22.736  0.00  0.00    +0.050 A 
ATOM     12  C   UNL     1      33.705 -17.400 -23.964  0.00  0.00    +0.003 C 
ATOM     13  C   UNL     1      35.100 -19.807 -23.519  0.00  0.00    +0.008 C 
ATOM     14  C   UNL     1      33.449 -18.527 -24.750  0.00  0.00    +0.000 C 
ATOM     15  C   UNL     1      34.139 -19.714 -24.529  0.00  0.00    +0.001 C 
ATOM     16  H   UNL     1      34.015 -12.125 -21.876  0.00  0.00    -0.080 HD
ENDROOT
BRANCH   2  17
ATOM     17  C   UNL     1      32.029 -11.863 -22.191  0.00  0.00    -0.077 C 
BRANCH  17  18
ATOM     18  C   UNL     1      31.795 -11.076 -20.902  0.00  0.00    -0.021 C 
BRANCH  18  19
ATOM     19  C   UNL     1      31.820  -9.567 -21.165  0.00  0.00    +0.020 C 
BRANCH  19  20
ATOM     20  C   UNL     1      32.184  -9.228 -22.607  0.00  0.00    +0.101 C 
BRANCH  20  23
ATOM     21  O   UNL     1      30.853  -6.586 -22.557  0.00  0.00    -0.274 OA
ATOM     22  O   UNL     1      35.010  -8.559 -23.019  0.00  0.00    -0.274 OA
ATOM     23  N   UNL     1      32.777  -7.912 -22.732  0.00  0.00    -0.230 N 
ATOM     24  C   UNL     1      33.084  -5.616 -22.608  0.00  0.00    +0.086 C 
ATOM     25  C   UNL     1      34.320  -6.246 -23.262  0.00  0.00    +0.086 C 
ATOM     26  C   UNL     1      32.610  -4.294 -23.201  0.00  0.00    +0.010 C 
ATOM     27  C   UNL     1      34.406  -6.058 -24.780  0.00  0.00    +0.010 C 
ATOM     28  C   UNL     1      32.667  -4.258 -24.722  0.00  0.00    +0.001 C 
ATOM     29  C   UNL     1      34.052  -4.647 -25.223  0.00  0.00    +0.001 C 
ATOM     30  C   UNL     1      32.062  -6.732 -22.649  0.00  0.00    +0.231 C 
ATOM     31  C   UNL     1      34.125  -7.717 -22.970  0.00  0.00    +0.231 C 
ENDBRANCH  20  23
ENDBRANCH  19  20
ENDBRANCH  18  19
ENDBRANCH  17  18
ENDBRANCH   2  17
TORSDOF 5
ENDMDL
MODEL 9
REMARK VINA RESULT:      -9.2      4.140      7.078
REMARK  Name = 115368
REMARK  5 active torsions:
REMARK  status: ('A' for Active; 'I' for Inactive)
REMARK    1  A    between atoms: N_2  and  C_17
REMARK    2  A    between atoms: C_17  and  C_18
REMARK    3  A    between atoms: C_18  and  C_19
REMARK    4  A    between atoms: C_19  and  C_20
REMARK    5  A    between atoms: C_20  and  N_23
REMARK                            x       y       z     vdW  Elec       q    Type
REMARK                         _______ _______ _______ _____ _____    ______ ____
ROOT
ATOM      1  S   UNL     1      34.502 -16.642 -24.629  0.00  0.00    +0.014 S 
ATOM      2  N   UNL     1      32.895 -10.384 -23.193  0.00  0.00    +0.389 N 
ATOM      3  N   UNL     1      33.503 -13.143 -23.621  0.00  0.00    -0.297 N 
ATOM      4  N   UNL     1      33.946 -15.106 -24.902  0.00  0.00    -0.194 NA
ATOM      5  C   UNL     1      32.597 -11.384 -22.161  0.00  0.00    -0.055 C 
ATOM      6  C   UNL     1      34.089 -10.779 -23.953  0.00  0.00    -0.055 C 
ATOM      7  C   UNL     1      32.364 -12.766 -22.777  0.00  0.00    +0.069 C 
ATOM      8  C   UNL     1      33.876 -12.137 -24.623  0.00  0.00    +0.069 C 
ATOM      9  C   UNL     1      33.918 -14.451 -23.740  0.00  0.00    +0.140 A 
ATOM     10  C   UNL     1      34.348 -15.172 -22.573  0.00  0.00    +0.040 A 
ATOM     11  C   UNL     1      34.722 -16.469 -22.932  0.00  0.00    +0.050 A 
ATOM     12  C   UNL     1      34.444 -14.796 -21.215  0.00  0.00    +0.003 C 
ATOM     13  C   UNL     1      35.185 -17.401 -21.991  0.00  0.00    +0.008 C 
ATOM     14  C   UNL     1      34.905 -15.717 -20.270  0.00  0.00    +0.000 C 
ATOM     15  C   UNL     1      35.270 -17.002 -20.655  0.00  0.00    +0.001 C 
ATOM     16  H   UNL     1      32.103 -10.331 -23.834  0.00  0.00    -0.080 HD
ENDROOT
BRANCH   2  17
ATOM     17  C   UNL     1      33.082  -9.063 -22.591  0.00  0.00    -0.077 C 
BRANCH  17  18
ATOM     18  C   UNL     1      31.734  -8.461 -22.201  0.00  0.00    -0.021 C 
BRANCH  18  19
ATOM     19  C   UNL     1      31.909  -7.318 -21.196  0.00  0.00    +0.020 C 
BRANCH  19  20
ATOM     20  C   UNL     1      32.956  -6.301 -21.642  0.00  0.00    +0.101 C 
BRANCH  20  23
ATOM     21  O   UNL     1      34.390  -6.279 -24.230  0.00  0.00    -0.274 OA
ATOM     22  O   UNL     1      30.615  -4.607 -22.146  0.00  0.00    -0.274 OA
ATOM     23  N   UNL     1      32.589  -5.635 -22.876  0.00  0.00    -0.230 N 
ATOM     24  C   UNL     1      32.471  -5.078 -25.124  0.00  0.00    +0.086 C 
ATOM     25  C   UNL     1      31.555  -4.138 -24.333  0.00  0.00    +0.086 C 
ATOM     26  C   UNL     1      33.264  -4.445 -26.260  0.00  0.00    +0.010 C 
ATOM     27  C   UNL     1      32.109  -2.724 -24.131  0.00  0.00    +0.010 C 
ATOM     28  C   UNL     1      33.833  -3.076 -25.912  0.00  0.00    +0.001 C 
ATOM     29  C   UNL     1      32.742  -2.151 -25.390  0.00  0.00    +0.001 C 
ATOM     30  C   UNL     1      33.314  -5.729 -24.049  0.00  0.00    +0.231 C 
ATOM     31  C   UNL     1      31.478  -4.821 -22.985  0.00  0.00    +0.231 C 
ENDBRANCH  20  23
ENDBRANCH  19  20
ENDBRANCH  18  19
ENDBRANCH  17  18
ENDBRANCH   2  17
TORSDOF 5
ENDMDL
