MODEL 1
REMARK VINA RESULT:     -12.1      0.000      0.000
REMARK  Name = 6918388
REMARK  5 active torsions:
REMARK  status: ('A' for Active; 'I' for Inactive)
REMARK    1  A    between atoms: N_1  and  C_4
REMARK    2  A    between atoms: N_1  and  C_15
REMARK    3  A    between atoms: C_4  and  C_6
REMARK    4  A    between atoms: C_15  and  C_17
REMARK    5  A    between atoms: C_19  and  C_23
REMARK                            x       y       z     vdW  Elec       q    Type
REMARK                         _______ _______ _______ _____ _____    ______ ____
ROOT
ATOM      1  N   UNL     1      35.888 -17.585 -22.777  0.00  0.00    +0.389 N 
ATOM      2  H   UNL     1      35.107 -18.012 -23.273  0.00  0.00    -0.084 HD
ATOM      3  H   UNL     1      36.602 -17.274 -23.436  0.00  0.00    -0.084 HD
ENDROOT
BRANCH   1   4
ATOM      4  C   UNL     1      36.481 -18.568 -21.881  0.00  0.00    -0.037 C 
BRANCH   4   6
ATOM      5  O   UNL     1      36.095 -20.106 -20.102  0.00  0.00    -0.482 OA
ATOM      6  C   UNL     1      35.450 -19.095 -20.891  0.00  0.00    +0.145 C 
ATOM      7  C   UNL     1      34.231 -19.656 -21.623  0.00  0.00    +0.046 C 
ATOM      8  C   UNL     1      33.204 -20.122 -20.598  0.00  0.00    +0.033 C 
ATOM      9  C   UNL     1      33.870 -20.920 -19.513  0.00  0.00    +0.012 C 
ATOM     10  C   UNL     1      35.256 -20.859 -19.322  0.00  0.00    +0.134 C 
ATOM     11  C   UNL     1      33.097 -21.718 -18.659  0.00  0.00    -0.001 C 
ATOM     12  C   UNL     1      35.863 -21.617 -18.318  0.00  0.00    +0.037 C 
ATOM     13  C   UNL     1      33.704 -22.464 -17.648  0.00  0.00    -0.000 C 
ATOM     14  C   UNL     1      35.086 -22.417 -17.481  0.00  0.00    +0.003 C 
ENDBRANCH   4   6
ENDBRANCH   1   4
BRANCH   1  15
ATOM     15  C   UNL     1      35.407 -16.427 -22.036  0.00  0.00    -0.053 C 
BRANCH  15  17
ATOM     16  N   UNL     1      33.808 -14.927 -25.100  0.00  0.00    -0.243 NA
ATOM     17  C   UNL     1      34.668 -15.460 -22.922  0.00  0.00    -0.025 C 
ATOM     18  C   UNL     1      34.190 -14.269 -22.411  0.00  0.00    -0.003 C 
ATOM     19  C   UNL     1      33.512 -13.396 -23.253  0.00  0.00    +0.019 C 
ATOM     20  C   UNL     1      34.463 -15.751 -24.251  0.00  0.00    +0.092 C 
ATOM     21  C   UNL     1      33.348 -13.768 -24.578  0.00  0.00    +0.099 C 
BRANCH  19  23
ATOM     22  F   UNL     1      31.503  -8.549 -21.366  0.00  0.00    -0.204 F 
ATOM     23  C   UNL     1      32.993 -12.140 -22.764  0.00  0.00    +0.002 C 
ATOM     24  C   UNL     1      32.120 -12.121 -21.674  0.00  0.00    +0.002 C 
ATOM     25  C   UNL     1      33.360 -10.943 -23.380  0.00  0.00    +0.002 C 
ATOM     26  C   UNL     1      31.617 -10.908 -21.202  0.00  0.00    +0.030 C 
ATOM     27  C   UNL     1      32.857  -9.730 -22.908  0.00  0.00    +0.030 C 
ATOM     28  C   UNL     1      31.985  -9.713 -21.819  0.00  0.00    +0.140 C 
ENDBRANCH  19  23
ENDBRANCH  15  17
ENDBRANCH   1  15
TORSDOF 5
ENDMDL
MODEL 2
REMARK VINA RESULT:     -12.0      1.467      2.419
REMARK  Name = 6918388
REMARK  5 active torsions:
REMARK  status: ('A' for Active; 'I' for Inactive)
REMARK    1  A    between atoms: N_1  and  C_4
REMARK    2  A    between atoms: N_1  and  C_15
REMARK    3  A    between atoms: C_4  and  C_6
REMARK    4  A    between atoms: C_15  and  C_17
REMARK    5  A    between atoms: C_19  and  C_23
REMARK                            x       y       z     vdW  Elec       q    Type
REMARK                         _______ _______ _______ _____ _____    ______ ____
ROOT
ATOM      1  N   UNL     1      35.547 -16.257 -22.857  0.00  0.00    +0.389 N 
ATOM      2  H   UNL     1      35.999 -15.804 -23.651  0.00  0.00    -0.084 HD
ATOM      3  H   UNL     1      36.234 -16.491 -22.141  0.00  0.00    -0.084 HD
ENDROOT
BRANCH   1   4
ATOM      4  C   UNL     1      34.910 -17.486 -23.308  0.00  0.00    -0.037 C 
BRANCH   4   6
ATOM      5  O   UNL     1      34.156 -19.059 -21.685  0.00  0.00    -0.482 OA
ATOM      6  C   UNL     1      35.316 -18.664 -22.432  0.00  0.00    +0.145 C 
ATOM      7  C   UNL     1      36.469 -18.281 -21.505  0.00  0.00    +0.046 C 
ATOM      8  C   UNL     1      36.878 -19.499 -20.686  0.00  0.00    +0.033 C 
ATOM      9  C   UNL     1      35.665 -20.195 -20.138  0.00  0.00    +0.012 C 
ATOM     10  C   UNL     1      34.392 -19.948 -20.668  0.00  0.00    +0.134 C 
ATOM     11  C   UNL     1      35.803 -21.126 -19.100  0.00  0.00    -0.001 C 
ATOM     12  C   UNL     1      33.271 -20.592 -20.139  0.00  0.00    +0.037 C 
ATOM     13  C   UNL     1      34.684 -21.779 -18.582  0.00  0.00    -0.000 C 
ATOM     14  C   UNL     1      33.419 -21.509 -19.099  0.00  0.00    +0.003 C 
ENDBRANCH   4   6
ENDBRANCH   1   4
BRANCH   1  15
ATOM     15  C   UNL     1      34.569 -15.344 -22.281  0.00  0.00    -0.053 C 
BRANCH  15  17
ATOM     16  N   UNL     1      33.336 -13.732 -25.455  0.00  0.00    -0.243 NA
ATOM     17  C   UNL     1      34.144 -14.284 -23.262  0.00  0.00    -0.025 C 
ATOM     18  C   UNL     1      34.164 -12.951 -22.902  0.00  0.00    -0.003 C 
ATOM     19  C   UNL     1      33.765 -11.995 -23.829  0.00  0.00    +0.019 C 
ATOM     20  C   UNL     1      33.730 -14.632 -24.527  0.00  0.00    +0.092 C 
ATOM     21  C   UNL     1      33.363 -12.433 -25.081  0.00  0.00    +0.099 C 
BRANCH  19  23
ATOM     22  F   UNL     1      33.786  -6.567 -22.552  0.00  0.00    -0.204 F 
ATOM     23  C   UNL     1      33.769 -10.589 -23.499  0.00  0.00    +0.002 C 
ATOM     24  C   UNL     1      34.786  -9.761 -23.978  0.00  0.00    +0.002 C 
ATOM     25  C   UNL     1      32.759 -10.054 -22.698  0.00  0.00    +0.002 C 
ATOM     26  C   UNL     1      34.792  -8.403 -23.658  0.00  0.00    +0.030 C 
ATOM     27  C   UNL     1      32.764  -8.696 -22.378  0.00  0.00    +0.030 C 
ATOM     28  C   UNL     1      33.781  -7.871 -22.858  0.00  0.00    +0.140 C 
ENDBRANCH  19  23
ENDBRANCH  15  17
ENDBRANCH   1  15
TORSDOF 5
ENDMDL
MODEL 3
REMARK VINA RESULT:     -11.8      3.877     10.043
REMARK  Name = 6918388
REMARK  5 active torsions:
REMARK  status: ('A' for Active; 'I' for Inactive)
REMARK    1  A    between atoms: N_1  and  C_4
REMARK    2  A    between atoms: N_1  and  C_15
REMARK    3  A    between atoms: C_4  and  C_6
REMARK    4  A    between atoms: C_15  and  C_17
REMARK    5  A    between atoms: C_19  and  C_23
REMARK                            x       y       z     vdW  Elec       q    Type
REMARK                         _______ _______ _______ _____ _____    ______ ____
ROOT
ATOM      1  N   UNL     1      33.285 -13.545 -23.278  0.00  0.00    +0.389 N 
ATOM      2  H   UNL     1      32.637 -14.274 -23.570  0.00  0.00    -0.084 HD
ATOM      3  H   UNL     1      32.938 -13.070 -22.444  0.00  0.00    -0.084 HD
ENDROOT
BRANCH   1   4
ATOM      4  C   UNL     1      33.415 -12.566 -24.348  0.00  0.00    -0.037 C 
BRANCH   4   6
ATOM      5  O   UNL     1      32.962 -10.520 -23.213  0.00  0.00    -0.482 OA
ATOM      6  C   UNL     1      34.021 -11.268 -23.830  0.00  0.00    +0.145 C 
ATOM      7  C   UNL     1      34.669 -10.478 -24.966  0.00  0.00    +0.046 C 
ATOM      8  C   UNL     1      35.307  -9.217 -24.398  0.00  0.00    +0.033 C 
ATOM      9  C   UNL     1      34.368  -8.537 -23.443  0.00  0.00    +0.012 C 
ATOM     10  C   UNL     1      33.271  -9.221 -22.903  0.00  0.00    +0.134 C 
ATOM     11  C   UNL     1      34.601  -7.209 -23.061  0.00  0.00    -0.001 C 
ATOM     12  C   UNL     1      32.398  -8.571 -22.027  0.00  0.00    +0.037 C 
ATOM     13  C   UNL     1      33.735  -6.567 -22.175  0.00  0.00    -0.000 C 
ATOM     14  C   UNL     1      32.633  -7.247 -21.662  0.00  0.00    +0.003 C 
ENDBRANCH   4   6
ENDBRANCH   1   4
BRANCH   1  15
ATOM     15  C   UNL     1      34.573 -14.149 -22.964  0.00  0.00    -0.053 C 
BRANCH  15  17
ATOM     16  N   UNL     1      34.145 -17.457 -24.716  0.00  0.00    -0.243 NA
ATOM     17  C   UNL     1      34.572 -15.634 -23.212  0.00  0.00    -0.025 C 
ATOM     18  C   UNL     1      34.976 -16.507 -22.222  0.00  0.00    -0.003 C 
ATOM     19  C   UNL     1      34.965 -17.873 -22.480  0.00  0.00    +0.019 C 
ATOM     20  C   UNL     1      34.169 -16.136 -24.428  0.00  0.00    +0.092 C 
ATOM     21  C   UNL     1      34.545 -18.293 -23.732  0.00  0.00    +0.099 C 
BRANCH  19  23
ATOM     22  F   UNL     1      36.567 -21.552 -18.608  0.00  0.00    -0.204 F 
ATOM     23  C   UNL     1      35.379 -18.825 -21.476  0.00  0.00    +0.002 C 
ATOM     24  C   UNL     1      36.699 -18.832 -21.020  0.00  0.00    +0.002 C 
ATOM     25  C   UNL     1      34.463 -19.743 -20.961  0.00  0.00    +0.002 C 
ATOM     26  C   UNL     1      37.100 -19.752 -20.051  0.00  0.00    +0.030 C 
ATOM     27  C   UNL     1      34.864 -20.664 -19.992  0.00  0.00    +0.030 C 
ATOM     28  C   UNL     1      36.182 -20.668 -19.538  0.00  0.00    +0.140 C 
ENDBRANCH  19  23
ENDBRANCH  15  17
ENDBRANCH   1  15
TORSDOF 5
ENDMDL
MODEL 4
REMARK VINA RESULT:     -11.7      0.810      1.451
REMARK  Name = 6918388
REMARK  5 active torsions:
REMARK  status: ('A' for Active; 'I' for Inactive)
REMARK    1  A    between atoms: N_1  and  C_4
REMARK    2  A    between atoms: N_1  and  C_15
REMARK    3  A    between atoms: C_4  and  C_6
REMARK    4  A    between atoms: C_15  and  C_17
REMARK    5  A    between atoms: C_19  and  C_23
REMARK                            x       y       z     vdW  Elec       q    Type
REMARK                         _______ _______ _______ _____ _____    ______ ____
ROOT
ATOM      1  N   UNL     1      35.648 -17.395 -22.896  0.00  0.00    +0.389 N 
ATOM      2  H   UNL     1      35.819 -17.140 -23.867  0.00  0.00    -0.084 HD
ATOM      3  H   UNL     1      36.497 -17.767 -22.469  0.00  0.00    -0.084 HD
ENDROOT
BRANCH   1   4
ATOM      4  C   UNL     1      34.616 -18.421 -22.847  0.00  0.00    -0.037 C 
BRANCH   4   6
ATOM      5  O   UNL     1      33.851 -19.824 -21.079  0.00  0.00    -0.482 OA
ATOM      6  C   UNL     1      35.003 -19.539 -21.886  0.00  0.00    +0.145 C 
ATOM      7  C   UNL     1      36.196 -19.127 -21.025  0.00  0.00    +0.046 C 
ATOM      8  C   UNL     1      36.583 -20.289 -20.119  0.00  0.00    +0.033 C 
ATOM      9  C   UNL     1      35.361 -20.888 -19.483  0.00  0.00    +0.012 C 
ATOM     10  C   UNL     1      34.084 -20.635 -19.998  0.00  0.00    +0.134 C 
ATOM     11  C   UNL     1      35.495 -21.736 -18.375  0.00  0.00    -0.001 C 
ATOM     12  C   UNL     1      32.955 -21.188 -19.388  0.00  0.00    +0.037 C 
ATOM     13  C   UNL     1      34.368 -22.298 -17.775  0.00  0.00    -0.000 C 
ATOM     14  C   UNL     1      33.099 -22.021 -18.279  0.00  0.00    +0.003 C 
ENDBRANCH   4   6
ENDBRANCH   1   4
BRANCH   1  15
ATOM     15  C   UNL     1      35.239 -16.209 -22.155  0.00  0.00    -0.053 C 
BRANCH  15  17
ATOM     16  N   UNL     1      33.707 -14.632 -25.215  0.00  0.00    -0.243 NA
ATOM     17  C   UNL     1      34.542 -15.209 -23.038  0.00  0.00    -0.025 C 
ATOM     18  C   UNL     1      34.111 -14.002 -22.522  0.00  0.00    -0.003 C 
ATOM     19  C   UNL     1      33.469 -13.099 -23.360  0.00  0.00    +0.019 C 
ATOM     20  C   UNL     1      34.326 -15.485 -24.369  0.00  0.00    +0.092 C 
ATOM     21  C   UNL     1      33.293 -13.458 -24.688  0.00  0.00    +0.099 C 
BRANCH  19  23
ATOM     22  F   UNL     1      31.654  -8.183 -21.453  0.00  0.00    -0.204 F 
ATOM     23  C   UNL     1      33.001 -11.825 -22.866  0.00  0.00    +0.002 C 
ATOM     24  C   UNL     1      32.095 -11.777 -21.804  0.00  0.00    +0.002 C 
ATOM     25  C   UNL     1      33.449 -10.639 -23.449  0.00  0.00    +0.002 C 
ATOM     26  C   UNL     1      31.641 -10.547 -21.327  0.00  0.00    +0.030 C 
ATOM     27  C   UNL     1      32.994  -9.409 -22.972  0.00  0.00    +0.030 C 
ATOM     28  C   UNL     1      32.090  -9.364 -21.912  0.00  0.00    +0.140 C 
ENDBRANCH  19  23
ENDBRANCH  15  17
ENDBRANCH   1  15
TORSDOF 5
ENDMDL
MODEL 5
REMARK VINA RESULT:     -11.7      3.865      9.675
REMARK  Name = 6918388
REMARK  5 active torsions:
REMARK  status: ('A' for Active; 'I' for Inactive)
REMARK    1  A    between atoms: N_1  and  C_4
REMARK    2  A    between atoms: N_1  and  C_15
REMARK    3  A    between atoms: C_4  and  C_6
REMARK    4  A    between atoms: C_15  and  C_17
REMARK    5  A    between atoms: C_19  and  C_23
REMARK                            x       y       z     vdW  Elec       q    Type
REMARK                         _______ _______ _______ _____ _____    ______ ____
ROOT
ATOM      1  N   UNL     1      33.252 -13.193 -21.558  0.00  0.00    +0.389 N 
ATOM      2  H   UNL     1      33.074 -14.114 -21.160  0.00  0.00    -0.084 HD
ATOM      3  H   UNL     1      33.616 -12.561 -20.845  0.00  0.00    -0.084 HD
ENDROOT
BRANCH   1   4
ATOM      4  C   UNL     1      32.004 -12.646 -22.071  0.00  0.00    -0.037 C 
BRANCH   4   6
ATOM      5  O   UNL     1      32.397 -10.295 -22.063  0.00  0.00    -0.482 OA
ATOM      6  C   UNL     1      31.665 -11.328 -21.386  0.00  0.00    +0.145 C 
ATOM      7  C   UNL     1      32.020 -11.378 -19.901  0.00  0.00    +0.046 C 
ATOM      8  C   UNL     1      31.616 -10.064 -19.245  0.00  0.00    +0.033 C 
ATOM      9  C   UNL     1      32.052  -8.900 -20.089  0.00  0.00    +0.012 C 
ATOM     10  C   UNL     1      32.402  -9.077 -21.434  0.00  0.00    +0.134 C 
ATOM     11  C   UNL     1      32.086  -7.612 -19.538  0.00  0.00    -0.001 C 
ATOM     12  C   UNL     1      32.819  -7.987 -22.202  0.00  0.00    +0.037 C 
ATOM     13  C   UNL     1      32.490  -6.523 -20.311  0.00  0.00    -0.000 C 
ATOM     14  C   UNL     1      32.860  -6.712 -21.641  0.00  0.00    +0.003 C 
ENDBRANCH   4   6
ENDBRANCH   1   4
BRANCH   1  15
ATOM     15  C   UNL     1      34.243 -13.315 -22.618  0.00  0.00    -0.053 C 
BRANCH  15  17
ATOM     16  N   UNL     1      34.176 -16.319 -24.891  0.00  0.00    -0.243 NA
ATOM     17  C   UNL     1      34.381 -14.735 -23.098  0.00  0.00    -0.025 C 
ATOM     18  C   UNL     1      34.818 -15.723 -22.237  0.00  0.00    -0.003 C 
ATOM     19  C   UNL     1      34.936 -17.026 -22.708  0.00  0.00    +0.019 C 
ATOM     20  C   UNL     1      34.074 -15.064 -24.398  0.00  0.00    +0.092 C 
ATOM     21  C   UNL     1      34.606 -17.269 -24.032  0.00  0.00    +0.099 C 
BRANCH  19  23
ATOM     22  F   UNL     1      36.679 -21.143 -19.376  0.00  0.00    -0.204 F 
ATOM     23  C   UNL     1      35.388 -18.092 -21.846  0.00  0.00    +0.002 C 
ATOM     24  C   UNL     1      34.515 -19.122 -21.490  0.00  0.00    +0.002 C 
ATOM     25  C   UNL     1      36.698 -18.096 -21.364  0.00  0.00    +0.002 C 
ATOM     26  C   UNL     1      34.951 -20.152 -20.656  0.00  0.00    +0.030 C 
ATOM     27  C   UNL     1      37.134 -19.126 -20.530  0.00  0.00    +0.030 C 
ATOM     28  C   UNL     1      36.260 -20.154 -20.176  0.00  0.00    +0.140 C 
ENDBRANCH  19  23
ENDBRANCH  15  17
ENDBRANCH   1  15
TORSDOF 5
ENDMDL
MODEL 6
REMARK VINA RESULT:     -11.6      3.454      9.214
REMARK  Name = 6918388
REMARK  5 active torsions:
REMARK  status: ('A' for Active; 'I' for Inactive)
REMARK    1  A    between atoms: N_1  and  C_4
REMARK    2  A    between atoms: N_1  and  C_15
REMARK    3  A    between atoms: C_4  and  C_6
REMARK    4  A    between atoms: C_15  and  C_17
REMARK    5  A    between atoms: C_19  and  C_23
REMARK                            x       y       z     vdW  Elec       q    Type
REMARK                         _______ _______ _______ _____ _____    ______ ____
ROOT
ATOM      1  N   UNL     1      35.201 -16.042 -23.345  0.00  0.00    +0.389 N 
ATOM      2  H   UNL     1      36.204 -15.866 -23.329  0.00  0.00    -0.084 HD
ATOM      3  H   UNL     1      34.768 -15.568 -24.138  0.00  0.00    -0.084 HD
ENDROOT
BRANCH   1   4
ATOM      4  C   UNL     1      34.607 -15.530 -22.118  0.00  0.00    -0.037 C 
BRANCH   4   6
ATOM      5  O   UNL     1      33.250 -13.726 -21.354  0.00  0.00    -0.482 OA
ATOM      6  C   UNL     1      34.355 -14.031 -22.218  0.00  0.00    +0.145 C 
ATOM      7  C   UNL     1      34.061 -13.623 -23.661  0.00  0.00    +0.046 C 
ATOM      8  C   UNL     1      33.869 -12.113 -23.724  0.00  0.00    +0.033 C 
ATOM      9  C   UNL     1      32.975 -11.650 -22.609  0.00  0.00    +0.012 C 
ATOM     10  C   UNL     1      32.729 -12.466 -21.498  0.00  0.00    +0.134 C 
ATOM     11  C   UNL     1      32.398 -10.374 -22.662  0.00  0.00    -0.001 C 
ATOM     12  C   UNL     1      31.884 -12.027 -20.475  0.00  0.00    +0.037 C 
ATOM     13  C   UNL     1      31.566  -9.933 -21.633  0.00  0.00    -0.000 C 
ATOM     14  C   UNL     1      31.306 -10.761 -20.543  0.00  0.00    +0.003 C 
ENDBRANCH   4   6
ENDBRANCH   1   4
BRANCH   1  15
ATOM     15  C   UNL     1      34.969 -17.474 -23.479  0.00  0.00    -0.053 C 
BRANCH  15  17
ATOM     16  N   UNL     1      37.571 -18.821 -21.110  0.00  0.00    -0.243 NA
ATOM     17  C   UNL     1      35.596 -18.252 -22.353  0.00  0.00    -0.025 C 
ATOM     18  C   UNL     1      34.824 -19.076 -21.558  0.00  0.00    -0.003 C 
ATOM     19  C   UNL     1      35.430 -19.781 -20.525  0.00  0.00    +0.019 C 
ATOM     20  C   UNL     1      36.946 -18.151 -22.104  0.00  0.00    +0.092 C 
ATOM     21  C   UNL     1      36.795 -19.621 -20.344  0.00  0.00    +0.099 C 
BRANCH  19  23
ATOM     22  F   UNL     1      32.467 -23.147 -17.211  0.00  0.00    -0.204 F 
ATOM     23  C   UNL     1      34.663 -20.654 -19.668  0.00  0.00    +0.002 C 
ATOM     24  C   UNL     1      33.268 -20.604 -19.686  0.00  0.00    +0.002 C 
ATOM     25  C   UNL     1      35.314 -21.548 -18.816  0.00  0.00    +0.002 C 
ATOM     26  C   UNL     1      32.527 -21.446 -18.857  0.00  0.00    +0.030 C 
ATOM     27  C   UNL     1      34.572 -22.390 -17.986  0.00  0.00    +0.030 C 
ATOM     28  C   UNL     1      33.179 -22.338 -18.007  0.00  0.00    +0.140 C 
ENDBRANCH  19  23
ENDBRANCH  15  17
ENDBRANCH   1  15
TORSDOF 5
ENDMDL
MODEL 7
REMARK VINA RESULT:     -11.4      3.661      9.500
REMARK  Name = 6918388
REMARK  5 active torsions:
REMARK  status: ('A' for Active; 'I' for Inactive)
REMARK    1  A    between atoms: N_1  and  C_4
REMARK    2  A    between atoms: N_1  and  C_15
REMARK    3  A    between atoms: C_4  and  C_6
REMARK    4  A    between atoms: C_15  and  C_17
REMARK    5  A    between atoms: C_19  and  C_23
REMARK                            x       y       z     vdW  Elec       q    Type
REMARK                         _______ _______ _______ _____ _____    ______ ____
ROOT
ATOM      1  N   UNL     1      34.212 -14.532 -22.377  0.00  0.00    +0.389 N 
ATOM      2  H   UNL     1      33.649 -15.141 -21.785  0.00  0.00    -0.084 HD
ATOM      3  H   UNL     1      34.648 -13.796 -21.820  0.00  0.00    -0.084 HD
ENDROOT
BRANCH   1   4
ATOM      4  C   UNL     1      33.355 -13.911 -23.376  0.00  0.00    -0.037 C 
BRANCH   4   6
ATOM      5  O   UNL     1      33.211 -11.538 -23.208  0.00  0.00    -0.482 OA
ATOM      6  C   UNL     1      32.572 -12.749 -22.778  0.00  0.00    +0.145 C 
ATOM      7  C   UNL     1      32.534 -12.846 -21.254  0.00  0.00    +0.046 C 
ATOM      8  C   UNL     1      31.699 -11.699 -20.700  0.00  0.00    +0.033 C 
ATOM      9  C   UNL     1      32.074 -10.406 -21.368  0.00  0.00    +0.012 C 
ATOM     10  C   UNL     1      32.789 -10.399 -22.572  0.00  0.00    +0.134 C 
ATOM     11  C   UNL     1      31.684  -9.187 -20.798  0.00  0.00    -0.001 C 
ATOM     12  C   UNL     1      33.143  -9.189 -23.174  0.00  0.00    +0.037 C 
ATOM     13  C   UNL     1      32.026  -7.980 -21.408  0.00  0.00    -0.000 C 
ATOM     14  C   UNL     1      32.759  -7.982 -22.593  0.00  0.00    +0.003 C 
ENDBRANCH   4   6
ENDBRANCH   1   4
BRANCH   1  15
ATOM     15  C   UNL     1      35.263 -15.319 -23.007  0.00  0.00    -0.053 C 
BRANCH  15  17
ATOM     16  N   UNL     1      34.118 -18.621 -24.414  0.00  0.00    -0.243 NA
ATOM     17  C   UNL     1      34.900 -16.778 -23.088  0.00  0.00    -0.025 C 
ATOM     18  C   UNL     1      35.005 -17.586 -21.974  0.00  0.00    -0.003 C 
ATOM     19  C   UNL     1      34.664 -18.930 -22.079  0.00  0.00    +0.019 C 
ATOM     20  C   UNL     1      34.459 -17.321 -24.273  0.00  0.00    +0.092 C 
ATOM     21  C   UNL     1      34.229 -19.394 -23.311  0.00  0.00    +0.099 C 
BRANCH  19  23
ATOM     22  F   UNL     1      35.023 -22.342 -17.684  0.00  0.00    -0.204 F 
ATOM     23  C   UNL     1      34.758 -19.814 -20.942  0.00  0.00    +0.002 C 
ATOM     24  C   UNL     1      33.598 -20.328 -20.357  0.00  0.00    +0.002 C 
ATOM     25  C   UNL     1      36.006 -20.157 -20.421  0.00  0.00    +0.002 C 
ATOM     26  C   UNL     1      33.688 -21.181 -19.257  0.00  0.00    +0.030 C 
ATOM     27  C   UNL     1      36.096 -21.010 -19.321  0.00  0.00    +0.030 C 
ATOM     28  C   UNL     1      34.937 -21.522 -18.740  0.00  0.00    +0.140 C 
ENDBRANCH  19  23
ENDBRANCH  15  17
ENDBRANCH   1  15
TORSDOF 5
ENDMDL
MODEL 8
REMARK VINA RESULT:     -11.1      1.421      2.398
REMARK  Name = 6918388
REMARK  5 active torsions:
REMARK  status: ('A' for Active; 'I' for Inactive)
REMARK    1  A    between atoms: N_1  and  C_4
REMARK    2  A    between atoms: N_1  and  C_15
REMARK    3  A    between atoms: C_4  and  C_6
REMARK    4  A    between atoms: C_15  and  C_17
REMARK    5  A    between atoms: C_19  and  C_23
REMARK                            x       y       z     vdW  Elec       q    Type
REMARK                         _______ _______ _______ _____ _____    ______ ____
ROOT
ATOM      1  N   UNL     1      35.290 -17.032 -23.787  0.00  0.00    +0.389 N 
ATOM      2  H   UNL     1      36.001 -17.254 -24.483  0.00  0.00    -0.084 HD
ATOM      3  H   UNL     1      35.720 -16.872 -22.876  0.00  0.00    -0.084 HD
ENDROOT
BRANCH   1   4
ATOM      4  C   UNL     1      34.367 -18.152 -23.674  0.00  0.00    -0.037 C 
BRANCH   4   6
ATOM      5  O   UNL     1      33.778 -19.493 -21.793  0.00  0.00    -0.482 OA
ATOM      6  C   UNL     1      34.873 -19.177 -22.666  0.00  0.00    +0.145 C 
ATOM      7  C   UNL     1      36.066 -18.628 -21.885  0.00  0.00    +0.046 C 
ATOM      8  C   UNL     1      36.573 -19.700 -20.928  0.00  0.00    +0.033 C 
ATOM      9  C   UNL     1      35.425 -20.344 -20.205  0.00  0.00    +0.012 C 
ATOM     10  C   UNL     1      34.113 -20.215 -20.677  0.00  0.00    +0.134 C 
ATOM     11  C   UNL     1      35.665 -21.108 -19.055  0.00  0.00    -0.001 C 
ATOM     12  C   UNL     1      33.054 -20.809 -19.986  0.00  0.00    +0.037 C 
ATOM     13  C   UNL     1      34.608 -21.711 -18.374  0.00  0.00    -0.000 C 
ATOM     14  C   UNL     1      33.303 -21.558 -18.837  0.00  0.00    +0.003 C 
ENDBRANCH   4   6
ENDBRANCH   1   4
BRANCH   1  15
ATOM     15  C   UNL     1      34.591 -15.819 -24.189  0.00  0.00    -0.053 C 
BRANCH  15  17
ATOM     16  N   UNL     1      34.345 -14.587 -20.637  0.00  0.00    -0.243 NA
ATOM     17  C   UNL     1      34.289 -14.928 -23.014  0.00  0.00    -0.025 C 
ATOM     18  C   UNL     1      33.706 -13.691 -23.206  0.00  0.00    -0.003 C 
ATOM     19  C   UNL     1      33.440 -12.891 -22.102  0.00  0.00    +0.019 C 
ATOM     20  C   UNL     1      34.590 -15.337 -21.735  0.00  0.00    +0.092 C 
ATOM     21  C   UNL     1      33.775 -13.380 -20.849  0.00  0.00    +0.099 C 
BRANCH  19  23
ATOM     22  F   UNL     1      31.099  -7.863 -22.686  0.00  0.00    -0.204 F 
ATOM     23  C   UNL     1      32.832 -11.589 -22.254  0.00  0.00    +0.002 C 
ATOM     24  C   UNL     1      33.309 -10.703 -23.221  0.00  0.00    +0.002 C 
ATOM     25  C   UNL     1      31.769 -11.212 -21.432  0.00  0.00    +0.002 C 
ATOM     26  C   UNL     1      32.724  -9.445 -23.367  0.00  0.00    +0.030 C 
ATOM     27  C   UNL     1      31.183  -9.954 -21.578  0.00  0.00    +0.030 C 
ATOM     28  C   UNL     1      31.661  -9.071 -22.545  0.00  0.00    +0.140 C 
ENDBRANCH  19  23
ENDBRANCH  15  17
ENDBRANCH   1  15
TORSDOF 5
ENDMDL
MODEL 9
REMARK VINA RESULT:     -11.0      4.529      7.463
REMARK  Name = 6918388
REMARK  5 active torsions:
REMARK  status: ('A' for Active; 'I' for Inactive)
REMARK    1  A    between atoms: N_1  and  C_4
REMARK    2  A    between atoms: N_1  and  C_15
REMARK    3  A    between atoms: C_4  and  C_6
REMARK    4  A    between atoms: C_15  and  C_17
REMARK    5  A    between atoms: C_19  and  C_23
REMARK                            x       y       z     vdW  Elec       q    Type
REMARK                         _______ _______ _______ _____ _____    ______ ____
ROOT
ATOM      1  N   UNL     1      33.154 -23.164 -17.650  0.00  0.00    +0.389 N 
ATOM      2  H   UNL     1      32.966 -23.984 -18.225  0.00  0.00    -0.084 HD
ATOM      3  H   UNL     1      34.141 -23.124 -17.396  0.00  0.00    -0.084 HD
ENDROOT
BRANCH   1   4
ATOM      4  C   UNL     1      32.363 -23.247 -16.430  0.00  0.00    -0.037 C 
BRANCH   4   6
ATOM      5  O   UNL     1      34.570 -23.641 -15.620  0.00  0.00    -0.482 OA
ATOM      6  C   UNL     1      33.259 -23.236 -15.198  0.00  0.00    +0.145 C 
ATOM      7  C   UNL     1      32.711 -24.169 -14.119  0.00  0.00    +0.046 C 
ATOM      8  C   UNL     1      33.604 -24.088 -12.887  0.00  0.00    +0.033 C 
ATOM      9  C   UNL     1      35.051 -24.156 -13.283  0.00  0.00    +0.012 C 
ATOM     10  C   UNL     1      35.448 -23.921 -14.605  0.00  0.00    +0.134 C 
ATOM     11  C   UNL     1      36.027 -24.431 -12.316  0.00  0.00    -0.001 C 
ATOM     12  C   UNL     1      36.796 -24.001 -14.961  0.00  0.00    +0.037 C 
ATOM     13  C   UNL     1      37.375 -24.497 -12.670  0.00  0.00    -0.000 C 
ATOM     14  C   UNL     1      37.758 -24.286 -13.993  0.00  0.00    +0.003 C 
ENDBRANCH   4   6
ENDBRANCH   1   4
BRANCH   1  15
ATOM     15  C   UNL     1      32.821 -21.964 -18.406  0.00  0.00    -0.053 C 
BRANCH  15  17
ATOM     16  N   UNL     1      36.432 -21.160 -19.123  0.00  0.00    -0.243 NA
ATOM     17  C   UNL     1      34.039 -21.343 -19.038  0.00  0.00    -0.025 C 
ATOM     18  C   UNL     1      33.903 -20.428 -20.063  0.00  0.00    -0.003 C 
ATOM     19  C   UNL     1      35.045 -19.872 -20.627  0.00  0.00    +0.019 C 
ATOM     20  C   UNL     1      35.299 -21.680 -18.600  0.00  0.00    +0.092 C 
ATOM     21  C   UNL     1      36.276 -20.267 -20.126  0.00  0.00    +0.099 C 
BRANCH  19  23
ATOM     22  F   UNL     1      34.691 -16.160 -24.773  0.00  0.00    -0.204 F 
ATOM     23  C   UNL     1      34.954 -18.911 -21.702  0.00  0.00    +0.002 C 
ATOM     24  C   UNL     1      35.442 -17.615 -21.525  0.00  0.00    +0.002 C 
ATOM     25  C   UNL     1      34.377 -19.274 -22.920  0.00  0.00    +0.002 C 
ATOM     26  C   UNL     1      35.353 -16.686 -22.562  0.00  0.00    +0.030 C 
ATOM     27  C   UNL     1      34.288 -18.345 -23.957  0.00  0.00    +0.030 C 
ATOM     28  C   UNL     1      34.776 -17.052 -23.777  0.00  0.00    +0.140 C 
ENDBRANCH  19  23
ENDBRANCH  15  17
ENDBRANCH   1  15
TORSDOF 5
ENDMDL
