MODEL 1
REMARK VINA RESULT:     -11.1      0.000      0.000
REMARK  Name = 11476460
REMARK  8 active torsions:
REMARK  status: ('A' for Active; 'I' for Inactive)
REMARK    1  A    between atoms: C_2  and  N_10
REMARK    2  A    between atoms: C_5  and  C_23
REMARK    3  A    between atoms: C_11  and  C_14
REMARK    4  A    between atoms: C_14  and  O_15
REMARK    5  A    between atoms: O_15  and  P_16
REMARK    6  A    between atoms: P_16  and  O_18
REMARK    7  A    between atoms: P_16  and  O_20
REMARK    8  A    between atoms: C_27  and  C_32
REMARK                            x       y       z     vdW  Elec       q    Type
REMARK                         _______ _______ _______ _____ _____    ______ ____
ROOT
ATOM      1  F   UNL     1      33.178 -22.449 -17.929  0.00  0.00    -0.204 F 
ATOM      2  C   UNL     1      35.941 -23.157 -15.669  0.00  0.00    +0.059 C 
ATOM      3  C   UNL     1      34.666 -23.166 -16.242  0.00  0.00    +0.045 C 
ATOM      4  C   UNL     1      36.958 -22.402 -16.264  0.00  0.00    +0.015 C 
ATOM      5  C   UNL     1      35.426 -21.677 -17.986  0.00  0.00    +0.029 C 
ATOM      6  C   UNL     1      34.408 -22.428 -17.397  0.00  0.00    +0.141 C 
ATOM      7  C   UNL     1      36.701 -21.664 -17.419  0.00  0.00    +0.004 C 
ENDROOT
BRANCH   2  10
ATOM      8  O   UNL     1      36.434 -25.617 -13.031  0.00  0.00    -0.434 OA
ATOM      9  O   UNL     1      35.739 -26.143 -15.125  0.00  0.00    -0.226 OA
ATOM     10  N   UNL     1      36.204 -23.910 -14.491  0.00  0.00    -0.221 N 
ATOM     11  C   UNL     1      37.000 -24.466 -12.389  0.00  0.00    +0.221 C 
ATOM     12  C   UNL     1      36.529 -23.299 -13.230  0.00  0.00    +0.148 C 
ATOM     13  C   UNL     1      36.095 -25.289 -14.324  0.00  0.00    +0.409 C 
BRANCH  11  14
ATOM     14  C   UNL     1      38.515 -24.614 -12.363  0.00  0.00    +0.199 C 
BRANCH  14  15
ATOM     15  O   UNL     1      38.861 -25.847 -12.968  0.00  0.00    -0.269 OA
BRANCH  15  16
ATOM     16  P   UNL     1      39.739 -25.821 -14.328  0.00  0.00    +0.473 P 
ATOM     17  O   UNL     1      41.174 -26.231 -14.165  0.00  0.00    -0.227 OA
BRANCH  16  18
ATOM     18  O   UNL     1      39.509 -24.328 -14.906  0.00  0.00    -0.303 OA
ATOM     19  H   UNL     1      39.740 -24.307 -15.848  0.00  0.00    +0.222 HD
ENDBRANCH  16  18
BRANCH  16  20
ATOM     20  O   UNL     1      38.874 -26.746 -15.335  0.00  0.00    -0.303 OA
ATOM     21  H   UNL     1      37.996 -26.353 -15.460  0.00  0.00    +0.222 HD
ENDBRANCH  16  20
ENDBRANCH  15  16
ENDBRANCH  14  15
ENDBRANCH  11  14
ENDBRANCH   2  10
BRANCH   5  23
ATOM     22  N   UNL     1      36.017 -19.553 -20.991  0.00  0.00    -0.234 NA
ATOM     23  C   UNL     1      35.164 -20.908 -19.183  0.00  0.00    +0.021 C 
ATOM     24  C   UNL     1      33.873 -20.771 -19.675  0.00  0.00    +0.004 C 
ATOM     25  C   UNL     1      36.192 -20.286 -19.869  0.00  0.00    +0.100 C 
ATOM     26  C   UNL     1      33.652 -20.024 -20.827  0.00  0.00    +0.029 C 
ATOM     27  C   UNL     1      34.748 -19.441 -21.443  0.00  0.00    +0.146 C 
BRANCH  27  32
ATOM     28  N   UNL     1      34.875 -17.360 -22.707  0.00  0.00    -0.105 NA
ATOM     29  N   UNL     1      34.540 -17.136 -23.986  0.00  0.00    -0.113 N 
ATOM     30  N   UNL     1      34.094 -19.188 -23.791  0.00  0.00    -0.085 NA
ATOM     31  N   UNL     1      34.073 -18.191 -24.667  0.00  0.00    -0.018 NA
ATOM     32  C   UNL     1      34.578 -18.659 -22.633  0.00  0.00    +0.092 C 
ATOM     33  C   UNL     1      34.675 -15.837 -24.593  0.00  0.00    +0.163 C 
ENDBRANCH  27  32
ENDBRANCH   5  23
TORSDOF 8
ENDMDL
MODEL 2
REMARK VINA RESULT:     -10.7      7.042     11.062
REMARK  Name = 11476460
REMARK  8 active torsions:
REMARK  status: ('A' for Active; 'I' for Inactive)
REMARK    1  A    between atoms: C_2  and  N_10
REMARK    2  A    between atoms: C_5  and  C_23
REMARK    3  A    between atoms: C_11  and  C_14
REMARK    4  A    between atoms: C_14  and  O_15
REMARK    5  A    between atoms: O_15  and  P_16
REMARK    6  A    between atoms: P_16  and  O_18
REMARK    7  A    between atoms: P_16  and  O_20
REMARK    8  A    between atoms: C_27  and  C_32
REMARK                            x       y       z     vdW  Elec       q    Type
REMARK                         _______ _______ _______ _____ _____    ______ ____
ROOT
ATOM      1  F   UNL     1      33.103 -21.071 -19.571  0.00  0.00    -0.204 F 
ATOM      2  C   UNL     1      35.108 -18.934 -21.730  0.00  0.00    +0.059 C 
ATOM      3  C   UNL     1      34.012 -19.618 -21.195  0.00  0.00    +0.045 C 
ATOM      4  C   UNL     1      36.363 -19.065 -21.125  0.00  0.00    +0.015 C 
ATOM      5  C   UNL     1      35.421 -20.549 -19.468  0.00  0.00    +0.029 C 
ATOM      6  C   UNL     1      34.167 -20.423 -20.067  0.00  0.00    +0.141 C 
ATOM      7  C   UNL     1      36.519 -19.870 -19.997  0.00  0.00    +0.004 C 
ENDROOT
BRANCH   2  10
ATOM      8  O   UNL     1      34.422 -17.383 -24.951  0.00  0.00    -0.434 OA
ATOM      9  O   UNL     1      33.906 -19.536 -24.458  0.00  0.00    -0.226 OA
ATOM     10  N   UNL     1      34.949 -18.113 -22.881  0.00  0.00    -0.221 N 
ATOM     11  C   UNL     1      34.825 -16.223 -24.212  0.00  0.00    +0.221 C 
ATOM     12  C   UNL     1      35.485 -16.781 -22.969  0.00  0.00    +0.148 C 
ATOM     13  C   UNL     1      34.374 -18.464 -24.100  0.00  0.00    +0.409 C 
BRANCH  11  14
ATOM     14  C   UNL     1      33.594 -15.380 -23.909  0.00  0.00    +0.199 C 
BRANCH  14  15
ATOM     15  O   UNL     1      33.906 -14.019 -24.148  0.00  0.00    -0.269 OA
BRANCH  15  16
ATOM     16  P   UNL     1      33.749 -12.965 -22.928  0.00  0.00    +0.473 P 
ATOM     17  O   UNL     1      32.367 -12.861 -22.353  0.00  0.00    -0.227 OA
BRANCH  16  18
ATOM     18  O   UNL     1      34.354 -11.591 -23.528  0.00  0.00    -0.303 OA
ATOM     19  H   UNL     1      33.706 -10.877 -23.418  0.00  0.00    +0.222 HD
ENDBRANCH  16  18
BRANCH  16  20
ATOM     20  O   UNL     1      34.888 -13.448 -21.885  0.00  0.00    -0.303 OA
ATOM     21  H   UNL     1      34.499 -14.061 -21.243  0.00  0.00    +0.222 HD
ENDBRANCH  16  20
ENDBRANCH  15  16
ENDBRANCH  14  15
ENDBRANCH  11  14
ENDBRANCH   2  10
BRANCH   5  23
ATOM     22  N   UNL     1      34.649 -22.997 -16.765  0.00  0.00    -0.234 NA
ATOM     23  C   UNL     1      35.588 -21.385 -18.298  0.00  0.00    +0.021 C 
ATOM     24  C   UNL     1      36.784 -21.394 -17.592  0.00  0.00    +0.004 C 
ATOM     25  C   UNL     1      34.561 -22.195 -17.849  0.00  0.00    +0.100 C 
ATOM     26  C   UNL     1      36.914 -22.206 -16.471  0.00  0.00    +0.029 C 
ATOM     27  C   UNL     1      35.827 -22.982 -16.102  0.00  0.00    +0.146 C 
BRANCH  27  32
ATOM     28  N   UNL     1      35.617 -23.431 -13.715  0.00  0.00    -0.105 NA
ATOM     29  N   UNL     1      35.846 -24.576 -13.055  0.00  0.00    -0.113 N 
ATOM     30  N   UNL     1      36.284 -25.143 -15.039  0.00  0.00    -0.085 NA
ATOM     31  N   UNL     1      36.243 -25.617 -13.800  0.00  0.00    -0.018 NA
ATOM     32  C   UNL     1      35.905 -23.837 -14.953  0.00  0.00    +0.092 C 
ATOM     33  C   UNL     1      35.676 -24.682 -11.629  0.00  0.00    +0.163 C 
ENDBRANCH  27  32
ENDBRANCH   5  23
TORSDOF 8
ENDMDL
MODEL 3
REMARK VINA RESULT:     -10.4      1.543      2.114
REMARK  Name = 11476460
REMARK  8 active torsions:
REMARK  status: ('A' for Active; 'I' for Inactive)
REMARK    1  A    between atoms: C_2  and  N_10
REMARK    2  A    between atoms: C_5  and  C_23
REMARK    3  A    between atoms: C_11  and  C_14
REMARK    4  A    between atoms: C_14  and  O_15
REMARK    5  A    between atoms: O_15  and  P_16
REMARK    6  A    between atoms: P_16  and  O_18
REMARK    7  A    between atoms: P_16  and  O_20
REMARK    8  A    between atoms: C_27  and  C_32
REMARK                            x       y       z     vdW  Elec       q    Type
REMARK                         _______ _______ _______ _____ _____    ______ ____
ROOT
ATOM      1  F   UNL     1      37.607 -20.782 -17.422  0.00  0.00    -0.204 F 
ATOM      2  C   UNL     1      36.007 -23.298 -15.336  0.00  0.00    +0.059 C 
ATOM      3  C   UNL     1      36.945 -22.378 -15.813  0.00  0.00    +0.045 C 
ATOM      4  C   UNL     1      34.812 -23.491 -16.038  0.00  0.00    +0.015 C 
ATOM      5  C   UNL     1      35.500 -21.855 -17.677  0.00  0.00    +0.029 C 
ATOM      6  C   UNL     1      36.693 -21.658 -16.981  0.00  0.00    +0.141 C 
ATOM      7  C   UNL     1      34.560 -22.771 -17.206  0.00  0.00    +0.004 C 
ENDROOT
BRANCH   2  10
ATOM      8  O   UNL     1      36.012 -25.060 -12.150  0.00  0.00    -0.434 OA
ATOM      9  O   UNL     1      34.183 -24.039 -13.017  0.00  0.00    -0.226 OA
ATOM     10  N   UNL     1      36.264 -24.033 -14.145  0.00  0.00    -0.221 N 
ATOM     11  C   UNL     1      37.309 -25.439 -12.632  0.00  0.00    +0.221 C 
ATOM     12  C   UNL     1      37.578 -24.483 -13.774  0.00  0.00    +0.148 C 
ATOM     13  C   UNL     1      35.363 -24.340 -13.127  0.00  0.00    +0.409 C 
BRANCH  11  14
ATOM     14  C   UNL     1      37.265 -26.897 -13.068  0.00  0.00    +0.199 C 
BRANCH  14  15
ATOM     15  O   UNL     1      38.087 -27.053 -14.212  0.00  0.00    -0.269 OA
BRANCH  15  16
ATOM     16  P   UNL     1      37.548 -27.974 -15.430  0.00  0.00    +0.473 P 
ATOM     17  O   UNL     1      37.207 -29.386 -15.055  0.00  0.00    -0.227 OA
BRANCH  16  18
ATOM     18  O   UNL     1      38.690 -27.816 -16.564  0.00  0.00    -0.303 OA
ATOM     19  H   UNL     1      39.272 -28.593 -16.547  0.00  0.00    +0.222 HD
ENDBRANCH  16  18
BRANCH  16  20
ATOM     20  O   UNL     1      36.316 -27.107 -16.021  0.00  0.00    -0.303 OA
ATOM     21  H   UNL     1      35.481 -27.557 -15.821  0.00  0.00    +0.222 HD
ENDBRANCH  16  20
ENDBRANCH  15  16
ENDBRANCH  14  15
ENDBRANCH  11  14
ENDBRANCH   2  10
BRANCH   5  23
ATOM     22  N   UNL     1      36.087 -19.836 -20.755  0.00  0.00    -0.234 NA
ATOM     23  C   UNL     1      35.234 -21.111 -18.890  0.00  0.00    +0.021 C 
ATOM     24  C   UNL     1      33.937 -20.945 -19.356  0.00  0.00    +0.004 C 
ATOM     25  C   UNL     1      36.265 -20.543 -19.617  0.00  0.00    +0.100 C 
ATOM     26  C   UNL     1      33.712 -20.224 -20.523  0.00  0.00    +0.029 C 
ATOM     27  C   UNL     1      34.812 -19.694 -21.180  0.00  0.00    +0.146 C 
BRANCH  27  32
ATOM     28  N   UNL     1      34.952 -17.647 -22.498  0.00  0.00    -0.105 NA
ATOM     29  N   UNL     1      34.606 -17.451 -23.778  0.00  0.00    -0.113 N 
ATOM     30  N   UNL     1      34.135 -19.492 -23.527  0.00  0.00    -0.085 NA
ATOM     31  N   UNL     1      34.117 -18.517 -24.428  0.00  0.00    -0.018 NA
ATOM     32  C   UNL     1      34.639 -18.940 -22.388  0.00  0.00    +0.092 C 
ATOM     33  C   UNL     1      34.750 -16.170 -24.420  0.00  0.00    +0.163 C 
ENDBRANCH  27  32
ENDBRANCH   5  23
TORSDOF 8
ENDMDL
MODEL 4
REMARK VINA RESULT:     -10.0     13.006     16.672
REMARK  Name = 11476460
REMARK  8 active torsions:
REMARK  status: ('A' for Active; 'I' for Inactive)
REMARK    1  A    between atoms: C_2  and  N_10
REMARK    2  A    between atoms: C_5  and  C_23
REMARK    3  A    between atoms: C_11  and  C_14
REMARK    4  A    between atoms: C_14  and  O_15
REMARK    5  A    between atoms: O_15  and  P_16
REMARK    6  A    between atoms: P_16  and  O_18
REMARK    7  A    between atoms: P_16  and  O_20
REMARK    8  A    between atoms: C_27  and  C_32
REMARK                            x       y       z     vdW  Elec       q    Type
REMARK                         _______ _______ _______ _____ _____    ______ ____
ROOT
ATOM      1  F   UNL     1      31.719 -11.439 -21.728  0.00  0.00    -0.204 F 
ATOM      2  C   UNL     1      33.298  -8.371 -22.885  0.00  0.00    +0.059 C 
ATOM      3  C   UNL     1      32.421  -9.241 -22.230  0.00  0.00    +0.045 C 
ATOM      4  C   UNL     1      34.328  -8.894 -23.673  0.00  0.00    +0.015 C 
ATOM      5  C   UNL     1      33.601 -11.138 -23.150  0.00  0.00    +0.029 C 
ATOM      6  C   UNL     1      32.571 -10.622 -22.363  0.00  0.00    +0.141 C 
ATOM      7  C   UNL     1      34.478 -10.275 -23.805  0.00  0.00    +0.004 C 
ENDROOT
BRANCH   2  10
ATOM      8  O   UNL     1      33.176  -4.742 -23.159  0.00  0.00    -0.434 OA
ATOM      9  O   UNL     1      33.984  -6.099 -24.787  0.00  0.00    -0.226 OA
ATOM     10  N   UNL     1      33.144  -6.962 -22.750  0.00  0.00    -0.221 N 
ATOM     11  C   UNL     1      32.416  -4.913 -21.955  0.00  0.00    +0.221 C 
ATOM     12  C   UNL     1      32.700  -6.339 -21.532  0.00  0.00    +0.148 C 
ATOM     13  C   UNL     1      33.478  -5.980 -23.680  0.00  0.00    +0.409 C 
BRANCH  11  14
ATOM     14  C   UNL     1      30.946  -4.661 -22.263  0.00  0.00    +0.199 C 
BRANCH  14  15
ATOM     15  O   UNL     1      30.857  -3.871 -23.435  0.00  0.00    -0.269 OA
BRANCH  15  16
ATOM     16  P   UNL     1      30.763  -2.262 -23.276  0.00  0.00    +0.473 P 
ATOM     17  O   UNL     1      30.145  -1.786 -21.993  0.00  0.00    -0.227 OA
BRANCH  16  18
ATOM     18  O   UNL     1      30.010  -1.786 -24.625  0.00  0.00    -0.303 OA
ATOM     19  H   UNL     1      30.334  -0.907 -24.883  0.00  0.00    +0.222 HD
ENDBRANCH  16  18
BRANCH  16  20
ATOM     20  O   UNL     1      32.291  -1.786 -23.515  0.00  0.00    -0.303 OA
ATOM     21  H   UNL     1      32.818  -1.982 -22.725  0.00  0.00    +0.222 HD
ENDBRANCH  16  20
ENDBRANCH  15  16
ENDBRANCH  14  15
ENDBRANCH  11  14
ENDBRANCH   2  10
BRANCH   5  23
ATOM     22  N   UNL     1      33.525 -14.545 -24.661  0.00  0.00    -0.234 NA
ATOM     23  C   UNL     1      33.760 -12.570 -23.292  0.00  0.00    +0.021 C 
ATOM     24  C   UNL     1      34.274 -13.337 -22.254  0.00  0.00    +0.004 C 
ATOM     25  C   UNL     1      33.404 -13.213 -24.463  0.00  0.00    +0.100 C 
ATOM     26  C   UNL     1      34.414 -14.710 -22.419  0.00  0.00    +0.029 C 
ATOM     27  C   UNL     1      34.028 -15.261 -23.631  0.00  0.00    +0.146 C 
BRANCH  27  32
ATOM     28  N   UNL     1      34.854 -17.484 -23.065  0.00  0.00    -0.105 NA
ATOM     29  N   UNL     1      34.642 -18.644 -23.703  0.00  0.00    -0.113 N 
ATOM     30  N   UNL     1      33.549 -17.299 -24.905  0.00  0.00    -0.085 NA
ATOM     31  N   UNL     1      33.873 -18.582 -24.799  0.00  0.00    -0.018 NA
ATOM     32  C   UNL     1      34.150 -16.673 -23.856  0.00  0.00    +0.092 C 
ATOM     33  C   UNL     1      35.206 -19.885 -23.239  0.00  0.00    +0.163 C 
ENDBRANCH  27  32
ENDBRANCH   5  23
TORSDOF 8
ENDMDL
MODEL 5
REMARK VINA RESULT:      -9.9     12.729     16.551
REMARK  Name = 11476460
REMARK  8 active torsions:
REMARK  status: ('A' for Active; 'I' for Inactive)
REMARK    1  A    between atoms: C_2  and  N_10
REMARK    2  A    between atoms: C_5  and  C_23
REMARK    3  A    between atoms: C_11  and  C_14
REMARK    4  A    between atoms: C_14  and  O_15
REMARK    5  A    between atoms: O_15  and  P_16
REMARK    6  A    between atoms: P_16  and  O_18
REMARK    7  A    between atoms: P_16  and  O_20
REMARK    8  A    between atoms: C_27  and  C_32
REMARK                            x       y       z     vdW  Elec       q    Type
REMARK                         _______ _______ _______ _____ _____    ______ ____
ROOT
ATOM      1  F   UNL     1      34.954 -10.090 -24.222  0.00  0.00    -0.204 F 
ATOM      2  C   UNL     1      32.391  -8.030 -22.663  0.00  0.00    +0.059 C 
ATOM      3  C   UNL     1      33.527  -8.405 -23.387  0.00  0.00    +0.045 C 
ATOM      4  C   UNL     1      31.589  -9.017 -22.080  0.00  0.00    +0.015 C 
ATOM      5  C   UNL     1      33.057 -10.732 -22.942  0.00  0.00    +0.029 C 
ATOM      6  C   UNL     1      33.860  -9.752 -23.526  0.00  0.00    +0.141 C 
ATOM      7  C   UNL     1      31.922 -10.364 -22.218  0.00  0.00    +0.004 C 
ENDROOT
BRANCH   2  10
ATOM      8  O   UNL     1      31.765  -4.583 -21.672  0.00  0.00    -0.434 OA
ATOM      9  O   UNL     1      32.694  -6.135 -20.304  0.00  0.00    -0.226 OA
ATOM     10  N   UNL     1      32.051  -6.655 -22.521  0.00  0.00    -0.221 N 
ATOM     11  C   UNL     1      31.479  -4.481 -23.074  0.00  0.00    +0.221 C 
ATOM     12  C   UNL     1      31.346  -5.917 -23.534  0.00  0.00    +0.148 C 
ATOM     13  C   UNL     1      32.233  -5.849 -21.400  0.00  0.00    +0.409 C 
BRANCH  11  14
ATOM     14  C   UNL     1      32.619  -3.737 -23.756  0.00  0.00    +0.199 C 
BRANCH  14  15
ATOM     15  O   UNL     1      32.582  -4.023 -25.143  0.00  0.00    -0.269 OA
BRANCH  15  16
ATOM     16  P   UNL     1      33.983  -4.139 -25.946  0.00  0.00    +0.473 P 
ATOM     17  O   UNL     1      34.962  -5.122 -25.374  0.00  0.00    -0.227 OA
BRANCH  16  18
ATOM     18  O   UNL     1      34.505  -2.611 -26.029  0.00  0.00    -0.303 OA
ATOM     19  H   UNL     1      33.968  -2.053 -25.444  0.00  0.00    +0.222 HD
ENDBRANCH  16  18
BRANCH  16  20
ATOM     20  O   UNL     1      33.506  -4.451 -27.460  0.00  0.00    -0.303 OA
ATOM     21  H   UNL     1      34.149  -5.041 -27.885  0.00  0.00    +0.222 HD
ENDBRANCH  16  20
ENDBRANCH  15  16
ENDBRANCH  14  15
ENDBRANCH  11  14
ENDBRANCH   2  10
BRANCH   5  23
ATOM     22  N   UNL     1      33.602 -14.071 -24.505  0.00  0.00    -0.234 NA
ATOM     23  C   UNL     1      33.398 -12.132 -23.082  0.00  0.00    +0.021 C 
ATOM     24  C   UNL     1      33.830 -12.874 -21.990  0.00  0.00    +0.004 C 
ATOM     25  C   UNL     1      33.302 -12.769 -24.306  0.00  0.00    +0.100 C 
ATOM     26  C   UNL     1      34.149 -14.217 -22.155  0.00  0.00    +0.029 C 
ATOM     27  C   UNL     1      34.020 -14.764 -23.422  0.00  0.00    +0.146 C 
BRANCH  27  32
ATOM     28  N   UNL     1      34.879 -16.936 -22.724  0.00  0.00    -0.105 NA
ATOM     29  N   UNL     1      34.958 -18.072 -23.432  0.00  0.00    -0.113 N 
ATOM     30  N   UNL     1      34.098 -16.760 -24.842  0.00  0.00    -0.085 NA
ATOM     31  N   UNL     1      34.507 -18.014 -24.693  0.00  0.00    -0.018 NA
ATOM     32  C   UNL     1      34.334 -16.145 -23.650  0.00  0.00    +0.092 C 
ATOM     33  C   UNL     1      35.497 -19.284 -22.872  0.00  0.00    +0.163 C 
ENDBRANCH  27  32
ENDBRANCH   5  23
TORSDOF 8
ENDMDL
MODEL 6
REMARK VINA RESULT:      -9.8     12.440     16.058
REMARK  Name = 11476460
REMARK  8 active torsions:
REMARK  status: ('A' for Active; 'I' for Inactive)
REMARK    1  A    between atoms: C_2  and  N_10
REMARK    2  A    between atoms: C_5  and  C_23
REMARK    3  A    between atoms: C_11  and  C_14
REMARK    4  A    between atoms: C_14  and  O_15
REMARK    5  A    between atoms: O_15  and  P_16
REMARK    6  A    between atoms: P_16  and  O_18
REMARK    7  A    between atoms: P_16  and  O_20
REMARK    8  A    between atoms: C_27  and  C_32
REMARK                            x       y       z     vdW  Elec       q    Type
REMARK                         _______ _______ _______ _____ _____    ______ ____
ROOT
ATOM      1  F   UNL     1      31.465 -11.742 -20.678  0.00  0.00    -0.204 F 
ATOM      2  C   UNL     1      32.123  -8.331 -21.764  0.00  0.00    +0.059 C 
ATOM      3  C   UNL     1      31.611  -9.414 -21.041  0.00  0.00    +0.045 C 
ATOM      4  C   UNL     1      32.997  -8.566 -22.830  0.00  0.00    +0.015 C 
ATOM      5  C   UNL     1      32.841 -10.946 -22.447  0.00  0.00    +0.029 C 
ATOM      6  C   UNL     1      31.969 -10.718 -21.382  0.00  0.00    +0.141 C 
ATOM      7  C   UNL     1      33.354  -9.870 -23.171  0.00  0.00    +0.004 C 
ENDROOT
BRANCH   2  10
ATOM      8  O   UNL     1      31.551  -5.041 -20.313  0.00  0.00    -0.434 OA
ATOM      9  O   UNL     1      32.790  -6.657 -19.314  0.00  0.00    -0.226 OA
ATOM     10  N   UNL     1      31.758  -7.000 -21.416  0.00  0.00    -0.221 N 
ATOM     11  C   UNL     1      30.997  -4.823 -21.618  0.00  0.00    +0.221 C 
ATOM     12  C   UNL     1      30.840  -6.214 -22.196  0.00  0.00    +0.148 C 
ATOM     13  C   UNL     1      32.116  -6.296 -20.268  0.00  0.00    +0.409 C 
BRANCH  11  14
ATOM     14  C   UNL     1      31.953  -3.947 -22.417  0.00  0.00    +0.199 C 
BRANCH  14  15
ATOM     15  O   UNL     1      31.706  -4.149 -23.798  0.00  0.00    -0.269 OA
BRANCH  15  16
ATOM     16  P   UNL     1      32.963  -4.133 -24.818  0.00  0.00    +0.473 P 
ATOM     17  O   UNL     1      33.452  -2.766 -25.200  0.00  0.00    -0.227 OA
BRANCH  16  18
ATOM     18  O   UNL     1      32.472  -5.060 -26.048  0.00  0.00    -0.303 OA
ATOM     19  H   UNL     1      31.899  -4.542 -26.635  0.00  0.00    +0.222 HD
ENDBRANCH  16  18
BRANCH  16  20
ATOM     20  O   UNL     1      34.052  -5.062 -24.064  0.00  0.00    -0.303 OA
ATOM     21  H   UNL     1      34.107  -5.921 -24.511  0.00  0.00    +0.222 HD
ENDBRANCH  16  20
ENDBRANCH  15  16
ENDBRANCH  14  15
ENDBRANCH  11  14
ENDBRANCH   2  10
BRANCH   5  23
ATOM     22  N   UNL     1      33.996 -14.474 -22.109  0.00  0.00    -0.234 NA
ATOM     23  C   UNL     1      33.214 -12.298 -22.806  0.00  0.00    +0.021 C 
ATOM     24  C   UNL     1      33.166 -12.726 -24.126  0.00  0.00    +0.004 C 
ATOM     25  C   UNL     1      33.631 -13.200 -21.843  0.00  0.00    +0.100 C 
ATOM     26  C   UNL     1      33.532 -14.030 -24.440  0.00  0.00    +0.029 C 
ATOM     27  C   UNL     1      33.936 -14.857 -23.404  0.00  0.00    +0.146 C 
BRANCH  27  32
ATOM     28  N   UNL     1      34.884 -17.009 -22.757  0.00  0.00    -0.105 NA
ATOM     29  N   UNL     1      35.041 -18.112 -23.502  0.00  0.00    -0.113 N 
ATOM     30  N   UNL     1      34.157 -16.794 -24.890  0.00  0.00    -0.085 NA
ATOM     31  N   UNL     1      34.625 -18.031 -24.773  0.00  0.00    -0.018 NA
ATOM     32  C   UNL     1      34.327 -16.212 -23.671  0.00  0.00    +0.092 C 
ATOM     33  C   UNL     1      35.625 -19.316 -22.968  0.00  0.00    +0.163 C 
ENDBRANCH  27  32
ENDBRANCH   5  23
TORSDOF 8
ENDMDL
MODEL 7
REMARK VINA RESULT:      -9.7     12.925     16.777
REMARK  Name = 11476460
REMARK  8 active torsions:
REMARK  status: ('A' for Active; 'I' for Inactive)
REMARK    1  A    between atoms: C_2  and  N_10
REMARK    2  A    between atoms: C_5  and  C_23
REMARK    3  A    between atoms: C_11  and  C_14
REMARK    4  A    between atoms: C_14  and  O_15
REMARK    5  A    between atoms: O_15  and  P_16
REMARK    6  A    between atoms: P_16  and  O_18
REMARK    7  A    between atoms: P_16  and  O_20
REMARK    8  A    between atoms: C_27  and  C_32
REMARK                            x       y       z     vdW  Elec       q    Type
REMARK                         _______ _______ _______ _____ _____    ______ ____
ROOT
ATOM      1  F   UNL     1      31.677 -11.269 -21.864  0.00  0.00    -0.204 F 
ATOM      2  C   UNL     1      33.125  -8.219 -23.222  0.00  0.00    +0.059 C 
ATOM      3  C   UNL     1      32.294  -9.081 -22.500  0.00  0.00    +0.045 C 
ATOM      4  C   UNL     1      34.152  -8.751 -24.008  0.00  0.00    +0.015 C 
ATOM      5  C   UNL     1      33.513 -10.986 -23.349  0.00  0.00    +0.029 C 
ATOM      6  C   UNL     1      32.487 -10.461 -22.564  0.00  0.00    +0.141 C 
ATOM      7  C   UNL     1      34.345 -10.131 -24.072  0.00  0.00    +0.004 C 
ENDROOT
BRANCH   2  10
ATOM      8  O   UNL     1      33.268  -4.581 -23.254  0.00  0.00    -0.434 OA
ATOM      9  O   UNL     1      35.023  -5.912 -23.795  0.00  0.00    -0.226 OA
ATOM     10  N   UNL     1      32.928  -6.811 -23.158  0.00  0.00    -0.221 N 
ATOM     11  C   UNL     1      31.859  -4.760 -23.054  0.00  0.00    +0.221 C 
ATOM     12  C   UNL     1      31.719  -6.214 -22.658  0.00  0.00    +0.148 C 
ATOM     13  C   UNL     1      33.854  -5.811 -23.448  0.00  0.00    +0.409 C 
BRANCH  11  14
ATOM     14  C   UNL     1      31.132  -4.419 -24.348  0.00  0.00    +0.199 C 
BRANCH  14  15
ATOM     15  O   UNL     1      31.686  -3.229 -24.879  0.00  0.00    -0.269 OA
BRANCH  15  16
ATOM     16  P   UNL     1      32.665  -3.338 -26.164  0.00  0.00    +0.473 P 
ATOM     17  O   UNL     1      32.924  -4.735 -26.648  0.00  0.00    -0.227 OA
BRANCH  16  18
ATOM     18  O   UNL     1      33.978  -2.507 -25.719  0.00  0.00    -0.303 OA
ATOM     19  H   UNL     1      33.730  -1.588 -25.529  0.00  0.00    +0.222 HD
ENDBRANCH  16  18
BRANCH  16  20
ATOM     20  O   UNL     1      31.956  -2.363 -27.243  0.00  0.00    -0.303 OA
ATOM     21  H   UNL     1      31.166  -2.797 -27.600  0.00  0.00    +0.222 HD
ENDBRANCH  16  20
ENDBRANCH  15  16
ENDBRANCH  14  15
ENDBRANCH  11  14
ENDBRANCH   2  10
BRANCH   5  23
ATOM     22  N   UNL     1      33.557 -14.462 -24.694  0.00  0.00    -0.234 NA
ATOM     23  C   UNL     1      33.717 -12.417 -23.419  0.00  0.00    +0.021 C 
ATOM     24  C   UNL     1      34.239 -13.117 -22.340  0.00  0.00    +0.004 C 
ATOM     25  C   UNL     1      33.394 -13.126 -24.562  0.00  0.00    +0.100 C 
ATOM     26  C   UNL     1      34.421 -14.492 -22.436  0.00  0.00    +0.029 C 
ATOM     27  C   UNL     1      34.068 -15.112 -23.625  0.00  0.00    +0.146 C 
BRANCH  27  32
ATOM     28  N   UNL     1      34.862 -17.296 -22.886  0.00  0.00    -0.105 NA
ATOM     29  N   UNL     1      34.736 -18.483 -23.497  0.00  0.00    -0.113 N 
ATOM     30  N   UNL     1      33.758 -17.205 -24.861  0.00  0.00    -0.085 NA
ATOM     31  N   UNL     1      34.089 -18.477 -24.671  0.00  0.00    -0.018 NA
ATOM     32  C   UNL     1      34.234 -16.529 -23.779  0.00  0.00    +0.092 C 
ATOM     33  C   UNL     1      35.265 -19.695 -22.927  0.00  0.00    +0.163 C 
ENDBRANCH  27  32
ENDBRANCH   5  23
TORSDOF 8
ENDMDL
MODEL 8
REMARK VINA RESULT:      -9.4      6.312      9.454
REMARK  Name = 11476460
REMARK  8 active torsions:
REMARK  status: ('A' for Active; 'I' for Inactive)
REMARK    1  A    between atoms: C_2  and  N_10
REMARK    2  A    between atoms: C_5  and  C_23
REMARK    3  A    between atoms: C_11  and  C_14
REMARK    4  A    between atoms: C_14  and  O_15
REMARK    5  A    between atoms: O_15  and  P_16
REMARK    6  A    between atoms: P_16  and  O_18
REMARK    7  A    between atoms: P_16  and  O_20
REMARK    8  A    between atoms: C_27  and  C_32
REMARK                            x       y       z     vdW  Elec       q    Type
REMARK                         _______ _______ _______ _____ _____    ______ ____
ROOT
ATOM      1  F   UNL     1      34.117 -14.628 -24.581  0.00  0.00    -0.204 F 
ATOM      2  C   UNL     1      35.004 -16.766 -21.772  0.00  0.00    +0.059 C 
ATOM      3  C   UNL     1      34.763 -16.332 -23.079  0.00  0.00    +0.045 C 
ATOM      4  C   UNL     1      34.823 -15.877 -20.707  0.00  0.00    +0.015 C 
ATOM      5  C   UNL     1      34.166 -14.141 -22.254  0.00  0.00    +0.029 C 
ATOM      6  C   UNL     1      34.344 -15.023 -23.320  0.00  0.00    +0.141 C 
ATOM      7  C   UNL     1      34.405 -14.568 -20.948  0.00  0.00    +0.004 C 
ENDROOT
BRANCH   2  10
ATOM      8  O   UNL     1      36.712 -19.908 -21.092  0.00  0.00    -0.434 OA
ATOM      9  O   UNL     1      37.768 -17.905 -21.215  0.00  0.00    -0.226 OA
ATOM     10  N   UNL     1      35.430 -18.101 -21.526  0.00  0.00    -0.221 N 
ATOM     11  C   UNL     1      35.351 -20.355 -21.003  0.00  0.00    +0.221 C 
ATOM     12  C   UNL     1      34.547 -19.232 -21.624  0.00  0.00    +0.148 C 
ATOM     13  C   UNL     1      36.726 -18.543 -21.268  0.00  0.00    +0.409 C 
BRANCH  11  14
ATOM     14  C   UNL     1      35.009 -20.598 -19.539  0.00  0.00    +0.199 C 
BRANCH  14  15
ATOM     15  O   UNL     1      33.742 -21.227 -19.469  0.00  0.00    -0.269 OA
BRANCH  15  16
ATOM     16  P   UNL     1      33.544 -22.454 -18.431  0.00  0.00    +0.473 P 
ATOM     17  O   UNL     1      32.237 -22.458 -17.694  0.00  0.00    -0.227 OA
BRANCH  16  18
ATOM     18  O   UNL     1      34.863 -22.384 -17.498  0.00  0.00    -0.303 OA
ATOM     19  H   UNL     1      35.359 -21.573 -17.698  0.00  0.00    +0.222 HD
ENDBRANCH  16  18
BRANCH  16  20
ATOM     20  O   UNL     1      33.812 -23.755 -19.354  0.00  0.00    -0.303 OA
ATOM     21  H   UNL     1      33.695 -23.518 -20.288  0.00  0.00    +0.222 HD
ENDBRANCH  16  20
ENDBRANCH  15  16
ENDBRANCH  14  15
ENDBRANCH  11  14
ENDBRANCH   2  10
BRANCH   5  23
ATOM     22  N   UNL     1      32.335 -10.919 -21.862  0.00  0.00    -0.234 NA
ATOM     23  C   UNL     1      33.732 -12.782 -22.499  0.00  0.00    +0.021 C 
ATOM     24  C   UNL     1      34.251 -12.046 -23.556  0.00  0.00    +0.004 C 
ATOM     25  C   UNL     1      32.786 -12.181 -21.688  0.00  0.00    +0.100 C 
ATOM     26  C   UNL     1      33.812 -10.744 -23.767  0.00  0.00    +0.029 C 
ATOM     27  C   UNL     1      32.861 -10.231 -22.899  0.00  0.00    +0.146 C 
BRANCH  27  32
ATOM     28  N   UNL     1      33.138  -7.877 -23.472  0.00  0.00    -0.105 NA
ATOM     29  N   UNL     1      32.220  -6.900 -23.463  0.00  0.00    -0.113 N 
ATOM     30  N   UNL     1      31.074  -8.554 -22.833  0.00  0.00    -0.085 NA
ATOM     31  N   UNL     1      30.983  -7.255 -23.090  0.00  0.00    -0.018 NA
ATOM     32  C   UNL     1      32.372  -8.893 -23.070  0.00  0.00    +0.092 C 
ATOM     33  C   UNL     1      32.543  -5.545 -23.831  0.00  0.00    +0.163 C 
ENDBRANCH  27  32
ENDBRANCH   5  23
TORSDOF 8
ENDMDL
MODEL 9
REMARK VINA RESULT:      -9.2      2.380      3.600
REMARK  Name = 11476460
REMARK  8 active torsions:
REMARK  status: ('A' for Active; 'I' for Inactive)
REMARK    1  A    between atoms: C_2  and  N_10
REMARK    2  A    between atoms: C_5  and  C_23
REMARK    3  A    between atoms: C_11  and  C_14
REMARK    4  A    between atoms: C_14  and  O_15
REMARK    5  A    between atoms: O_15  and  P_16
REMARK    6  A    between atoms: P_16  and  O_18
REMARK    7  A    between atoms: P_16  and  O_20
REMARK    8  A    between atoms: C_27  and  C_32
REMARK                            x       y       z     vdW  Elec       q    Type
REMARK                         _______ _______ _______ _____ _____    ______ ____
ROOT
ATOM      1  F   UNL     1      33.275 -21.980 -18.657  0.00  0.00    -0.204 F 
ATOM      2  C   UNL     1      35.891 -22.823 -16.271  0.00  0.00    +0.059 C 
ATOM      3  C   UNL     1      34.653 -22.793 -16.921  0.00  0.00    +0.045 C 
ATOM      4  C   UNL     1      36.945 -22.046 -16.762  0.00  0.00    +0.015 C 
ATOM      5  C   UNL     1      35.526 -21.223 -18.535  0.00  0.00    +0.029 C 
ATOM      6  C   UNL     1      34.471 -21.995 -18.050  0.00  0.00    +0.141 C 
ATOM      7  C   UNL     1      36.763 -21.248 -17.891  0.00  0.00    +0.004 C 
ENDROOT
BRANCH   2  10
ATOM      8  O   UNL     1      36.890 -24.496 -13.195  0.00  0.00    -0.434 OA
ATOM      9  O   UNL     1      37.963 -22.689 -14.049  0.00  0.00    -0.226 OA
ATOM     10  N   UNL     1      36.076 -23.637 -15.118  0.00  0.00    -0.221 N 
ATOM     11  C   UNL     1      35.644 -25.164 -13.433  0.00  0.00    +0.221 C 
ATOM     12  C   UNL     1      35.304 -24.824 -14.869  0.00  0.00    +0.148 C 
ATOM     13  C   UNL     1      37.054 -23.502 -14.134  0.00  0.00    +0.409 C 
BRANCH  11  14
ATOM     14  C   UNL     1      34.613 -24.650 -12.436  0.00  0.00    +0.199 C 
BRANCH  14  15
ATOM     15  O   UNL     1      33.818 -23.666 -13.073  0.00  0.00    -0.269 OA
BRANCH  15  16
ATOM     16  P   UNL     1      32.227 -23.932 -13.214  0.00  0.00    +0.473 P 
ATOM     17  O   UNL     1      31.388 -23.369 -12.104  0.00  0.00    -0.227 OA
BRANCH  16  18
ATOM     18  O   UNL     1      32.121 -25.533 -13.418  0.00  0.00    -0.303 OA
ATOM     19  H   UNL     1      32.566 -25.784 -14.243  0.00  0.00    +0.222 HD
ENDBRANCH  16  18
BRANCH  16  20
ATOM     20  O   UNL     1      31.892 -23.348 -14.686  0.00  0.00    -0.303 OA
ATOM     21  H   UNL     1      32.715 -23.254 -15.190  0.00  0.00    +0.222 HD
ENDBRANCH  16  20
ENDBRANCH  15  16
ENDBRANCH  14  15
ENDBRANCH  11  14
ENDBRANCH   2  10
BRANCH   5  23
ATOM     22  N   UNL     1      33.850 -19.474 -21.368  0.00  0.00    -0.234 NA
ATOM     23  C   UNL     1      35.342 -20.392 -19.706  0.00  0.00    +0.021 C 
ATOM     24  C   UNL     1      36.416 -19.735 -20.292  0.00  0.00    +0.004 C 
ATOM     25  C   UNL     1      34.091 -20.232 -20.275  0.00  0.00    +0.100 C 
ATOM     26  C   UNL     1      36.209 -18.946 -21.417  0.00  0.00    +0.029 C 
ATOM     27  C   UNL     1      34.918 -18.848 -21.912  0.00  0.00    +0.146 C 
BRANCH  27  32
ATOM     28  N   UNL     1      34.710 -16.715 -23.076  0.00  0.00    -0.105 NA
ATOM     29  N   UNL     1      34.377 -16.489 -24.355  0.00  0.00    -0.113 N 
ATOM     30  N   UNL     1      34.297 -18.595 -24.270  0.00  0.00    -0.085 NA
ATOM     31  N   UNL     1      34.124 -17.573 -25.100  0.00  0.00    -0.018 NA
ATOM     32  C   UNL     1      34.646 -18.048 -23.072  0.00  0.00    +0.092 C 
ATOM     33  C   UNL     1      34.296 -15.157 -24.897  0.00  0.00    +0.163 C 
ENDBRANCH  27  32
ENDBRANCH   5  23
TORSDOF 8
ENDMDL
