MODEL 1
REMARK VINA RESULT:     -11.4      0.000      0.000
REMARK  Name = 42628060
REMARK  6 active torsions:
REMARK  status: ('A' for Active; 'I' for Inactive)
REMARK    1  A    between atoms: N_2  and  C_6
REMARK    2  A    between atoms: C_3  and  C_19
REMARK    3  A    between atoms: C_9  and  N_13
REMARK    4  A    between atoms: C_19  and  N_20
REMARK    5  A    between atoms: C_21  and  N_27
REMARK    6  A    between atoms: C_28  and  C_32
REMARK                            x       y       z     vdW  Elec       q    Type
REMARK                         _______ _______ _______ _____ _____    ______ ____
ROOT
ATOM      1  O   UNL     1      35.681 -15.286 -24.165  0.00  0.00    -0.277 OA
ATOM      2  N   UNL     1      33.417 -14.916 -23.662  0.00  0.00    -0.284 N 
ATOM      3  C   UNL     1      34.540 -15.687 -23.957  0.00  0.00    +0.205 C 
ATOM      4  H   UNL     1      32.575 -15.408 -23.529  0.00  0.00    +0.155 HD
ENDROOT
BRANCH   2   6
ATOM      5  F   UNL     1      32.670 -13.710 -21.265  0.00  0.00    -0.203 F 
ATOM      6  C   UNL     1      33.346 -13.509 -23.533  0.00  0.00    +0.078 C 
ATOM      7  C   UNL     1      32.968 -12.937 -22.318  0.00  0.00    +0.155 C 
ATOM      8  C   UNL     1      33.652 -12.695 -24.623  0.00  0.00    +0.018 C 
ATOM      9  C   UNL     1      33.204 -10.734 -23.284  0.00  0.00    +0.061 C 
ATOM     10  C   UNL     1      32.898 -11.548 -22.194  0.00  0.00    +0.046 C 
ATOM     11  C   UNL     1      33.582 -11.306 -24.498  0.00  0.00    +0.017 C 
BRANCH   9  13
ATOM     12  O   UNL     1      35.449  -8.922 -23.481  0.00  0.00    -0.269 OA
ATOM     13  N   UNL     1      33.131  -9.292 -23.155  0.00  0.00    -0.233 N 
ATOM     14  C   UNL     1      34.315  -8.514 -23.232  0.00  0.00    +0.257 C 
ATOM     15  C   UNL     1      31.899  -8.658 -22.977  0.00  0.00    +0.072 C 
ATOM     16  C   UNL     1      34.156  -7.038 -23.043  0.00  0.00    +0.059 C 
ATOM     17  C   UNL     1      31.780  -7.333 -22.843  0.00  0.00    +0.017 C 
ATOM     18  C   UNL     1      32.945  -6.502 -22.871  0.00  0.00    +0.006 C 
ENDBRANCH   9  13
ENDBRANCH   2   6
BRANCH   3  19
ATOM     19  C   UNL     1      34.170 -17.160 -24.000  0.00  0.00    +0.010 C 
BRANCH  19  20
ATOM     20  N   UNL     1      35.054 -17.907 -23.119  0.00  0.00    +0.394 N 
ATOM     21  C   UNL     1      35.367 -19.519 -21.463  0.00  0.00    +0.049 C 
ATOM     22  C   UNL     1      35.995 -18.204 -20.994  0.00  0.00    -0.005 C 
ATOM     23  C   UNL     1      34.424 -19.120 -22.594  0.00  0.00    -0.057 C 
ATOM     24  C   UNL     1      35.438 -17.141 -21.933  0.00  0.00    -0.075 C 
ATOM     25  H   UNL     1      35.860 -18.125 -23.704  0.00  0.00    -0.079 HD
BRANCH  21  27
ATOM     26  O   UNL     1      36.552 -21.312 -19.560  0.00  0.00    -0.270 OA
ATOM     27  N   UNL     1      34.689 -20.222 -20.410  0.00  0.00    -0.304 N 
ATOM     28  C   UNL     1      35.347 -21.074 -19.531  0.00  0.00    +0.252 C 
ATOM     29  H   UNL     1      33.718 -20.095 -20.306  0.00  0.00    +0.150 HD
BRANCH  28  32
ATOM     30 CL   UNL     1      33.650 -23.746 -14.995  0.00  0.00    -0.075 Cl
ATOM     31  S   UNL     1      35.234 -22.386 -17.106  0.00  0.00    -0.071 S 
ATOM     32  C   UNL     1      34.498 -21.746 -18.513  0.00  0.00    +0.084 C 
ATOM     33  C   UNL     1      33.135 -21.948 -18.521  0.00  0.00    +0.012 C 
ATOM     34  C   UNL     1      32.690 -22.636 -17.356  0.00  0.00    +0.019 C 
ATOM     35  C   UNL     1      33.729 -22.935 -16.502  0.00  0.00    +0.087 C 
ENDBRANCH  28  32
ENDBRANCH  21  27
ENDBRANCH  19  20
ENDBRANCH   3  19
TORSDOF 6
ENDMDL
MODEL 2
REMARK VINA RESULT:     -11.3      5.984      9.540
REMARK  Name = 42628060
REMARK  6 active torsions:
REMARK  status: ('A' for Active; 'I' for Inactive)
REMARK    1  A    between atoms: N_2  and  C_6
REMARK    2  A    between atoms: C_3  and  C_19
REMARK    3  A    between atoms: C_9  and  N_13
REMARK    4  A    between atoms: C_19  and  N_20
REMARK    5  A    between atoms: C_21  and  N_27
REMARK    6  A    between atoms: C_28  and  C_32
REMARK                            x       y       z     vdW  Elec       q    Type
REMARK                         _______ _______ _______ _____ _____    ______ ____
ROOT
ATOM      1  O   UNL     1      30.893 -22.143 -16.993  0.00  0.00    -0.277 OA
ATOM      2  N   UNL     1      33.160 -22.612 -17.388  0.00  0.00    -0.284 N 
ATOM      3  C   UNL     1      31.929 -22.754 -16.751  0.00  0.00    +0.205 C 
ATOM      4  H   UNL     1      33.889 -23.184 -17.059  0.00  0.00    +0.155 HD
ENDROOT
BRANCH   2   6
ATOM      5  F   UNL     1      35.802 -22.156 -18.147  0.00  0.00    -0.203 F 
ATOM      6  C   UNL     1      33.484 -21.739 -18.454  0.00  0.00    +0.078 C 
ATOM      7  C   UNL     1      34.817 -21.532 -18.809  0.00  0.00    +0.155 C 
ATOM      8  C   UNL     1      32.467 -21.084 -19.149  0.00  0.00    +0.018 C 
ATOM      9  C   UNL     1      34.116 -20.015 -20.554  0.00  0.00    +0.061 C 
ATOM     10  C   UNL     1      35.133 -20.670 -19.860  0.00  0.00    +0.046 C 
ATOM     11  C   UNL     1      32.784 -20.222 -20.200  0.00  0.00    +0.017 C 
BRANCH   9  13
ATOM     12  O   UNL     1      35.714 -17.615 -20.323  0.00  0.00    -0.269 OA
ATOM     13  N   UNL     1      34.445 -19.119 -21.646  0.00  0.00    -0.233 N 
ATOM     14  C   UNL     1      35.206 -17.948 -21.394  0.00  0.00    +0.257 C 
ATOM     15  C   UNL     1      34.036 -19.410 -22.949  0.00  0.00    +0.072 C 
ATOM     16  C   UNL     1      35.461 -17.055 -22.567  0.00  0.00    +0.059 C 
ATOM     17  C   UNL     1      34.305 -18.610 -23.987  0.00  0.00    +0.017 C 
ATOM     18  C   UNL     1      35.034 -17.394 -23.785  0.00  0.00    +0.006 C 
ENDBRANCH   9  13
ENDBRANCH   2   6
BRANCH   3  19
ATOM     19  C   UNL     1      32.022 -23.805 -15.658  0.00  0.00    +0.010 C 
BRANCH  19  20
ATOM     20  N   UNL     1      33.152 -23.503 -14.792  0.00  0.00    +0.394 N 
ATOM     21  C   UNL     1      35.373 -23.849 -14.172  0.00  0.00    +0.049 C 
ATOM     22  C   UNL     1      34.481 -24.071 -12.948  0.00  0.00    -0.005 C 
ATOM     23  C   UNL     1      34.427 -23.937 -15.366  0.00  0.00    -0.057 C 
ATOM     24  C   UNL     1      33.067 -24.192 -13.504  0.00  0.00    -0.075 C 
ATOM     25  H   UNL     1      33.115 -22.490 -14.681  0.00  0.00    -0.079 HD
BRANCH  21  27
ATOM     26  O   UNL     1      38.096 -23.428 -13.368  0.00  0.00    -0.270 OA
ATOM     27  N   UNL     1      36.449 -24.797 -14.259  0.00  0.00    -0.304 N 
ATOM     28  C   UNL     1      37.742 -24.505 -13.844  0.00  0.00    +0.252 C 
ATOM     29  H   UNL     1      36.263 -25.691 -14.628  0.00  0.00    +0.150 HD
BRANCH  28  32
ATOM     30 CL   UNL     1      40.140 -29.464 -14.351  0.00  0.00    -0.075 Cl
ATOM     31  S   UNL     1      38.232 -27.217 -13.996  0.00  0.00    -0.071 S 
ATOM     32  C   UNL     1      38.748 -25.584 -14.024  0.00  0.00    +0.084 C 
ATOM     33  C   UNL     1      40.107 -25.474 -14.223  0.00  0.00    +0.012 C 
ATOM     34  C   UNL     1      40.732 -26.747 -14.354  0.00  0.00    +0.019 C 
ATOM     35  C   UNL     1      39.829 -27.781 -14.251  0.00  0.00    +0.087 C 
ENDBRANCH  28  32
ENDBRANCH  21  27
ENDBRANCH  19  20
ENDBRANCH   3  19
TORSDOF 6
ENDMDL
MODEL 3
REMARK VINA RESULT:     -11.3      1.203      1.689
REMARK  Name = 42628060
REMARK  6 active torsions:
REMARK  status: ('A' for Active; 'I' for Inactive)
REMARK    1  A    between atoms: N_2  and  C_6
REMARK    2  A    between atoms: C_3  and  C_19
REMARK    3  A    between atoms: C_9  and  N_13
REMARK    4  A    between atoms: C_19  and  N_20
REMARK    5  A    between atoms: C_21  and  N_27
REMARK    6  A    between atoms: C_28  and  C_32
REMARK                            x       y       z     vdW  Elec       q    Type
REMARK                         _______ _______ _______ _____ _____    ______ ____
ROOT
ATOM      1  O   UNL     1      35.531 -15.663 -24.779  0.00  0.00    -0.277 OA
ATOM      2  N   UNL     1      33.516 -15.191 -23.669  0.00  0.00    -0.284 N 
ATOM      3  C   UNL     1      34.488 -16.013 -24.235  0.00  0.00    +0.205 C 
ATOM      4  H   UNL     1      32.736 -15.646 -23.278  0.00  0.00    +0.155 HD
ENDROOT
BRANCH   2   6
ATOM      5  F   UNL     1      33.557 -13.605 -25.959  0.00  0.00    -0.203 F 
ATOM      6  C   UNL     1      33.520 -13.779 -23.590  0.00  0.00    +0.078 C 
ATOM      7  C   UNL     1      33.541 -13.013 -24.756  0.00  0.00    +0.155 C 
ATOM      8  C   UNL     1      33.504 -13.152 -22.344  0.00  0.00    +0.018 C 
ATOM      9  C   UNL     1      33.530 -10.994 -23.430  0.00  0.00    +0.061 C 
ATOM     10  C   UNL     1      33.545 -11.620 -24.676  0.00  0.00    +0.046 C 
ATOM     11  C   UNL     1      33.509 -11.759 -22.264  0.00  0.00    +0.017 C 
BRANCH   9  13
ATOM     12  O   UNL     1      31.367  -9.370 -22.404  0.00  0.00    -0.269 OA
ATOM     13  N   UNL     1      33.536  -9.546 -23.346  0.00  0.00    -0.233 N 
ATOM     14  C   UNL     1      32.392  -8.862 -22.859  0.00  0.00    +0.257 C 
ATOM     15  C   UNL     1      34.668  -8.819 -23.721  0.00  0.00    +0.072 C 
ATOM     16  C   UNL     1      32.465  -7.367 -22.848  0.00  0.00    +0.059 C 
ATOM     17  C   UNL     1      34.719  -7.484 -23.671  0.00  0.00    +0.017 C 
ATOM     18  C   UNL     1      33.580  -6.739 -23.227  0.00  0.00    +0.006 C 
ENDBRANCH   9  13
ENDBRANCH   2   6
BRANCH   3  19
ATOM     19  C   UNL     1      34.085 -17.472 -24.103  0.00  0.00    +0.010 C 
BRANCH  19  20
ATOM     20  N   UNL     1      34.978 -18.138 -23.167  0.00  0.00    +0.394 N 
ATOM     21  C   UNL     1      35.318 -19.651 -21.426  0.00  0.00    +0.049 C 
ATOM     22  C   UNL     1      35.882 -18.290 -21.011  0.00  0.00    -0.005 C 
ATOM     23  C   UNL     1      34.384 -19.348 -22.594  0.00  0.00    -0.057 C 
ATOM     24  C   UNL     1      35.304 -17.299 -22.014  0.00  0.00    -0.075 C 
ATOM     25  H   UNL     1      35.805 -18.352 -23.723  0.00  0.00    -0.079 HD
BRANCH  21  27
ATOM     26  O   UNL     1      36.499 -21.448 -19.524  0.00  0.00    -0.270 OA
ATOM     27  N   UNL     1      34.644 -20.328 -20.352  0.00  0.00    -0.304 N 
ATOM     28  C   UNL     1      35.300 -21.184 -19.476  0.00  0.00    +0.252 C 
ATOM     29  H   UNL     1      33.678 -20.179 -20.233  0.00  0.00    +0.150 HD
BRANCH  28  32
ATOM     30 CL   UNL     1      33.624 -23.713 -14.851  0.00  0.00    -0.075 Cl
ATOM     31  S   UNL     1      35.198 -22.415 -17.008  0.00  0.00    -0.071 S 
ATOM     32  C   UNL     1      34.457 -21.827 -18.435  0.00  0.00    +0.084 C 
ATOM     33  C   UNL     1      33.095 -22.036 -18.435  0.00  0.00    +0.012 C 
ATOM     34  C   UNL     1      32.655 -22.688 -17.247  0.00  0.00    +0.019 C 
ATOM     35  C   UNL     1      33.696 -22.952 -16.385  0.00  0.00    +0.087 C 
ENDBRANCH  28  32
ENDBRANCH  21  27
ENDBRANCH  19  20
ENDBRANCH   3  19
TORSDOF 6
ENDMDL
MODEL 4
REMARK VINA RESULT:     -11.2      5.642     12.022
REMARK  Name = 42628060
REMARK  6 active torsions:
REMARK  status: ('A' for Active; 'I' for Inactive)
REMARK    1  A    between atoms: N_2  and  C_6
REMARK    2  A    between atoms: C_3  and  C_19
REMARK    3  A    between atoms: C_9  and  N_13
REMARK    4  A    between atoms: C_19  and  N_20
REMARK    5  A    between atoms: C_21  and  N_27
REMARK    6  A    between atoms: C_28  and  C_32
REMARK                            x       y       z     vdW  Elec       q    Type
REMARK                         _______ _______ _______ _____ _____    ______ ____
ROOT
ATOM      1  O   UNL     1      32.688 -13.661 -22.820  0.00  0.00    -0.277 OA
ATOM      2  N   UNL     1      34.442 -14.786 -23.902  0.00  0.00    -0.284 N 
ATOM      3  C   UNL     1      33.515 -13.762 -23.720  0.00  0.00    +0.205 C 
ATOM      4  H   UNL     1      35.029 -14.707 -24.688  0.00  0.00    +0.155 HD
ENDROOT
BRANCH   2   6
ATOM      5  F   UNL     1      34.252 -17.365 -24.939  0.00  0.00    -0.203 F 
ATOM      6  C   UNL     1      34.637 -15.927 -23.089  0.00  0.00    +0.078 C 
ATOM      7  C   UNL     1      34.535 -17.205 -23.639  0.00  0.00    +0.155 C 
ATOM      8  C   UNL     1      34.930 -15.773 -21.734  0.00  0.00    +0.018 C 
ATOM      9  C   UNL     1      35.020 -18.173 -21.479  0.00  0.00    +0.061 C 
ATOM     10  C   UNL     1      34.727 -18.328 -22.834  0.00  0.00    +0.046 C 
ATOM     11  C   UNL     1      35.123 -16.896 -20.929  0.00  0.00    +0.017 C 
BRANCH   9  13
ATOM     12  O   UNL     1      37.558 -19.040 -20.395  0.00  0.00    -0.269 OA
ATOM     13  N   UNL     1      35.219 -19.340 -20.642  0.00  0.00    -0.233 N 
ATOM     14  C   UNL     1      36.525 -19.683 -20.206  0.00  0.00    +0.257 C 
ATOM     15  C   UNL     1      34.131 -20.120 -20.243  0.00  0.00    +0.072 C 
ATOM     16  C   UNL     1      36.647 -20.927 -19.384  0.00  0.00    +0.059 C 
ATOM     17  C   UNL     1      34.264 -21.210 -19.481  0.00  0.00    +0.017 C 
ATOM     18  C   UNL     1      35.562 -21.627 -19.045  0.00  0.00    +0.006 C 
ENDBRANCH   9  13
ENDBRANCH   2   6
BRANCH   3  19
ATOM     19  C   UNL     1      33.647 -12.731 -24.829  0.00  0.00    +0.010 C 
BRANCH  19  20
ATOM     20  N   UNL     1      34.370 -11.572 -24.329  0.00  0.00    +0.394 N 
ATOM     21  C   UNL     1      34.366  -9.417 -23.439  0.00  0.00    +0.049 C 
ATOM     22  C   UNL     1      35.233  -9.426 -24.700  0.00  0.00    -0.005 C 
ATOM     23  C   UNL     1      33.518 -10.681 -23.538  0.00  0.00    -0.057 C 
ATOM     24  C   UNL     1      34.892 -10.732 -25.407  0.00  0.00    -0.075 C 
ATOM     25  H   UNL     1      35.120 -11.972 -23.766  0.00  0.00    -0.079 HD
BRANCH  21  27
ATOM     26  O   UNL     1      35.214  -6.869 -22.423  0.00  0.00    -0.270 OA
ATOM     27  N   UNL     1      33.564  -8.231 -23.320  0.00  0.00    -0.304 N 
ATOM     28  C   UNL     1      34.061  -7.036 -22.814  0.00  0.00    +0.252 C 
ATOM     29  H   UNL     1      32.623  -8.266 -23.609  0.00  0.00    +0.150 HD
BRANCH  28  32
ATOM     30 CL   UNL     1      31.114  -2.505 -23.991  0.00  0.00    -0.075 Cl
ATOM     31  S   UNL     1      33.003  -4.795 -24.030  0.00  0.00    -0.071 S 
ATOM     32  C   UNL     1      33.096  -5.908 -22.732  0.00  0.00    +0.084 C 
ATOM     33  C   UNL     1      32.214  -5.599 -21.721  0.00  0.00    +0.012 C 
ATOM     34  C   UNL     1      31.451  -4.432 -22.016  0.00  0.00    +0.019 C 
ATOM     35  C   UNL     1      31.779  -3.895 -23.241  0.00  0.00    +0.087 C 
ENDBRANCH  28  32
ENDBRANCH  21  27
ENDBRANCH  19  20
ENDBRANCH   3  19
TORSDOF 6
ENDMDL
MODEL 5
REMARK VINA RESULT:     -11.1      5.685     12.062
REMARK  Name = 42628060
REMARK  6 active torsions:
REMARK  status: ('A' for Active; 'I' for Inactive)
REMARK    1  A    between atoms: N_2  and  C_6
REMARK    2  A    between atoms: C_3  and  C_19
REMARK    3  A    between atoms: C_9  and  N_13
REMARK    4  A    between atoms: C_19  and  N_20
REMARK    5  A    between atoms: C_21  and  N_27
REMARK    6  A    between atoms: C_28  and  C_32
REMARK                            x       y       z     vdW  Elec       q    Type
REMARK                         _______ _______ _______ _____ _____    ______ ____
ROOT
ATOM      1  O   UNL     1      32.525 -13.373 -22.660  0.00  0.00    -0.277 OA
ATOM      2  N   UNL     1      34.346 -14.337 -23.787  0.00  0.00    -0.284 N 
ATOM      3  C   UNL     1      33.360 -13.378 -23.559  0.00  0.00    +0.205 C 
ATOM      4  H   UNL     1      34.931 -14.182 -24.564  0.00  0.00    +0.155 HD
ENDROOT
BRANCH   2   6
ATOM      5  F   UNL     1      34.666 -14.246 -21.021  0.00  0.00    -0.203 F 
ATOM      6  C   UNL     1      34.603 -15.506 -23.034  0.00  0.00    +0.078 C 
ATOM      7  C   UNL     1      34.759 -15.426 -21.650  0.00  0.00    +0.155 C 
ATOM      8  C   UNL     1      34.704 -16.740 -23.677  0.00  0.00    +0.018 C 
ATOM      9  C   UNL     1      35.114 -17.814 -21.553  0.00  0.00    +0.061 C 
ATOM     10  C   UNL     1      35.014 -16.581 -20.909  0.00  0.00    +0.046 C 
ATOM     11  C   UNL     1      34.959 -17.895 -22.936  0.00  0.00    +0.017 C 
BRANCH   9  13
ATOM     12  O   UNL     1      37.701 -18.603 -20.527  0.00  0.00    -0.269 OA
ATOM     13  N   UNL     1      35.380 -19.014 -20.783  0.00  0.00    -0.233 N 
ATOM     14  C   UNL     1      36.705 -19.310 -20.371  0.00  0.00    +0.257 C 
ATOM     15  C   UNL     1      34.337 -19.873 -20.426  0.00  0.00    +0.072 C 
ATOM     16  C   UNL     1      36.898 -20.590 -19.621  0.00  0.00    +0.059 C 
ATOM     17  C   UNL     1      34.533 -20.995 -19.726  0.00  0.00    +0.017 C 
ATOM     18  C   UNL     1      35.854 -21.366 -19.319  0.00  0.00    +0.006 C 
ENDBRANCH   9  13
ENDBRANCH   2   6
BRANCH   3  19
ATOM     19  C   UNL     1      33.437 -12.285 -24.610  0.00  0.00    +0.010 C 
BRANCH  19  20
ATOM     20  N   UNL     1      34.212 -11.168 -24.091  0.00  0.00    +0.394 N 
ATOM     21  C   UNL     1      34.331  -8.957 -23.362  0.00  0.00    +0.049 C 
ATOM     22  C   UNL     1      35.357  -9.161 -24.480  0.00  0.00    -0.005 C 
ATOM     23  C   UNL     1      33.367 -10.131 -23.497  0.00  0.00    -0.057 C 
ATOM     24  C   UNL     1      34.969 -10.480 -25.137  0.00  0.00    -0.075 C 
ATOM     25  H   UNL     1      34.828 -11.594 -23.399  0.00  0.00    -0.079 HD
BRANCH  21  27
ATOM     26  O   UNL     1      33.788  -7.163 -21.188  0.00  0.00    -0.270 OA
ATOM     27  N   UNL     1      33.661  -7.689 -23.444  0.00  0.00    -0.304 N 
ATOM     28  C   UNL     1      33.440  -6.883 -22.333  0.00  0.00    +0.252 C 
ATOM     29  H   UNL     1      33.344  -7.378 -24.323  0.00  0.00    +0.150 HD
BRANCH  28  32
ATOM     30 CL   UNL     1      31.479  -2.290 -24.711  0.00  0.00    -0.075 Cl
ATOM     31  S   UNL     1      32.890  -4.828 -24.091  0.00  0.00    -0.071 S 
ATOM     32  C   UNL     1      32.709  -5.613 -22.580  0.00  0.00    +0.084 C 
ATOM     33  C   UNL     1      31.859  -4.928 -21.740  0.00  0.00    +0.012 C 
ATOM     34  C   UNL     1      31.350  -3.743 -22.345  0.00  0.00    +0.019 C 
ATOM     35  C   UNL     1      31.829  -3.567 -23.624  0.00  0.00    +0.087 C 
ENDBRANCH  28  32
ENDBRANCH  21  27
ENDBRANCH  19  20
ENDBRANCH   3  19
TORSDOF 6
ENDMDL
MODEL 6
REMARK VINA RESULT:     -10.7      3.605      6.122
REMARK  Name = 42628060
REMARK  6 active torsions:
REMARK  status: ('A' for Active; 'I' for Inactive)
REMARK    1  A    between atoms: N_2  and  C_6
REMARK    2  A    between atoms: C_3  and  C_19
REMARK    3  A    between atoms: C_9  and  N_13
REMARK    4  A    between atoms: C_19  and  N_20
REMARK    5  A    between atoms: C_21  and  N_27
REMARK    6  A    between atoms: C_28  and  C_32
REMARK                            x       y       z     vdW  Elec       q    Type
REMARK                         _______ _______ _______ _____ _____    ______ ____
ROOT
ATOM      1  O   UNL     1      33.720 -20.195 -20.372  0.00  0.00    -0.277 OA
ATOM      2  N   UNL     1      35.774 -19.121 -20.751  0.00  0.00    -0.284 N 
ATOM      3  C   UNL     1      34.944 -20.145 -20.298  0.00  0.00    +0.205 C 
ATOM      4  H   UNL     1      36.739 -19.246 -20.603  0.00  0.00    +0.155 HD
ENDROOT
BRANCH   2   6
ATOM      5  F   UNL     1      35.439 -19.000 -23.514  0.00  0.00    -0.203 F 
ATOM      6  C   UNL     1      35.392 -17.923 -21.398  0.00  0.00    +0.078 C 
ATOM      7  C   UNL     1      35.232 -17.895 -22.783  0.00  0.00    +0.155 C 
ATOM      8  C   UNL     1      35.176 -16.766 -20.649  0.00  0.00    +0.018 C 
ATOM      9  C   UNL     1      34.639 -15.556 -22.669  0.00  0.00    +0.061 C 
ATOM     10  C   UNL     1      34.855 -16.712 -23.419  0.00  0.00    +0.046 C 
ATOM     11  C   UNL     1      34.799 -15.582 -21.284  0.00  0.00    +0.017 C 
BRANCH   9  13
ATOM     12  O   UNL     1      33.832 -15.328 -25.437  0.00  0.00    -0.269 OA
ATOM     13  N   UNL     1      34.249 -14.325 -23.330  0.00  0.00    -0.233 N 
ATOM     14  C   UNL     1      33.911 -14.339 -24.708  0.00  0.00    +0.257 C 
ATOM     15  C   UNL     1      34.182 -13.127 -22.614  0.00  0.00    +0.072 C 
ATOM     16  C   UNL     1      33.565 -13.020 -25.322  0.00  0.00    +0.059 C 
ATOM     17  C   UNL     1      33.837 -11.966 -23.180  0.00  0.00    +0.017 C 
ATOM     18  C   UNL     1      33.526 -11.913 -24.577  0.00  0.00    +0.006 C 
ENDBRANCH   9  13
ENDBRANCH   2   6
BRANCH   3  19
ATOM     19  C   UNL     1      35.771 -21.249 -19.662  0.00  0.00    +0.010 C 
BRANCH  19  20
ATOM     20  N   UNL     1      35.313 -21.471 -18.298  0.00  0.00    +0.394 N 
ATOM     21  C   UNL     1      35.581 -22.487 -16.217  0.00  0.00    +0.049 C 
ATOM     22  C   UNL     1      34.186 -22.821 -16.751  0.00  0.00    -0.005 C 
ATOM     23  C   UNL     1      36.365 -22.018 -17.439  0.00  0.00    -0.057 C 
ATOM     24  C   UNL     1      34.226 -22.447 -18.228  0.00  0.00    -0.075 C 
ATOM     25  H   UNL     1      35.013 -20.549 -17.984  0.00  0.00    -0.079 HD
BRANCH  21  27
ATOM     26  O   UNL     1      37.693 -22.363 -14.276  0.00  0.00    -0.270 OA
ATOM     27  N   UNL     1      36.210 -23.600 -15.561  0.00  0.00    -0.304 N 
ATOM     28  C   UNL     1      37.229 -23.445 -14.630  0.00  0.00    +0.252 C 
ATOM     29  H   UNL     1      35.905 -24.511 -15.781  0.00  0.00    +0.150 HD
BRANCH  28  32
ATOM     30 CL   UNL     1      37.750 -28.323 -12.074  0.00  0.00    -0.075 Cl
ATOM     31  S   UNL     1      36.751 -25.786 -13.249  0.00  0.00    -0.071 S 
ATOM     32  C   UNL     1      37.793 -24.697 -14.061  0.00  0.00    +0.084 C 
ATOM     33  C   UNL     1      39.094 -25.148 -14.086  0.00  0.00    +0.012 C 
ATOM     34  C   UNL     1      39.237 -26.404 -13.429  0.00  0.00    +0.019 C 
ATOM     35  C   UNL     1      38.041 -26.865 -12.927  0.00  0.00    +0.087 C 
ENDBRANCH  28  32
ENDBRANCH  21  27
ENDBRANCH  19  20
ENDBRANCH   3  19
TORSDOF 6
ENDMDL
MODEL 7
REMARK VINA RESULT:     -10.7      4.488     11.328
REMARK  Name = 42628060
REMARK  6 active torsions:
REMARK  status: ('A' for Active; 'I' for Inactive)
REMARK    1  A    between atoms: N_2  and  C_6
REMARK    2  A    between atoms: C_3  and  C_19
REMARK    3  A    between atoms: C_9  and  N_13
REMARK    4  A    between atoms: C_19  and  N_20
REMARK    5  A    between atoms: C_21  and  N_27
REMARK    6  A    between atoms: C_28  and  C_32
REMARK                            x       y       z     vdW  Elec       q    Type
REMARK                         _______ _______ _______ _____ _____    ______ ____
ROOT
ATOM      1  O   UNL     1      35.354 -17.949 -20.407  0.00  0.00    -0.277 OA
ATOM      2  N   UNL     1      35.516 -20.232 -20.934  0.00  0.00    -0.284 N 
ATOM      3  C   UNL     1      35.721 -18.867 -21.133  0.00  0.00    +0.205 C 
ATOM      4  H   UNL     1      35.879 -20.831 -21.626  0.00  0.00    +0.155 HD
ENDROOT
BRANCH   2   6
ATOM      5  F   UNL     1      32.739 -20.192 -20.721  0.00  0.00    -0.203 F 
ATOM      6  C   UNL     1      34.849 -20.856 -19.855  0.00  0.00    +0.078 C 
ATOM      7  C   UNL     1      33.456 -20.818 -19.777  0.00  0.00    +0.155 C 
ATOM      8  C   UNL     1      35.584 -21.509 -18.866  0.00  0.00    +0.018 C 
ATOM      9  C   UNL     1      33.537 -22.085 -17.722  0.00  0.00    +0.061 C 
ATOM     10  C   UNL     1      32.800 -21.433 -18.710  0.00  0.00    +0.046 C 
ATOM     11  C   UNL     1      34.928 -22.124 -17.799  0.00  0.00    +0.017 C 
BRANCH   9  13
ATOM     12  O   UNL     1      34.820 -23.127 -15.348  0.00  0.00    -0.269 OA
ATOM     13  N   UNL     1      32.855 -22.724 -16.613  0.00  0.00    -0.233 N 
ATOM     14  C   UNL     1      33.605 -23.231 -15.520  0.00  0.00    +0.257 C 
ATOM     15  C   UNL     1      31.462 -22.827 -16.601  0.00  0.00    +0.072 C 
ATOM     16  C   UNL     1      32.828 -23.916 -14.440  0.00  0.00    +0.059 C 
ATOM     17  C   UNL     1      30.789 -23.415 -15.607  0.00  0.00    +0.017 C 
ATOM     18  C   UNL     1      31.496 -23.981 -14.498  0.00  0.00    +0.006 C 
ENDBRANCH   9  13
ENDBRANCH   2   6
BRANCH   3  19
ATOM     19  C   UNL     1      36.487 -18.633 -22.424  0.00  0.00    +0.010 C 
BRANCH  19  20
ATOM     20  N   UNL     1      35.741 -17.712 -23.268  0.00  0.00    +0.394 N 
ATOM     21  C   UNL     1      34.610 -15.693 -23.548  0.00  0.00    +0.049 C 
ATOM     22  C   UNL     1      33.681 -16.838 -23.961  0.00  0.00    -0.005 C 
ATOM     23  C   UNL     1      35.702 -16.356 -22.716  0.00  0.00    -0.057 C 
ATOM     24  C   UNL     1      34.338 -18.098 -23.411  0.00  0.00    -0.075 C 
ATOM     25  H   UNL     1      36.233 -17.741 -24.160  0.00  0.00    -0.079 HD
BRANCH  21  27
ATOM     26  O   UNL     1      33.736 -13.167 -24.595  0.00  0.00    -0.270 OA
ATOM     27  N   UNL     1      33.930 -14.654 -22.825  0.00  0.00    -0.304 N 
ATOM     28  C   UNL     1      33.542 -13.458 -23.416  0.00  0.00    +0.252 C 
ATOM     29  H   UNL     1      33.730 -14.796 -21.871  0.00  0.00    +0.150 HD
BRANCH  28  32
ATOM     30 CL   UNL     1      31.624  -8.749 -21.238  0.00  0.00    -0.075 Cl
ATOM     31  S   UNL     1      32.929 -10.811 -22.928  0.00  0.00    -0.071 S 
ATOM     32  C   UNL     1      32.872 -12.474 -22.526  0.00  0.00    +0.084 C 
ATOM     33  C   UNL     1      32.169 -12.701 -21.363  0.00  0.00    +0.012 C 
ATOM     34  C   UNL     1      31.672 -11.493 -20.795  0.00  0.00    +0.019 C 
ATOM     35  C   UNL     1      32.013 -10.389 -21.545  0.00  0.00    +0.087 C 
ENDBRANCH  28  32
ENDBRANCH  21  27
ENDBRANCH  19  20
ENDBRANCH   3  19
TORSDOF 6
ENDMDL
MODEL 8
REMARK VINA RESULT:     -10.5      4.764     12.535
REMARK  Name = 42628060
REMARK  6 active torsions:
REMARK  status: ('A' for Active; 'I' for Inactive)
REMARK    1  A    between atoms: N_2  and  C_6
REMARK    2  A    between atoms: C_3  and  C_19
REMARK    3  A    between atoms: C_9  and  N_13
REMARK    4  A    between atoms: C_19  and  N_20
REMARK    5  A    between atoms: C_21  and  N_27
REMARK    6  A    between atoms: C_28  and  C_32
REMARK                            x       y       z     vdW  Elec       q    Type
REMARK                         _______ _______ _______ _____ _____    ______ ____
ROOT
ATOM      1  O   UNL     1      36.428 -20.151 -19.625  0.00  0.00    -0.277 OA
ATOM      2  N   UNL     1      34.598 -21.395 -18.838  0.00  0.00    -0.284 N 
ATOM      3  C   UNL     1      35.268 -20.543 -19.714  0.00  0.00    +0.205 C 
ATOM      4  H   UNL     1      33.663 -21.602 -19.063  0.00  0.00    +0.155 HD
ENDROOT
BRANCH   2   6
ATOM      5  F   UNL     1      32.978 -22.930 -17.170  0.00  0.00    -0.203 F 
ATOM      6  C   UNL     1      35.106 -21.998 -17.664  0.00  0.00    +0.078 C 
ATOM      7  C   UNL     1      34.269 -22.761 -16.850  0.00  0.00    +0.155 C 
ATOM      8  C   UNL     1      36.447 -21.828 -17.319  0.00  0.00    +0.018 C 
ATOM      9  C   UNL     1      36.113 -23.183 -15.348  0.00  0.00    +0.061 C 
ATOM     10  C   UNL     1      34.772 -23.354 -15.692  0.00  0.00    +0.046 C 
ATOM     11  C   UNL     1      36.951 -22.421 -16.161  0.00  0.00    +0.017 C 
BRANCH   9  13
ATOM     12  O   UNL     1      36.671 -26.002 -15.018  0.00  0.00    -0.269 OA
ATOM     13  N   UNL     1      36.637 -23.799 -14.143  0.00  0.00    -0.233 N 
ATOM     14  C   UNL     1      36.830 -25.203 -14.094  0.00  0.00    +0.257 C 
ATOM     15  C   UNL     1      36.973 -23.016 -13.036  0.00  0.00    +0.072 C 
ATOM     16  C   UNL     1      37.330 -25.762 -12.799  0.00  0.00    +0.059 C 
ATOM     17  C   UNL     1      37.449 -23.537 -11.901  0.00  0.00    +0.017 C 
ATOM     18  C   UNL     1      37.626 -24.953 -11.780  0.00  0.00    +0.006 C 
ENDBRANCH   9  13
ENDBRANCH   2   6
BRANCH   3  19
ATOM     19  C   UNL     1      34.348 -20.126 -20.848  0.00  0.00    +0.010 C 
BRANCH  19  20
ATOM     20  N   UNL     1      35.014 -19.125 -21.669  0.00  0.00    +0.394 N 
ATOM     21  C   UNL     1      35.382 -16.893 -22.232  0.00  0.00    +0.049 C 
ATOM     22  C   UNL     1      34.952 -17.653 -23.489  0.00  0.00    -0.005 C 
ATOM     23  C   UNL     1      34.963 -17.789 -21.071  0.00  0.00    -0.057 C 
ATOM     24  C   UNL     1      34.386 -18.973 -22.981  0.00  0.00    -0.075 C 
ATOM     25  H   UNL     1      35.971 -19.466 -21.746  0.00  0.00    -0.079 HD
BRANCH  21  27
ATOM     26  O   UNL     1      34.332 -15.336 -24.403  0.00  0.00    -0.270 OA
ATOM     27  N   UNL     1      34.803 -15.582 -22.145  0.00  0.00    -0.304 N 
ATOM     28  C   UNL     1      34.318 -14.900 -23.254  0.00  0.00    +0.252 C 
ATOM     29  H   UNL     1      34.747 -15.148 -21.262  0.00  0.00    +0.150 HD
BRANCH  28  32
ATOM     30 CL   UNL     1      31.621 -10.619 -21.019  0.00  0.00    -0.075 Cl
ATOM     31  S   UNL     1      32.767 -13.287 -21.639  0.00  0.00    -0.071 S 
ATOM     32  C   UNL     1      33.773 -13.541 -23.001  0.00  0.00    +0.084 C 
ATOM     33  C   UNL     1      33.960 -12.386 -23.728  0.00  0.00    +0.012 C 
ATOM     34  C   UNL     1      33.268 -11.278 -23.159  0.00  0.00    +0.019 C 
ATOM     35  C   UNL     1      32.579 -11.628 -22.020  0.00  0.00    +0.087 C 
ENDBRANCH  28  32
ENDBRANCH  21  27
ENDBRANCH  19  20
ENDBRANCH   3  19
TORSDOF 6
ENDMDL
MODEL 9
REMARK VINA RESULT:     -10.3      4.694     11.688
REMARK  Name = 42628060
REMARK  6 active torsions:
REMARK  status: ('A' for Active; 'I' for Inactive)
REMARK    1  A    between atoms: N_2  and  C_6
REMARK    2  A    between atoms: C_3  and  C_19
REMARK    3  A    between atoms: C_9  and  N_13
REMARK    4  A    between atoms: C_19  and  N_20
REMARK    5  A    between atoms: C_21  and  N_27
REMARK    6  A    between atoms: C_28  and  C_32
REMARK                            x       y       z     vdW  Elec       q    Type
REMARK                         _______ _______ _______ _____ _____    ______ ____
ROOT
ATOM      1  O   UNL     1      36.196 -18.930 -20.545  0.00  0.00    -0.277 OA
ATOM      2  N   UNL     1      34.691 -20.724 -20.375  0.00  0.00    -0.284 N 
ATOM      3  C   UNL     1      35.279 -19.617 -20.984  0.00  0.00    +0.205 C 
ATOM      4  H   UNL     1      33.958 -21.155 -20.872  0.00  0.00    +0.155 HD
ENDROOT
BRANCH   2   6
ATOM      5  F   UNL     1      32.782 -22.020 -18.813  0.00  0.00    -0.203 F 
ATOM      6  C   UNL     1      35.024 -21.301 -19.127  0.00  0.00    +0.078 C 
ATOM      7  C   UNL     1      34.044 -21.942 -18.369  0.00  0.00    +0.155 C 
ATOM      8  C   UNL     1      36.333 -21.226 -18.653  0.00  0.00    +0.018 C 
ATOM      9  C   UNL     1      35.685 -22.434 -16.665  0.00  0.00    +0.061 C 
ATOM     10  C   UNL     1      34.375 -22.509 -17.138  0.00  0.00    +0.046 C 
ATOM     11  C   UNL     1      36.664 -21.793 -17.422  0.00  0.00    +0.017 C 
BRANCH   9  13
ATOM     12  O   UNL     1      38.370 -22.744 -15.635  0.00  0.00    -0.269 OA
ATOM     13  N   UNL     1      36.029 -23.022 -15.385  0.00  0.00    -0.233 N 
ATOM     14  C   UNL     1      37.391 -23.154 -15.011  0.00  0.00    +0.257 C 
ATOM     15  C   UNL     1      35.028 -23.442 -14.506  0.00  0.00    +0.072 C 
ATOM     16  C   UNL     1      37.660 -23.813 -13.695  0.00  0.00    +0.059 C 
ATOM     17  C   UNL     1      35.294 -23.998 -13.320  0.00  0.00    +0.017 C 
ATOM     18  C   UNL     1      36.651 -24.194 -12.908  0.00  0.00    +0.006 C 
ENDBRANCH   9  13
ENDBRANCH   2   6
BRANCH   3  19
ATOM     19  C   UNL     1      34.615 -19.338 -22.321  0.00  0.00    +0.010 C 
BRANCH  19  20
ATOM     20  N   UNL     1      35.125 -18.087 -22.863  0.00  0.00    +0.394 N 
ATOM     21  C   UNL     1      35.073 -15.759 -22.963  0.00  0.00    +0.049 C 
ATOM     22  C   UNL     1      34.906 -16.316 -24.380  0.00  0.00    -0.005 C 
ATOM     23  C   UNL     1      34.755 -16.932 -22.042  0.00  0.00    -0.057 C 
ATOM     24  C   UNL     1      34.584 -17.793 -24.190  0.00  0.00    -0.075 C 
ATOM     25  H   UNL     1      36.135 -18.222 -22.890  0.00  0.00    -0.079 HD
BRANCH  21  27
ATOM     26  O   UNL     1      34.538 -14.564 -20.409  0.00  0.00    -0.270 OA
ATOM     27  N   UNL     1      34.232 -14.622 -22.707  0.00  0.00    -0.304 N 
ATOM     28  C   UNL     1      34.030 -14.110 -21.432  0.00  0.00    +0.252 C 
ATOM     29  H   UNL     1      33.780 -14.188 -23.467  0.00  0.00    +0.150 HD
BRANCH  28  32
ATOM     30 CL   UNL     1      31.396  -9.352 -22.443  0.00  0.00    -0.075 Cl
ATOM     31  S   UNL     1      33.182 -11.722 -22.526  0.00  0.00    -0.071 S 
ATOM     32  C   UNL     1      33.111 -12.946 -21.331  0.00  0.00    +0.084 C 
ATOM     33  C   UNL     1      32.155 -12.681 -20.375  0.00  0.00    +0.012 C 
ATOM     34  C   UNL     1      31.472 -11.457 -20.628  0.00  0.00    +0.019 C 
ATOM     35  C   UNL     1      31.931 -10.833 -21.767  0.00  0.00    +0.087 C 
ENDBRANCH  28  32
ENDBRANCH  21  27
ENDBRANCH  19  20
ENDBRANCH   3  19
TORSDOF 6
ENDMDL
