MODEL 1
REMARK VINA RESULT:     -10.9      0.000      0.000
REMARK  Name = 11560787
REMARK  5 active torsions:
REMARK  status: ('A' for Active; 'I' for Inactive)
REMARK    1  A    between atoms: N_2  and  C_23
REMARK    2  A    between atoms: C_8  and  C_9
REMARK    3  A    between atoms: C_12  and  N_15
REMARK    4  A    between atoms: C_13  and  O_21
REMARK    5  A    between atoms: C_23  and  C_26
REMARK                            x       y       z     vdW  Elec       q    Type
REMARK                         _______ _______ _______ _____ _____    ______ ____
ROOT
ATOM      1  O   UNL     1      34.953 -16.401 -24.026  0.00  0.00    -0.270 OA
ATOM      2  N   UNL     1      35.097 -16.997 -21.789  0.00  0.00    -0.274 N 
ATOM      3  C   UNL     1      34.827 -16.702 -20.383  0.00  0.00    +0.094 C 
ATOM      4  C   UNL     1      34.898 -15.218 -20.077  0.00  0.00    +0.026 C 
ATOM      5  C   UNL     1      33.952 -14.477 -21.003  0.00  0.00    +0.033 C 
ATOM      6  C   UNL     1      34.284 -14.769 -22.435  0.00  0.00    +0.031 C 
ATOM      7  C   UNL     1      34.802 -16.121 -22.835  0.00  0.00    +0.245 C 
ATOM      8  C   UNL     1      34.160 -13.835 -23.391  0.00  0.00    +0.000 C 
ENDROOT
BRANCH   8   9
ATOM      9  C   UNL     1      33.673 -12.462 -23.189  0.00  0.00    +0.003 C 
ATOM     10  C   UNL     1      32.644 -12.230 -22.289  0.00  0.00    +0.038 C 
ATOM     11  C   UNL     1      34.252 -11.422 -23.902  0.00  0.00    +0.001 C 
ATOM     12  C   UNL     1      32.755  -9.873 -22.807  0.00  0.00    +0.084 C 
ATOM     13  C   UNL     1      32.182 -10.928 -22.097  0.00  0.00    +0.152 C 
ATOM     14  C   UNL     1      33.790 -10.121 -23.710  0.00  0.00    +0.018 C 
BRANCH  12  15
ATOM     15  N   UNL     1      32.309  -8.575 -22.630  0.00  0.00    -0.280 N 
ATOM     16  N   UNL     1      31.072  -6.739 -22.880  0.00  0.00    -0.255 NA
ATOM     17  C   UNL     1      32.847  -7.635 -21.791  0.00  0.00    +0.134 C 
ATOM     18  C   UNL     1      31.244  -7.985 -23.261  0.00  0.00    +0.220 C 
ATOM     19  C   UNL     1      32.068  -6.514 -21.963  0.00  0.00    +0.054 C 
ATOM     20  C   UNL     1      32.198  -5.205 -21.305  0.00  0.00    +0.049 C 
ENDBRANCH  12  15
BRANCH  13  21
ATOM     21  O   UNL     1      31.171 -10.711 -21.210  0.00  0.00    -0.470 OA
ATOM     22  C   UNL     1      31.533 -10.564 -19.839  0.00  0.00    +0.253 C 
ENDBRANCH  13  21
ENDBRANCH   8   9
BRANCH   2  23
ATOM     23  C   UNL     1      35.552 -18.350 -22.082  0.00  0.00    +0.098 C 
ATOM     24  C   UNL     1      37.082 -18.390 -22.057  0.00  0.00    +0.026 C 
BRANCH  23  26
ATOM     25  F   UNL     1      33.307 -22.094 -18.541  0.00  0.00    -0.204 F 
ATOM     26  C   UNL     1      34.946 -19.361 -21.127  0.00  0.00    -0.004 C 
ATOM     27  C   UNL     1      33.578 -19.561 -21.138  0.00  0.00    -0.000 C 
ATOM     28  C   UNL     1      35.777 -20.056 -20.268  0.00  0.00    -0.000 C 
ATOM     29  C   UNL     1      33.021 -20.490 -20.259  0.00  0.00    +0.029 C 
ATOM     30  C   UNL     1      35.220 -20.985 -19.389  0.00  0.00    +0.029 C 
ATOM     31  C   UNL     1      33.843 -21.202 -19.385  0.00  0.00    +0.140 C 
ENDBRANCH  23  26
ENDBRANCH   2  23
TORSDOF 5
ENDMDL
MODEL 2
REMARK VINA RESULT:     -10.6      0.960      1.702
REMARK  Name = 11560787
REMARK  5 active torsions:
REMARK  status: ('A' for Active; 'I' for Inactive)
REMARK    1  A    between atoms: N_2  and  C_23
REMARK    2  A    between atoms: C_8  and  C_9
REMARK    3  A    between atoms: C_12  and  N_15
REMARK    4  A    between atoms: C_13  and  O_21
REMARK    5  A    between atoms: C_23  and  C_26
REMARK                            x       y       z     vdW  Elec       q    Type
REMARK                         _______ _______ _______ _____ _____    ______ ____
ROOT
ATOM      1  O   UNL     1      34.970 -16.441 -23.916  0.00  0.00    -0.270 OA
ATOM      2  N   UNL     1      35.138 -17.057 -21.686  0.00  0.00    -0.274 N 
ATOM      3  C   UNL     1      34.874 -16.780 -20.275  0.00  0.00    +0.094 C 
ATOM      4  C   UNL     1      34.924 -15.299 -19.955  0.00  0.00    +0.026 C 
ATOM      5  C   UNL     1      33.960 -14.563 -20.867  0.00  0.00    +0.033 C 
ATOM      6  C   UNL     1      34.286 -14.836 -22.304  0.00  0.00    +0.031 C 
ATOM      7  C   UNL     1      34.822 -16.175 -22.722  0.00  0.00    +0.245 C 
ATOM      8  C   UNL     1      34.142 -13.894 -23.250  0.00  0.00    +0.000 C 
ENDROOT
BRANCH   8   9
ATOM      9  C   UNL     1      33.634 -12.531 -23.031  0.00  0.00    +0.003 C 
ATOM     10  C   UNL     1      34.258 -11.463 -23.657  0.00  0.00    +0.038 C 
ATOM     11  C   UNL     1      32.539 -12.338 -22.202  0.00  0.00    +0.001 C 
ATOM     12  C   UNL     1      32.676  -9.962 -22.618  0.00  0.00    +0.084 C 
ATOM     13  C   UNL     1      33.776 -10.171 -23.449  0.00  0.00    +0.152 C 
ATOM     14  C   UNL     1      32.057 -11.046 -21.994  0.00  0.00    +0.018 C 
BRANCH  12  15
ATOM     15  N   UNL     1      32.186  -8.686 -22.400  0.00  0.00    -0.280 N 
ATOM     16  N   UNL     1      31.072  -6.788 -22.748  0.00  0.00    -0.255 NA
ATOM     17  C   UNL     1      32.430  -7.894 -21.309  0.00  0.00    +0.134 C 
ATOM     18  C   UNL     1      31.363  -7.974 -23.235  0.00  0.00    +0.220 C 
ATOM     19  C   UNL     1      31.733  -6.732 -21.547  0.00  0.00    +0.054 C 
ATOM     20  C   UNL     1      31.644  -5.535 -20.698  0.00  0.00    +0.049 C 
ENDBRANCH  12  15
BRANCH  13  21
ATOM     21  O   UNL     1      34.397  -9.128 -24.070  0.00  0.00    -0.470 OA
ATOM     22  C   UNL     1      35.422  -9.451 -25.007  0.00  0.00    +0.253 C 
ENDBRANCH  13  21
ENDBRANCH   8   9
BRANCH   2  23
ATOM     23  C   UNL     1      35.612 -18.400 -21.996  0.00  0.00    +0.098 C 
ATOM     24  C   UNL     1      37.143 -18.418 -21.976  0.00  0.00    +0.026 C 
BRANCH  23  26
ATOM     25  F   UNL     1      33.436 -22.216 -18.489  0.00  0.00    -0.204 F 
ATOM     26  C   UNL     1      35.025 -19.430 -21.050  0.00  0.00    -0.004 C 
ATOM     27  C   UNL     1      33.657 -19.631 -21.040  0.00  0.00    -0.000 C 
ATOM     28  C   UNL     1      35.872 -20.142 -20.221  0.00  0.00    -0.000 C 
ATOM     29  C   UNL     1      33.117 -20.578 -20.170  0.00  0.00    +0.029 C 
ATOM     30  C   UNL     1      35.332 -21.089 -19.351  0.00  0.00    +0.029 C 
ATOM     31  C   UNL     1      33.955 -21.307 -19.325  0.00  0.00    +0.140 C 
ENDBRANCH  23  26
ENDBRANCH   2  23
TORSDOF 5
ENDMDL
MODEL 3
REMARK VINA RESULT:     -10.2      5.503     12.071
REMARK  Name = 11560787
REMARK  5 active torsions:
REMARK  status: ('A' for Active; 'I' for Inactive)
REMARK    1  A    between atoms: N_2  and  C_23
REMARK    2  A    between atoms: C_8  and  C_9
REMARK    3  A    between atoms: C_12  and  N_15
REMARK    4  A    between atoms: C_13  and  O_21
REMARK    5  A    between atoms: C_23  and  C_26
REMARK                            x       y       z     vdW  Elec       q    Type
REMARK                         _______ _______ _______ _____ _____    ______ ____
ROOT
ATOM      1  O   UNL     1      37.334 -19.405 -21.002  0.00  0.00    -0.270 OA
ATOM      2  N   UNL     1      35.095 -19.414 -21.606  0.00  0.00    -0.274 N 
ATOM      3  C   UNL     1      33.698 -19.692 -21.275  0.00  0.00    +0.094 C 
ATOM      4  C   UNL     1      33.545 -20.901 -20.373  0.00  0.00    +0.026 C 
ATOM      5  C   UNL     1      34.392 -20.701 -19.131  0.00  0.00    +0.033 C 
ATOM      6  C   UNL     1      35.823 -20.460 -19.505  0.00  0.00    +0.031 C 
ATOM      7  C   UNL     1      36.165 -19.712 -20.761  0.00  0.00    +0.245 C 
ATOM      8  C   UNL     1      36.835 -20.926 -18.756  0.00  0.00    +0.000 C 
ENDROOT
BRANCH   8   9
ATOM      9  C   UNL     1      36.694 -21.678 -17.499  0.00  0.00    +0.003 C 
ATOM     10  C   UNL     1      35.512 -22.353 -17.238  0.00  0.00    +0.038 C 
ATOM     11  C   UNL     1      37.747 -21.698 -16.596  0.00  0.00    +0.001 C 
ATOM     12  C   UNL     1      36.430 -23.095 -15.130  0.00  0.00    +0.084 C 
ATOM     13  C   UNL     1      35.379 -23.067 -16.046  0.00  0.00    +0.152 C 
ATOM     14  C   UNL     1      37.615 -22.411 -15.405  0.00  0.00    +0.018 C 
BRANCH  12  15
ATOM     15  N   UNL     1      36.315 -23.797 -13.942  0.00  0.00    -0.280 N 
ATOM     16  N   UNL     1      36.299 -25.514 -12.523  0.00  0.00    -0.255 NA
ATOM     17  C   UNL     1      36.021 -23.272 -12.711  0.00  0.00    +0.134 C 
ATOM     18  C   UNL     1      36.473 -25.148 -13.774  0.00  0.00    +0.220 C 
ATOM     19  C   UNL     1      36.017 -24.349 -11.855  0.00  0.00    +0.054 C 
ATOM     20  C   UNL     1      35.759 -24.360 -10.407  0.00  0.00    +0.049 C 
ENDBRANCH  12  15
BRANCH  13  21
ATOM     21  O   UNL     1      34.213 -23.728 -15.800  0.00  0.00    -0.470 OA
ATOM     22  C   UNL     1      33.039 -23.225 -16.434  0.00  0.00    +0.253 C 
ENDBRANCH  13  21
ENDBRANCH   8   9
BRANCH   2  23
ATOM     23  C   UNL     1      35.322 -18.642 -22.821  0.00  0.00    +0.098 C 
ATOM     24  C   UNL     1      34.515 -19.251 -23.971  0.00  0.00    +0.026 C 
BRANCH  23  26
ATOM     25  F   UNL     1      34.104 -13.206 -22.071  0.00  0.00    -0.204 F 
ATOM     26  C   UNL     1      34.993 -17.175 -22.619  0.00  0.00    -0.004 C 
ATOM     27  C   UNL     1      34.609 -16.415 -23.708  0.00  0.00    -0.000 C 
ATOM     28  C   UNL     1      35.086 -16.634 -21.350  0.00  0.00    -0.000 C 
ATOM     29  C   UNL     1      34.307 -15.066 -23.522  0.00  0.00    +0.029 C 
ATOM     30  C   UNL     1      34.783 -15.285 -21.163  0.00  0.00    +0.029 C 
ATOM     31  C   UNL     1      34.394 -14.502 -22.249  0.00  0.00    +0.140 C 
ENDBRANCH  23  26
ENDBRANCH   2  23
TORSDOF 5
ENDMDL
MODEL 4
REMARK VINA RESULT:     -10.0      5.976      9.872
REMARK  Name = 11560787
REMARK  5 active torsions:
REMARK  status: ('A' for Active; 'I' for Inactive)
REMARK    1  A    between atoms: N_2  and  C_23
REMARK    2  A    between atoms: C_8  and  C_9
REMARK    3  A    between atoms: C_12  and  N_15
REMARK    4  A    between atoms: C_13  and  O_21
REMARK    5  A    between atoms: C_23  and  C_26
REMARK                            x       y       z     vdW  Elec       q    Type
REMARK                         _______ _______ _______ _____ _____    ______ ____
ROOT
ATOM      1  O   UNL     1      38.011 -22.469 -15.723  0.00  0.00    -0.270 OA
ATOM      2  N   UNL     1      36.013 -23.488 -15.135  0.00  0.00    -0.274 N 
ATOM      3  C   UNL     1      34.630 -23.838 -15.457  0.00  0.00    +0.094 C 
ATOM      4  C   UNL     1      33.938 -22.769 -16.281  0.00  0.00    +0.026 C 
ATOM      5  C   UNL     1      34.759 -22.499 -17.528  0.00  0.00    +0.033 C 
ATOM      6  C   UNL     1      36.156 -22.103 -17.161  0.00  0.00    +0.031 C 
ATOM      7  C   UNL     1      36.822 -22.696 -15.953  0.00  0.00    +0.245 C 
ATOM      8  C   UNL     1      36.840 -21.193 -17.872  0.00  0.00    +0.000 C 
ENDROOT
BRANCH   8   9
ATOM      9  C   UNL     1      36.354 -20.507 -19.078  0.00  0.00    +0.003 C 
ATOM     10  C   UNL     1      35.031 -20.661 -19.463  0.00  0.00    +0.038 C 
ATOM     11  C   UNL     1      37.227 -19.716 -19.811  0.00  0.00    +0.001 C 
ATOM     12  C   UNL     1      35.437 -19.212 -21.353  0.00  0.00    +0.084 C 
ATOM     13  C   UNL     1      34.570 -20.010 -20.608  0.00  0.00    +0.152 C 
ATOM     14  C   UNL     1      36.767 -19.065 -20.954  0.00  0.00    +0.018 C 
BRANCH  12  15
ATOM     15  N   UNL     1      34.997 -18.560 -22.492  0.00  0.00    -0.280 N 
ATOM     16  N   UNL     1      34.159 -18.257 -24.533  0.00  0.00    -0.255 NA
ATOM     17  C   UNL     1      34.986 -17.206 -22.703  0.00  0.00    +0.134 C 
ATOM     18  C   UNL     1      34.489 -19.145 -23.623  0.00  0.00    +0.220 C 
ATOM     19  C   UNL     1      34.465 -17.046 -23.966  0.00  0.00    +0.054 C 
ATOM     20  C   UNL     1      34.229 -15.794 -24.701  0.00  0.00    +0.049 C 
ENDBRANCH  12  15
BRANCH  13  21
ATOM     21  O   UNL     1      33.267 -20.169 -20.976  0.00  0.00    -0.470 OA
ATOM     22  C   UNL     1      32.349 -20.556 -19.957  0.00  0.00    +0.253 C 
ENDBRANCH  13  21
ENDBRANCH   8   9
BRANCH   2  23
ATOM     23  C   UNL     1      36.585 -24.152 -13.971  0.00  0.00    +0.098 C 
ATOM     24  C   UNL     1      35.473 -24.471 -12.968  0.00  0.00    +0.026 C 
BRANCH  23  26
ATOM     25  F   UNL     1      39.467 -28.753 -15.426  0.00  0.00    -0.204 F 
ATOM     26  C   UNL     1      37.363 -25.394 -14.363  0.00  0.00    -0.004 C 
ATOM     27  C   UNL     1      38.731 -25.420 -14.166  0.00  0.00    -0.000 C 
ATOM     28  C   UNL     1      36.684 -26.467 -14.909  0.00  0.00    -0.000 C 
ATOM     29  C   UNL     1      39.446 -26.562 -14.527  0.00  0.00    +0.029 C 
ATOM     30  C   UNL     1      37.399 -27.610 -15.270  0.00  0.00    +0.029 C 
ATOM     31  C   UNL     1      38.779 -27.657 -15.079  0.00  0.00    +0.140 C 
ENDBRANCH  23  26
ENDBRANCH   2  23
TORSDOF 5
ENDMDL
MODEL 5
REMARK VINA RESULT:      -9.9      6.013     10.085
REMARK  Name = 11560787
REMARK  5 active torsions:
REMARK  status: ('A' for Active; 'I' for Inactive)
REMARK    1  A    between atoms: N_2  and  C_23
REMARK    2  A    between atoms: C_8  and  C_9
REMARK    3  A    between atoms: C_12  and  N_15
REMARK    4  A    between atoms: C_13  and  O_21
REMARK    5  A    between atoms: C_23  and  C_26
REMARK                            x       y       z     vdW  Elec       q    Type
REMARK                         _______ _______ _______ _____ _____    ______ ____
ROOT
ATOM      1  O   UNL     1      34.285 -23.924 -15.658  0.00  0.00    -0.270 OA
ATOM      2  N   UNL     1      36.399 -23.374 -14.879  0.00  0.00    -0.274 N 
ATOM      3  C   UNL     1      37.585 -22.521 -14.938  0.00  0.00    +0.094 C 
ATOM      4  C   UNL     1      37.892 -22.050 -16.346  0.00  0.00    +0.026 C 
ATOM      5  C   UNL     1      36.667 -21.356 -16.912  0.00  0.00    +0.033 C 
ATOM      6  C   UNL     1      35.481 -22.272 -16.875  0.00  0.00    +0.031 C 
ATOM      7  C   UNL     1      35.319 -23.261 -15.757  0.00  0.00    +0.245 C 
ATOM      8  C   UNL     1      34.552 -22.260 -17.843  0.00  0.00    +0.000 C 
ENDROOT
BRANCH   8   9
ATOM      9  C   UNL     1      34.544 -21.366 -19.011  0.00  0.00    +0.003 C 
ATOM     10  C   UNL     1      35.745 -20.898 -19.520  0.00  0.00    +0.038 C 
ATOM     11  C   UNL     1      33.333 -21.006 -19.584  0.00  0.00    +0.001 C 
ATOM     12  C   UNL     1      34.527 -19.681 -21.214  0.00  0.00    +0.084 C 
ATOM     13  C   UNL     1      35.737 -20.050 -20.628  0.00  0.00    +0.152 C 
ATOM     14  C   UNL     1      33.324 -20.159 -20.692  0.00  0.00    +0.018 C 
BRANCH  12  15
ATOM     15  N   UNL     1      34.500 -18.840 -22.313  0.00  0.00    -0.280 N 
ATOM     16  N   UNL     1      34.214 -18.156 -24.413  0.00  0.00    -0.255 NA
ATOM     17  C   UNL     1      34.836 -17.511 -22.331  0.00  0.00    +0.134 C 
ATOM     18  C   UNL     1      34.133 -19.177 -23.590  0.00  0.00    +0.220 C 
ATOM     19  C   UNL     1      34.651 -17.114 -23.635  0.00  0.00    +0.054 C 
ATOM     20  C   UNL     1      34.863 -15.780 -24.219  0.00  0.00    +0.049 C 
ENDBRANCH  12  15
BRANCH  13  21
ATOM     21  O   UNL     1      36.925 -19.597 -21.120  0.00  0.00    -0.470 OA
ATOM     22  C   UNL     1      37.523 -18.492 -20.448  0.00  0.00    +0.253 C 
ENDBRANCH  13  21
ENDBRANCH   8   9
BRANCH   2  23
ATOM     23  C   UNL     1      36.311 -24.268 -13.731  0.00  0.00    +0.098 C 
ATOM     24  C   UNL     1      34.840 -24.542 -13.410  0.00  0.00    +0.026 C 
BRANCH  23  26
ATOM     25  F   UNL     1      39.178 -29.025 -14.597  0.00  0.00    -0.204 F 
ATOM     26  C   UNL     1      37.085 -25.552 -13.965  0.00  0.00    -0.004 C 
ATOM     27  C   UNL     1      36.553 -26.514 -14.803  0.00  0.00    -0.000 C 
ATOM     28  C   UNL     1      38.303 -25.727 -13.334  0.00  0.00    -0.000 C 
ATOM     29  C   UNL     1      37.264 -27.695 -15.018  0.00  0.00    +0.029 C 
ATOM     30  C   UNL     1      39.014 -26.907 -13.549  0.00  0.00    +0.029 C 
ATOM     31  C   UNL     1      38.495 -27.891 -14.390  0.00  0.00    +0.140 C 
ENDBRANCH  23  26
ENDBRANCH   2  23
TORSDOF 5
ENDMDL
MODEL 6
REMARK VINA RESULT:      -9.4      1.433      1.826
REMARK  Name = 11560787
REMARK  5 active torsions:
REMARK  status: ('A' for Active; 'I' for Inactive)
REMARK    1  A    between atoms: N_2  and  C_23
REMARK    2  A    between atoms: C_8  and  C_9
REMARK    3  A    between atoms: C_12  and  N_15
REMARK    4  A    between atoms: C_13  and  O_21
REMARK    5  A    between atoms: C_23  and  C_26
REMARK                            x       y       z     vdW  Elec       q    Type
REMARK                         _______ _______ _______ _____ _____    ______ ____
ROOT
ATOM      1  O   UNL     1      33.912 -15.527 -24.843  0.00  0.00    -0.270 OA
ATOM      2  N   UNL     1      34.419 -16.271 -22.706  0.00  0.00    -0.274 N 
ATOM      3  C   UNL     1      34.506 -16.020 -21.268  0.00  0.00    +0.094 C 
ATOM      4  C   UNL     1      34.893 -14.588 -20.951  0.00  0.00    +0.026 C 
ATOM      5  C   UNL     1      33.913 -13.651 -21.631  0.00  0.00    +0.033 C 
ATOM      6  C   UNL     1      33.881 -13.907 -23.108  0.00  0.00    +0.031 C 
ATOM      7  C   UNL     1      34.064 -15.298 -23.642  0.00  0.00    +0.245 C 
ATOM      8  C   UNL     1      33.720 -12.910 -23.992  0.00  0.00    +0.000 C 
ENDROOT
BRANCH   8   9
ATOM      9  C   UNL     1      33.528 -11.491 -23.657  0.00  0.00    +0.003 C 
ATOM     10  C   UNL     1      32.527 -11.130 -22.767  0.00  0.00    +0.038 C 
ATOM     11  C   UNL     1      34.352 -10.536 -24.236  0.00  0.00    +0.001 C 
ATOM     12  C   UNL     1      33.166  -8.815 -23.024  0.00  0.00    +0.084 C 
ATOM     13  C   UNL     1      32.345  -9.784 -22.449  0.00  0.00    +0.152 C 
ATOM     14  C   UNL     1      34.170  -9.191 -23.918  0.00  0.00    +0.018 C 
BRANCH  12  15
ATOM     15  N   UNL     1      32.999  -7.475 -22.721  0.00  0.00    -0.280 N 
ATOM     16  N   UNL     1      32.938  -5.594 -21.527  0.00  0.00    -0.255 NA
ATOM     17  C   UNL     1      32.625  -6.482 -23.589  0.00  0.00    +0.134 C 
ATOM     18  C   UNL     1      33.175  -6.887 -21.494  0.00  0.00    +0.220 C 
ATOM     19  C   UNL     1      32.596  -5.336 -22.831  0.00  0.00    +0.054 C 
ATOM     20  C   UNL     1      32.257  -3.970 -23.258  0.00  0.00    +0.049 C 
ENDBRANCH  12  15
BRANCH  13  21
ATOM     21  O   UNL     1      31.358  -9.441 -21.573  0.00  0.00    -0.470 OA
ATOM     22  C   UNL     1      31.433 -10.000 -20.264  0.00  0.00    +0.253 C 
ENDBRANCH  13  21
ENDBRANCH   8   9
BRANCH   2  23
ATOM     23  C   UNL     1      34.565 -17.660 -23.122  0.00  0.00    +0.098 C 
ATOM     24  C   UNL     1      35.401 -17.724 -24.403  0.00  0.00    +0.026 C 
BRANCH  23  26
ATOM     25  F   UNL     1      36.772 -20.820 -19.031  0.00  0.00    -0.204 F 
ATOM     26  C   UNL     1      35.160 -18.513 -22.018  0.00  0.00    -0.004 C 
ATOM     27  C   UNL     1      34.361 -19.446 -21.384  0.00  0.00    -0.000 C 
ATOM     28  C   UNL     1      36.487 -18.335 -21.673  0.00  0.00    -0.000 C 
ATOM     29  C   UNL     1      34.909 -20.231 -20.369  0.00  0.00    +0.029 C 
ATOM     30  C   UNL     1      37.035 -19.120 -20.658  0.00  0.00    +0.029 C 
ATOM     31  C   UNL     1      36.246 -20.067 -20.006  0.00  0.00    +0.140 C 
ENDBRANCH  23  26
ENDBRANCH   2  23
TORSDOF 5
ENDMDL
MODEL 7
REMARK VINA RESULT:      -9.4      4.838     11.538
REMARK  Name = 11560787
REMARK  5 active torsions:
REMARK  status: ('A' for Active; 'I' for Inactive)
REMARK    1  A    between atoms: N_2  and  C_23
REMARK    2  A    between atoms: C_8  and  C_9
REMARK    3  A    between atoms: C_12  and  N_15
REMARK    4  A    between atoms: C_13  and  O_21
REMARK    5  A    between atoms: C_23  and  C_26
REMARK                            x       y       z     vdW  Elec       q    Type
REMARK                         _______ _______ _______ _____ _____    ______ ____
ROOT
ATOM      1  O   UNL     1      30.806  -7.317 -23.204  0.00  0.00    -0.270 OA
ATOM      2  N   UNL     1      32.800  -6.135 -23.280  0.00  0.00    -0.274 N 
ATOM      3  C   UNL     1      34.252  -6.117 -23.446  0.00  0.00    +0.094 C 
ATOM      4  C   UNL     1      34.916  -7.363 -22.892  0.00  0.00    +0.026 C 
ATOM      5  C   UNL     1      34.287  -8.585 -23.534  0.00  0.00    +0.033 C 
ATOM      6  C   UNL     1      32.806  -8.593 -23.308  0.00  0.00    +0.031 C 
ATOM      7  C   UNL     1      32.037  -7.304 -23.262  0.00  0.00    +0.245 C 
ATOM      8  C   UNL     1      32.130  -9.736 -23.110  0.00  0.00    +0.000 C 
ENDROOT
BRANCH   8   9
ATOM      9  C   UNL     1      32.711 -11.087 -23.119  0.00  0.00    +0.003 C 
ATOM     10  C   UNL     1      32.638 -11.867 -21.976  0.00  0.00    +0.038 C 
ATOM     11  C   UNL     1      33.322 -11.558 -24.273  0.00  0.00    +0.001 C 
ATOM     12  C   UNL     1      33.806 -13.635 -23.137  0.00  0.00    +0.084 C 
ATOM     13  C   UNL     1      33.189 -13.149 -21.985  0.00  0.00    +0.152 C 
ATOM     14  C   UNL     1      33.872 -12.839 -24.282  0.00  0.00    +0.018 C 
BRANCH  12  15
ATOM     15  N   UNL     1      34.359 -14.904 -23.163  0.00  0.00    -0.280 N 
ATOM     16  N   UNL     1      35.013 -16.882 -23.952  0.00  0.00    -0.255 NA
ATOM     17  C   UNL     1      34.939 -15.562 -22.111  0.00  0.00    +0.134 C 
ATOM     18  C   UNL     1      34.429 -15.741 -24.247  0.00  0.00    +0.220 C 
ATOM     19  C   UNL     1      35.334 -16.776 -22.622  0.00  0.00    +0.054 C 
ATOM     20  C   UNL     1      36.013 -17.880 -21.926  0.00  0.00    +0.049 C 
ENDBRANCH  12  15
BRANCH  13  21
ATOM     21  O   UNL     1      33.111 -13.908 -20.855  0.00  0.00    -0.470 OA
ATOM     22  C   UNL     1      32.175 -13.495 -19.862  0.00  0.00    +0.253 C 
ENDBRANCH  13  21
ENDBRANCH   8   9
BRANCH   2  23
ATOM     23  C   UNL     1      32.139  -4.836 -23.294  0.00  0.00    +0.098 C 
ATOM     24  C   UNL     1      32.453  -4.090 -21.995  0.00  0.00    +0.026 C 
BRANCH  23  26
ATOM     25  F   UNL     1      33.582  -1.837 -27.823  0.00  0.00    -0.204 F 
ATOM     26  C   UNL     1      32.528  -4.027 -24.516  0.00  0.00    -0.004 C 
ATOM     27  C   UNL     1      32.702  -2.661 -24.390  0.00  0.00    -0.000 C 
ATOM     28  C   UNL     1      32.700  -4.675 -25.725  0.00  0.00    -0.000 C 
ATOM     29  C   UNL     1      33.061  -1.917 -25.514  0.00  0.00    +0.029 C 
ATOM     30  C   UNL     1      33.059  -3.931 -26.849  0.00  0.00    +0.029 C 
ATOM     31  C   UNL     1      33.239  -2.552 -26.744  0.00  0.00    +0.140 C 
ENDBRANCH  23  26
ENDBRANCH   2  23
TORSDOF 5
ENDMDL
MODEL 8
REMARK VINA RESULT:      -9.4      5.672     12.130
REMARK  Name = 11560787
REMARK  5 active torsions:
REMARK  status: ('A' for Active; 'I' for Inactive)
REMARK    1  A    between atoms: N_2  and  C_23
REMARK    2  A    between atoms: C_8  and  C_9
REMARK    3  A    between atoms: C_12  and  N_15
REMARK    4  A    between atoms: C_13  and  O_21
REMARK    5  A    between atoms: C_23  and  C_26
REMARK                            x       y       z     vdW  Elec       q    Type
REMARK                         _______ _______ _______ _____ _____    ______ ____
ROOT
ATOM      1  O   UNL     1      37.110 -19.954 -21.128  0.00  0.00    -0.270 OA
ATOM      2  N   UNL     1      34.907 -19.598 -21.760  0.00  0.00    -0.274 N 
ATOM      3  C   UNL     1      33.483 -19.594 -21.430  0.00  0.00    +0.094 C 
ATOM      4  C   UNL     1      33.111 -20.688 -20.448  0.00  0.00    +0.026 C 
ATOM      5  C   UNL     1      33.980 -20.558 -19.211  0.00  0.00    +0.033 C 
ATOM      6  C   UNL     1      35.431 -20.609 -19.582  0.00  0.00    +0.031 C 
ATOM      7  C   UNL     1      35.905 -20.026 -20.882  0.00  0.00    +0.245 C 
ATOM      8  C   UNL     1      36.340 -21.197 -18.788  0.00  0.00    +0.000 C 
ENDROOT
BRANCH   8   9
ATOM      9  C   UNL     1      36.064 -21.820 -17.485  0.00  0.00    +0.003 C 
ATOM     10  C   UNL     1      37.104 -22.017 -16.590  0.00  0.00    +0.038 C 
ATOM     11  C   UNL     1      34.766 -22.199 -17.173  0.00  0.00    +0.001 C 
ATOM     12  C   UNL     1      35.542 -22.993 -15.027  0.00  0.00    +0.084 C 
ATOM     13  C   UNL     1      36.841 -22.608 -15.353  0.00  0.00    +0.152 C 
ATOM     14  C   UNL     1      34.504 -22.789 -15.937  0.00  0.00    +0.018 C 
BRANCH  12  15
ATOM     15  N   UNL     1      35.264 -23.582 -13.805  0.00  0.00    -0.280 N 
ATOM     16  N   UNL     1      34.165 -24.718 -12.236  0.00  0.00    -0.255 NA
ATOM     17  C   UNL     1      36.066 -23.573 -12.694  0.00  0.00    +0.134 C 
ATOM     18  C   UNL     1      34.133 -24.284 -13.476  0.00  0.00    +0.220 C 
ATOM     19  C   UNL     1      35.368 -24.279 -11.743  0.00  0.00    +0.054 C 
ATOM     20  C   UNL     1      35.764 -24.579 -10.359  0.00  0.00    +0.049 C 
ENDBRANCH  12  15
BRANCH  13  21
ATOM     21  O   UNL     1      37.872 -22.796 -14.481  0.00  0.00    -0.470 OA
ATOM     22  C   UNL     1      38.767 -23.869 -14.760  0.00  0.00    +0.253 C 
ENDBRANCH  13  21
ENDBRANCH   8   9
BRANCH   2  23
ATOM     23  C   UNL     1      35.272 -18.967 -23.022  0.00  0.00    +0.098 C 
ATOM     24  C   UNL     1      34.558 -19.680 -24.174  0.00  0.00    +0.026 C 
BRANCH  23  26
ATOM     25  F   UNL     1      34.165 -13.457 -22.973  0.00  0.00    -0.204 F 
ATOM     26  C   UNL     1      34.973 -17.481 -23.009  0.00  0.00    -0.004 C 
ATOM     27  C   UNL     1      35.200 -16.760 -21.851  0.00  0.00    -0.000 C 
ATOM     28  C   UNL     1      34.482 -16.883 -24.155  0.00  0.00    -0.000 C 
ATOM     29  C   UNL     1      34.925 -15.392 -21.839  0.00  0.00    +0.029 C 
ATOM     30  C   UNL     1      34.208 -15.516 -24.143  0.00  0.00    +0.029 C 
ATOM     31  C   UNL     1      34.429 -14.771 -22.985  0.00  0.00    +0.140 C 
ENDBRANCH  23  26
ENDBRANCH   2  23
TORSDOF 5
ENDMDL
MODEL 9
REMARK VINA RESULT:      -9.1      4.539     11.408
REMARK  Name = 11560787
REMARK  5 active torsions:
REMARK  status: ('A' for Active; 'I' for Inactive)
REMARK    1  A    between atoms: N_2  and  C_23
REMARK    2  A    between atoms: C_8  and  C_9
REMARK    3  A    between atoms: C_12  and  N_15
REMARK    4  A    between atoms: C_13  and  O_21
REMARK    5  A    between atoms: C_23  and  C_26
REMARK                            x       y       z     vdW  Elec       q    Type
REMARK                         _______ _______ _______ _____ _____    ______ ____
ROOT
ATOM      1  O   UNL     1      30.842  -8.024 -22.210  0.00  0.00    -0.270 OA
ATOM      2  N   UNL     1      32.682  -6.808 -22.929  0.00  0.00    -0.274 N 
ATOM      3  C   UNL     1      34.010  -6.769 -23.540  0.00  0.00    +0.094 C 
ATOM      4  C   UNL     1      34.845  -7.985 -23.193  0.00  0.00    +0.026 C 
ATOM      5  C   UNL     1      34.080  -9.237 -23.581  0.00  0.00    +0.033 C 
ATOM      6  C   UNL     1      32.744  -9.266 -22.904  0.00  0.00    +0.031 C 
ATOM      7  C   UNL     1      31.993  -7.990 -22.649  0.00  0.00    +0.245 C 
ATOM      8  C   UNL     1      32.193 -10.414 -22.481  0.00  0.00    +0.000 C 
ENDROOT
BRANCH   8   9
ATOM      9  C   UNL     1      32.778 -11.754 -22.641  0.00  0.00    +0.003 C 
ATOM     10  C   UNL     1      32.999 -12.254 -23.915  0.00  0.00    +0.038 C 
ATOM     11  C   UNL     1      33.101 -12.496 -21.514  0.00  0.00    +0.001 C 
ATOM     12  C   UNL     1      33.883 -14.280 -22.942  0.00  0.00    +0.084 C 
ATOM     13  C   UNL     1      33.555 -13.524 -24.067  0.00  0.00    +0.152 C 
ATOM     14  C   UNL     1      33.656 -13.766 -21.665  0.00  0.00    +0.018 C 
BRANCH  12  15
ATOM     15  N   UNL     1      34.434 -15.543 -23.074  0.00  0.00    -0.280 N 
ATOM     16  N   UNL     1      34.969 -17.504 -23.986  0.00  0.00    -0.255 NA
ATOM     17  C   UNL     1      35.178 -16.211 -22.136  0.00  0.00    +0.134 C 
ATOM     18  C   UNL     1      34.338 -16.365 -24.168  0.00  0.00    +0.220 C 
ATOM     19  C   UNL     1      35.495 -17.414 -22.722  0.00  0.00    +0.054 C 
ATOM     20  C   UNL     1      36.282 -18.521 -22.158  0.00  0.00    +0.049 C 
ENDBRANCH  12  15
BRANCH  13  21
ATOM     21  O   UNL     1      33.767 -14.005 -25.325  0.00  0.00    -0.470 OA
ATOM     22  C   UNL     1      33.495 -13.121 -26.409  0.00  0.00    +0.253 C 
ENDBRANCH  13  21
ENDBRANCH   8   9
BRANCH   2  23
ATOM     23  C   UNL     1      32.015  -5.523 -22.765  0.00  0.00    +0.098 C 
ATOM     24  C   UNL     1      32.429  -4.901 -21.428  0.00  0.00    +0.026 C 
BRANCH  23  26
ATOM     25  F   UNL     1      33.072  -2.084 -27.083  0.00  0.00    -0.204 F 
ATOM     26  C   UNL     1      32.300  -4.595 -23.930  0.00  0.00    -0.004 C 
ATOM     27  C   UNL     1      32.427  -3.239 -23.694  0.00  0.00    -0.000 C 
ATOM     28  C   UNL     1      32.427  -5.129 -25.199  0.00  0.00    -0.000 C 
ATOM     29  C   UNL     1      32.689  -2.385 -24.766  0.00  0.00    +0.029 C 
ATOM     30  C   UNL     1      32.689  -4.275 -26.271  0.00  0.00    +0.029 C 
ATOM     31  C   UNL     1      32.820  -2.904 -26.054  0.00  0.00    +0.140 C 
ENDBRANCH  23  26
ENDBRANCH   2  23
TORSDOF 5
ENDMDL
