MODEL 1
REMARK VINA RESULT:     -11.7      0.000      0.000
REMARK  Name = 5288607
REMARK  4 active torsions:
REMARK  status: ('A' for Active; 'I' for Inactive)
REMARK    1  A    between atoms: N_2  and  C_19
REMARK    2  A    between atoms: C_3  and  C_6
REMARK    3  A    between atoms: C_5  and  C_16
REMARK    4  A    between atoms: C_19  and  C_21
REMARK                            x       y       z     vdW  Elec       q    Type
REMARK                         _______ _______ _______ _____ _____    ______ ____
ROOT
ATOM      1  O   UNL     1      33.770 -16.086 -25.150  0.00  0.00    -0.270 OA
ATOM      2  N   UNL     1      34.128 -14.076 -24.039  0.00  0.00    -0.270 N 
ATOM      3  C   UNL     1      34.145 -15.469 -24.153  0.00  0.00    +0.249 C 
ATOM      4  C   UNL     1      33.640 -13.274 -25.154  0.00  0.00    +0.116 C 
ENDROOT
BRANCH   3   6
ATOM      5  C   UNL     1      34.901 -17.542 -23.044  0.00  0.00    +0.006 C 
ATOM      6  C   UNL     1      34.630 -16.219 -22.955  0.00  0.00    +0.058 C 
BRANCH   5  16
ATOM      7  O   UNL     1      36.442 -22.350 -17.227  0.00  0.00    -0.275 OA
ATOM      8  N   UNL     1      36.742 -20.714 -18.810  0.00  0.00    -0.270 N 
ATOM      9  N   UNL     1      37.132 -19.081 -20.476  0.00  0.00    -0.229 NA
ATOM     10  C   UNL     1      33.996 -20.929 -19.480  0.00  0.00    +0.039 C 
ATOM     11  C   UNL     1      34.928 -20.050 -20.259  0.00  0.00    +0.010 C 
ATOM     12  C   UNL     1      34.739 -22.123 -18.898  0.00  0.00    +0.090 C 
ATOM     13  C   UNL     1      36.265 -19.934 -19.881  0.00  0.00    +0.130 C 
ATOM     14  C   UNL     1      34.472 -19.250 -21.307  0.00  0.00    +0.000 C 
ATOM     15  C   UNL     1      36.028 -21.730 -18.207  0.00  0.00    +0.227 C 
ATOM     16  C   UNL     1      35.347 -18.383 -21.948  0.00  0.00    +0.019 C 
ATOM     17  C   UNL     1      36.655 -18.333 -21.496  0.00  0.00    +0.100 C 
ATOM     18  H   UNL     1      37.646 -20.522 -18.468  0.00  0.00    +0.156 HD
ENDBRANCH   5  16
ENDBRANCH   3   6
BRANCH   2  19
ATOM     19  C   UNL     1      34.536 -13.324 -22.854  0.00  0.00    +0.122 C 
BRANCH  19  21
ATOM     20  N   UNL     1      31.783 -11.121 -21.908  0.00  0.00    -0.284 N 
ATOM     21  C   UNL     1      33.565 -12.223 -22.600  0.00  0.00    +0.014 C 
ATOM     22  C   UNL     1      33.705 -10.877 -23.014  0.00  0.00    +0.013 C 
ATOM     23  C   UNL     1      32.569 -10.201 -22.565  0.00  0.00    +0.051 C 
ATOM     24  C   UNL     1      32.381 -12.352 -21.926  0.00  0.00    +0.063 C 
ATOM     25  C   UNL     1      34.685 -10.157 -23.725  0.00  0.00    +0.001 C 
ATOM     26  C   UNL     1      32.363  -8.835 -22.793  0.00  0.00    +0.015 C 
ATOM     27  C   UNL     1      30.507 -10.842 -21.284  0.00  0.00    +0.117 C 
ATOM     28  C   UNL     1      34.493  -8.791 -23.961  0.00  0.00    +0.000 C 
ATOM     29  C   UNL     1      33.349  -8.143 -23.502  0.00  0.00    +0.001 C 
ENDBRANCH  19  21
ENDBRANCH   2  19
TORSDOF 4
ENDMDL
MODEL 2
REMARK VINA RESULT:     -10.8      1.605      2.869
REMARK  Name = 5288607
REMARK  4 active torsions:
REMARK  status: ('A' for Active; 'I' for Inactive)
REMARK    1  A    between atoms: N_2  and  C_19
REMARK    2  A    between atoms: C_3  and  C_6
REMARK    3  A    between atoms: C_5  and  C_16
REMARK    4  A    between atoms: C_19  and  C_21
REMARK                            x       y       z     vdW  Elec       q    Type
REMARK                         _______ _______ _______ _____ _____    ______ ____
ROOT
ATOM      1  O   UNL     1      34.471 -18.201 -24.455  0.00  0.00    -0.270 OA
ATOM      2  N   UNL     1      34.550 -16.089 -23.488  0.00  0.00    -0.270 N 
ATOM      3  C   UNL     1      34.615 -17.485 -23.463  0.00  0.00    +0.249 C 
ATOM      4  C   UNL     1      34.297 -15.407 -24.751  0.00  0.00    +0.116 C 
ENDROOT
BRANCH   3   6
ATOM      5  C   UNL     1      34.750 -19.449 -21.973  0.00  0.00    +0.006 C 
ATOM      6  C   UNL     1      34.846 -18.107 -22.125  0.00  0.00    +0.058 C 
BRANCH   5  16
ATOM      7  O   UNL     1      34.790 -23.447 -15.389  0.00  0.00    -0.275 OA
ATOM      8  N   UNL     1      35.544 -22.164 -17.137  0.00  0.00    -0.270 N 
ATOM      9  N   UNL     1      36.393 -20.913 -18.957  0.00  0.00    -0.229 NA
ATOM     10  C   UNL     1      32.884 -22.010 -18.105  0.00  0.00    +0.039 C 
ATOM     11  C   UNL     1      34.036 -21.442 -18.879  0.00  0.00    +0.010 C 
ATOM     12  C   UNL     1      33.329 -23.203 -17.273  0.00  0.00    +0.090 C 
ATOM     13  C   UNL     1      35.328 -21.497 -18.359  0.00  0.00    +0.130 C 
ATOM     14  C   UNL     1      33.841 -20.755 -20.078  0.00  0.00    +0.000 C 
ATOM     15  C   UNL     1      34.596 -22.931 -16.490  0.00  0.00    +0.227 C 
ATOM     16  C   UNL     1      34.922 -20.165 -20.721  0.00  0.00    +0.019 C 
ATOM     17  C   UNL     1      36.166 -20.269 -20.123  0.00  0.00    +0.100 C 
ATOM     18  H   UNL     1      36.430 -22.077 -16.717  0.00  0.00    +0.156 HD
ENDBRANCH   5  16
ENDBRANCH   3   6
BRANCH   2  19
ATOM     19  C   UNL     1      34.683 -15.221 -22.320  0.00  0.00    +0.122 C 
BRANCH  19  21
ATOM     20  N   UNL     1      33.645 -11.987 -23.659  0.00  0.00    -0.284 N 
ATOM     21  C   UNL     1      34.109 -13.880 -22.624  0.00  0.00    +0.014 C 
ATOM     22  C   UNL     1      33.231 -13.142 -21.796  0.00  0.00    +0.013 C 
ATOM     23  C   UNL     1      32.952 -11.951 -22.470  0.00  0.00    +0.051 C 
ATOM     24  C   UNL     1      34.352 -13.155 -23.759  0.00  0.00    +0.063 C 
ATOM     25  C   UNL     1      32.638 -13.363 -20.537  0.00  0.00    +0.001 C 
ATOM     26  C   UNL     1      32.106 -10.966 -21.946  0.00  0.00    +0.015 C 
ATOM     27  C   UNL     1      33.639 -10.947 -24.667  0.00  0.00    +0.117 C 
ATOM     28  C   UNL     1      31.792 -12.387 -20.000  0.00  0.00    +0.000 C 
ATOM     29  C   UNL     1      31.531 -11.208 -20.695  0.00  0.00    +0.001 C 
ENDBRANCH  19  21
ENDBRANCH   2  19
TORSDOF 4
ENDMDL
MODEL 3
REMARK VINA RESULT:     -10.7      5.985     12.088
REMARK  Name = 5288607
REMARK  4 active torsions:
REMARK  status: ('A' for Active; 'I' for Inactive)
REMARK    1  A    between atoms: N_2  and  C_19
REMARK    2  A    between atoms: C_3  and  C_6
REMARK    3  A    between atoms: C_5  and  C_16
REMARK    4  A    between atoms: C_19  and  C_21
REMARK                            x       y       z     vdW  Elec       q    Type
REMARK                         _______ _______ _______ _____ _____    ______ ____
ROOT
ATOM      1  O   UNL     1      33.053  -7.047 -19.351  0.00  0.00    -0.270 OA
ATOM      2  N   UNL     1      31.935  -8.881 -20.240  0.00  0.00    -0.270 N 
ATOM      3  C   UNL     1      32.493  -7.601 -20.298  0.00  0.00    +0.249 C 
ATOM      4  C   UNL     1      32.002  -9.634 -18.994  0.00  0.00    +0.116 C 
ENDROOT
BRANCH   3   6
ATOM      5  C   UNL     1      33.450  -6.606 -22.346  0.00  0.00    +0.006 C 
ATOM      6  C   UNL     1      32.354  -6.883 -21.601  0.00  0.00    +0.058 C 
BRANCH   5  16
ATOM      7  O   UNL     1      34.322  -2.892 -29.038  0.00  0.00    -0.275 OA
ATOM      8  N   UNL     1      33.298  -3.823 -27.206  0.00  0.00    -0.270 N 
ATOM      9  N   UNL     1      32.185  -4.838 -25.381  0.00  0.00    -0.229 NA
ATOM     10  C   UNL     1      35.857  -4.395 -26.129  0.00  0.00    +0.039 C 
ATOM     11  C   UNL     1      34.601  -4.865 -25.460  0.00  0.00    +0.010 C 
ATOM     12  C   UNL     1      35.663  -4.298 -27.635  0.00  0.00    +0.090 C 
ATOM     13  C   UNL     1      33.355  -4.535 -25.992  0.00  0.00    +0.130 C 
ATOM     14  C   UNL     1      34.634  -5.549 -24.244  0.00  0.00    +0.000 C 
ATOM     15  C   UNL     1      34.388  -3.576 -28.016  0.00  0.00    +0.227 C 
ATOM     16  C   UNL     1      33.446  -5.891 -23.610  0.00  0.00    +0.019 C 
ATOM     17  C   UNL     1      32.259  -5.513 -24.213  0.00  0.00    +0.100 C 
ATOM     18  H   UNL     1      32.422  -3.480 -27.496  0.00  0.00    +0.156 HD
ENDBRANCH   5  16
ENDBRANCH   3   6
BRANCH   2  19
ATOM     19  C   UNL     1      31.236  -9.544 -21.339  0.00  0.00    +0.122 C 
BRANCH  19  21
ATOM     20  N   UNL     1      33.626 -10.934 -23.722  0.00  0.00    -0.284 N 
ATOM     21  C   UNL     1      32.206 -10.341 -22.141  0.00  0.00    +0.014 C 
ATOM     22  C   UNL     1      32.650 -11.652 -21.850  0.00  0.00    +0.013 C 
ATOM     23  C   UNL     1      33.546 -12.005 -22.861  0.00  0.00    +0.051 C 
ATOM     24  C   UNL     1      32.814  -9.920 -23.292  0.00  0.00    +0.063 C 
ATOM     25  C   UNL     1      32.385 -12.582 -20.825  0.00  0.00    +0.001 C 
ATOM     26  C   UNL     1      34.192 -13.246 -22.899  0.00  0.00    +0.015 C 
ATOM     27  C   UNL     1      34.446 -10.875 -24.914  0.00  0.00    +0.117 C 
ATOM     28  C   UNL     1      33.022 -13.827 -20.850  0.00  0.00    +0.000 C 
ATOM     29  C   UNL     1      33.912 -14.152 -21.871  0.00  0.00    +0.001 C 
ENDBRANCH  19  21
ENDBRANCH   2  19
TORSDOF 4
ENDMDL
MODEL 4
REMARK VINA RESULT:     -10.6      6.153     12.901
REMARK  Name = 5288607
REMARK  4 active torsions:
REMARK  status: ('A' for Active; 'I' for Inactive)
REMARK    1  A    between atoms: N_2  and  C_19
REMARK    2  A    between atoms: C_3  and  C_6
REMARK    3  A    between atoms: C_5  and  C_16
REMARK    4  A    between atoms: C_19  and  C_21
REMARK                            x       y       z     vdW  Elec       q    Type
REMARK                         _______ _______ _______ _____ _____    ______ ____
ROOT
ATOM      1  O   UNL     1      30.712 -24.341 -15.907  0.00  0.00    -0.270 OA
ATOM      2  N   UNL     1      32.195 -23.938 -14.164  0.00  0.00    -0.270 N 
ATOM      3  C   UNL     1      31.680 -23.735 -15.447  0.00  0.00    +0.249 C 
ATOM      4  C   UNL     1      31.569 -24.923 -13.290  0.00  0.00    +0.116 C 
ENDROOT
BRANCH   3   6
ATOM      5  C   UNL     1      33.439 -23.114 -17.066  0.00  0.00    +0.006 C 
ATOM      6  C   UNL     1      32.397 -22.732 -16.290  0.00  0.00    +0.058 C 
BRANCH   5  16
ATOM      7  O   UNL     1      36.875 -18.232 -21.934  0.00  0.00    -0.275 OA
ATOM      8  N   UNL     1      36.608 -19.750 -20.232  0.00  0.00    -0.270 N 
ATOM      9  N   UNL     1      36.377 -21.247 -18.414  0.00  0.00    -0.229 NA
ATOM     10  C   UNL     1      33.887 -20.031 -20.976  0.00  0.00    +0.039 C 
ATOM     11  C   UNL     1      34.442 -20.706 -19.757  0.00  0.00    +0.010 C 
ATOM     12  C   UNL     1      34.630 -18.734 -21.260  0.00  0.00    +0.090 C 
ATOM     13  C   UNL     1      35.793 -20.581 -19.439  0.00  0.00    +0.130 C 
ATOM     14  C   UNL     1      33.658 -21.553 -18.973  0.00  0.00    +0.000 C 
ATOM     15  C   UNL     1      36.135 -18.897 -21.208  0.00  0.00    +0.227 C 
ATOM     16  C   UNL     1      34.230 -22.230 -17.903  0.00  0.00    +0.019 C 
ATOM     17  C   UNL     1      35.582 -22.047 -17.670  0.00  0.00    +0.100 C 
ATOM     18  H   UNL     1      37.580 -19.780 -20.079  0.00  0.00    +0.156 HD
ENDBRANCH   5  16
ENDBRANCH   3   6
BRANCH   2  19
ATOM     19  C   UNL     1      33.362 -23.256 -13.609  0.00  0.00    +0.122 C 
BRANCH  19  21
ATOM     20  N   UNL     1      36.017 -25.677 -14.256  0.00  0.00    -0.284 N 
ATOM     21  C   UNL     1      34.529 -24.182 -13.607  0.00  0.00    +0.014 C 
ATOM     22  C   UNL     1      35.430 -24.385 -12.534  0.00  0.00    +0.013 C 
ATOM     23  C   UNL     1      36.360 -25.332 -12.968  0.00  0.00    +0.051 C 
ATOM     24  C   UNL     1      34.906 -24.983 -14.650  0.00  0.00    +0.063 C 
ATOM     25  C   UNL     1      35.555 -23.859 -11.233  0.00  0.00    +0.001 C 
ATOM     26  C   UNL     1      37.413 -25.782 -12.162  0.00  0.00    +0.015 C 
ATOM     27  C   UNL     1      36.721 -26.633 -15.085  0.00  0.00    +0.117 C 
ATOM     28  C   UNL     1      36.601 -24.300 -10.415  0.00  0.00    +0.000 C 
ATOM     29  C   UNL     1      37.515 -25.246 -10.874  0.00  0.00    +0.001 C 
ENDBRANCH  19  21
ENDBRANCH   2  19
TORSDOF 4
ENDMDL
MODEL 5
REMARK VINA RESULT:     -10.3      2.321      9.584
REMARK  Name = 5288607
REMARK  4 active torsions:
REMARK  status: ('A' for Active; 'I' for Inactive)
REMARK    1  A    between atoms: N_2  and  C_19
REMARK    2  A    between atoms: C_3  and  C_6
REMARK    3  A    between atoms: C_5  and  C_16
REMARK    4  A    between atoms: C_19  and  C_21
REMARK                            x       y       z     vdW  Elec       q    Type
REMARK                         _______ _______ _______ _____ _____    ______ ____
ROOT
ATOM      1  O   UNL     1      34.220 -17.222 -24.945  0.00  0.00    -0.270 OA
ATOM      2  N   UNL     1      35.262 -17.866 -22.970  0.00  0.00    -0.270 N 
ATOM      3  C   UNL     1      34.607 -16.958 -23.806  0.00  0.00    +0.249 C 
ATOM      4  C   UNL     1      35.519 -19.219 -23.447  0.00  0.00    +0.116 C 
ENDROOT
BRANCH   3   6
ATOM      5  C   UNL     1      33.592 -14.708 -23.885  0.00  0.00    +0.006 C 
ATOM      6  C   UNL     1      34.411 -15.583 -23.255  0.00  0.00    +0.058 C 
BRANCH   5  16
ATOM      7  O   UNL     1      31.824  -7.800 -20.971  0.00  0.00    -0.275 OA
ATOM      8  N   UNL     1      32.699  -9.385 -22.383  0.00  0.00    -0.270 N 
ATOM      9  N   UNL     1      33.693 -10.976 -23.824  0.00  0.00    -0.229 NA
ATOM     10  C   UNL     1      31.391 -11.389 -20.863  0.00  0.00    +0.039 C 
ATOM     11  C   UNL     1      32.325 -11.737 -21.982  0.00  0.00    +0.010 C 
ATOM     12  C   UNL     1      31.793 -10.074 -20.213  0.00  0.00    +0.090 C 
ATOM     13  C   UNL     1      32.923 -10.729 -22.738  0.00  0.00    +0.130 C 
ATOM     14  C   UNL     1      32.542 -13.061 -22.367  0.00  0.00    +0.000 C 
ATOM     15  C   UNL     1      32.068  -8.980 -21.224  0.00  0.00    +0.227 C 
ATOM     16  C   UNL     1      33.345 -13.340 -23.465  0.00  0.00    +0.019 C 
ATOM     17  C   UNL     1      33.890 -12.271 -24.156  0.00  0.00    +0.100 C 
ATOM     18  H   UNL     1      33.013  -8.688 -23.003  0.00  0.00    +0.156 HD
ENDBRANCH   5  16
ENDBRANCH   3   6
BRANCH   2  19
ATOM     19  C   UNL     1      35.761 -17.567 -21.630  0.00  0.00    +0.122 C 
BRANCH  19  21
ATOM     20  N   UNL     1      36.385 -20.489 -19.533  0.00  0.00    -0.284 N 
ATOM     21  C   UNL     1      35.734 -18.802 -20.797  0.00  0.00    +0.014 C 
ATOM     22  C   UNL     1      34.590 -19.575 -20.489  0.00  0.00    +0.013 C 
ATOM     23  C   UNL     1      35.025 -20.634 -19.690  0.00  0.00    +0.051 C 
ATOM     24  C   UNL     1      36.823 -19.379 -20.203  0.00  0.00    +0.063 C 
ATOM     25  C   UNL     1      33.220 -19.484 -20.807  0.00  0.00    +0.001 C 
ATOM     26  C   UNL     1      34.157 -21.610 -19.191  0.00  0.00    +0.015 C 
ATOM     27  C   UNL     1      37.242 -21.374 -18.771  0.00  0.00    +0.117 C 
ATOM     28  C   UNL     1      32.339 -20.454 -20.316  0.00  0.00    +0.000 C 
ATOM     29  C   UNL     1      32.802 -21.500 -19.520  0.00  0.00    +0.001 C 
ENDBRANCH  19  21
ENDBRANCH   2  19
TORSDOF 4
ENDMDL
MODEL 6
REMARK VINA RESULT:     -10.2      6.101     12.361
REMARK  Name = 5288607
REMARK  4 active torsions:
REMARK  status: ('A' for Active; 'I' for Inactive)
REMARK    1  A    between atoms: N_2  and  C_19
REMARK    2  A    between atoms: C_3  and  C_6
REMARK    3  A    between atoms: C_5  and  C_16
REMARK    4  A    between atoms: C_19  and  C_21
REMARK                            x       y       z     vdW  Elec       q    Type
REMARK                         _______ _______ _______ _____ _____    ______ ____
ROOT
ATOM      1  O   UNL     1      32.968  -7.081 -18.965  0.00  0.00    -0.270 OA
ATOM      2  N   UNL     1      31.943  -8.903 -19.981  0.00  0.00    -0.270 N 
ATOM      3  C   UNL     1      32.348  -7.567 -19.912  0.00  0.00    +0.249 C 
ATOM      4  C   UNL     1      32.257  -9.803 -18.879  0.00  0.00    +0.116 C 
ENDROOT
BRANCH   3   6
ATOM      5  C   UNL     1      32.913  -6.083 -21.803  0.00  0.00    +0.006 C 
ATOM      6  C   UNL     1      31.961  -6.703 -21.067  0.00  0.00    +0.058 C 
BRANCH   5  16
ATOM      7  O   UNL     1      32.265  -1.786 -28.164  0.00  0.00    -0.275 OA
ATOM      8  N   UNL     1      31.843  -2.599 -26.058  0.00  0.00    -0.270 N 
ATOM      9  N   UNL     1      31.312  -3.455 -23.918  0.00  0.00    -0.229 NA
ATOM     10  C   UNL     1      34.139  -4.247 -26.289  0.00  0.00    +0.039 C 
ATOM     11  C   UNL     1      33.219  -4.342 -25.109  0.00  0.00    +0.010 C 
ATOM     12  C   UNL     1      33.378  -3.814 -27.533  0.00  0.00    +0.090 C 
ATOM     13  C   UNL     1      32.120  -3.491 -25.004  0.00  0.00    +0.130 C 
ATOM     14  C   UNL     1      33.488  -5.200 -24.042  0.00  0.00    +0.000 C 
ATOM     15  C   UNL     1      32.478  -2.621 -27.284  0.00  0.00    +0.227 C 
ATOM     16  C   UNL     1      32.660  -5.197 -22.926  0.00  0.00    +0.019 C 
ATOM     17  C   UNL     1      31.597  -4.311 -22.912  0.00  0.00    +0.100 C 
ATOM     18  H   UNL     1      31.151  -1.915 -25.911  0.00  0.00    +0.156 HD
ENDBRANCH   5  16
ENDBRANCH   3   6
BRANCH   2  19
ATOM     19  C   UNL     1      31.178  -9.493 -21.078  0.00  0.00    +0.122 C 
BRANCH  19  21
ATOM     20  N   UNL     1      32.968 -12.281 -22.611  0.00  0.00    -0.284 N 
ATOM     21  C   UNL     1      32.046 -10.427 -21.848  0.00  0.00    +0.014 C 
ATOM     22  C   UNL     1      33.026 -10.060 -22.802  0.00  0.00    +0.013 C 
ATOM     23  C   UNL     1      33.593 -11.247 -23.269  0.00  0.00    +0.051 C 
ATOM     24  C   UNL     1      32.028 -11.791 -21.745  0.00  0.00    +0.063 C 
ATOM     25  C   UNL     1      33.491  -8.835 -23.321  0.00  0.00    +0.001 C 
ATOM     26  C   UNL     1      34.607 -11.271 -24.234  0.00  0.00    +0.015 C 
ATOM     27  C   UNL     1      33.253 -13.689 -22.796  0.00  0.00    +0.117 C 
ATOM     28  C   UNL     1      34.504  -8.843 -24.286  0.00  0.00    +0.000 C 
ATOM     29  C   UNL     1      35.052 -10.043 -24.734  0.00  0.00    +0.001 C 
ENDBRANCH  19  21
ENDBRANCH   2  19
TORSDOF 4
ENDMDL
MODEL 7
REMARK VINA RESULT:      -9.8      5.882     11.554
REMARK  Name = 5288607
REMARK  4 active torsions:
REMARK  status: ('A' for Active; 'I' for Inactive)
REMARK    1  A    between atoms: N_2  and  C_19
REMARK    2  A    between atoms: C_3  and  C_6
REMARK    3  A    between atoms: C_5  and  C_16
REMARK    4  A    between atoms: C_19  and  C_21
REMARK                            x       y       z     vdW  Elec       q    Type
REMARK                         _______ _______ _______ _____ _____    ______ ____
ROOT
ATOM      1  O   UNL     1      37.911 -22.334 -14.552  0.00  0.00    -0.270 OA
ATOM      2  N   UNL     1      36.473 -24.158 -14.467  0.00  0.00    -0.270 N 
ATOM      3  C   UNL     1      36.941 -22.951 -14.993  0.00  0.00    +0.249 C 
ATOM      4  C   UNL     1      37.154 -24.751 -13.323  0.00  0.00    +0.116 C 
ENDROOT
BRANCH   3   6
ATOM      5  C   UNL     1      36.818 -21.870 -17.210  0.00  0.00    +0.006 C 
ATOM      6  C   UNL     1      36.168 -22.394 -16.144  0.00  0.00    +0.058 C 
BRANCH   5  16
ATOM      7  O   UNL     1      34.210 -18.277 -23.505  0.00  0.00    -0.275 OA
ATOM      8  N   UNL     1      34.238 -19.628 -21.649  0.00  0.00    -0.270 N 
ATOM      9  N   UNL     1      34.237 -21.099 -19.796  0.00  0.00    -0.229 NA
ATOM     10  C   UNL     1      36.842 -18.677 -21.057  0.00  0.00    +0.039 C 
ATOM     11  C   UNL     1      36.204 -19.771 -20.255  0.00  0.00    +0.010 C 
ATOM     12  C   UNL     1      36.342 -18.699 -22.494  0.00  0.00    +0.090 C 
ATOM     13  C   UNL     1      34.907 -20.191 -20.545  0.00  0.00    +0.130 C 
ATOM     14  C   UNL     1      36.839 -20.324 -19.142  0.00  0.00    +0.000 C 
ATOM     15  C   UNL     1      34.834 -18.811 -22.588  0.00  0.00    +0.227 C 
ATOM     16  C   UNL     1      36.180 -21.274 -18.371  0.00  0.00    +0.019 C 
ATOM     17  C   UNL     1      34.891 -21.621 -18.735  0.00  0.00    +0.100 C 
ATOM     18  H   UNL     1      33.281 -19.832 -21.758  0.00  0.00    +0.156 HD
ENDBRANCH   5  16
ENDBRANCH   3   6
BRANCH   2  19
ATOM     19  C   UNL     1      35.304 -24.889 -14.951  0.00  0.00    +0.122 C 
BRANCH  19  21
ATOM     20  N   UNL     1      32.522 -23.504 -13.036  0.00  0.00    -0.284 N 
ATOM     21  C   UNL     1      34.063 -24.255 -14.426  0.00  0.00    +0.014 C 
ATOM     22  C   UNL     1      33.030 -23.675 -15.201  0.00  0.00    +0.013 C 
ATOM     23  C   UNL     1      32.070 -23.208 -14.302  0.00  0.00    +0.051 C 
ATOM     24  C   UNL     1      33.731 -24.141 -13.103  0.00  0.00    +0.063 C 
ATOM     25  C   UNL     1      32.811 -23.495 -16.581  0.00  0.00    +0.001 C 
ATOM     26  C   UNL     1      30.896 -22.567 -14.715  0.00  0.00    +0.015 C 
ATOM     27  C   UNL     1      31.830 -23.194 -11.802  0.00  0.00    +0.117 C 
ATOM     28  C   UNL     1      31.642 -22.858 -17.010  0.00  0.00    +0.000 C 
ATOM     29  C   UNL     1      30.701 -22.402 -16.090  0.00  0.00    +0.001 C 
ENDBRANCH  19  21
ENDBRANCH   2  19
TORSDOF 4
ENDMDL
MODEL 8
REMARK VINA RESULT:      -9.7      2.227      9.848
REMARK  Name = 5288607
REMARK  4 active torsions:
REMARK  status: ('A' for Active; 'I' for Inactive)
REMARK    1  A    between atoms: N_2  and  C_19
REMARK    2  A    between atoms: C_3  and  C_6
REMARK    3  A    between atoms: C_5  and  C_16
REMARK    4  A    between atoms: C_19  and  C_21
REMARK                            x       y       z     vdW  Elec       q    Type
REMARK                         _______ _______ _______ _____ _____    ______ ____
ROOT
ATOM      1  O   UNL     1      34.171 -17.221 -24.966  0.00  0.00    -0.270 OA
ATOM      2  N   UNL     1      35.131 -17.873 -22.952  0.00  0.00    -0.270 N 
ATOM      3  C   UNL     1      34.577 -16.944 -23.837  0.00  0.00    +0.249 C 
ATOM      4  C   UNL     1      35.251 -19.266 -23.362  0.00  0.00    +0.116 C 
ENDROOT
BRANCH   3   6
ATOM      5  C   UNL     1      33.456 -14.750 -23.661  0.00  0.00    +0.006 C 
ATOM      6  C   UNL     1      34.518 -15.531 -23.354  0.00  0.00    +0.058 C 
BRANCH   5  16
ATOM      7  O   UNL     1      33.240  -7.181 -22.245  0.00  0.00    -0.275 OA
ATOM      8  N   UNL     1      32.770  -9.422 -22.072  0.00  0.00    -0.270 N 
ATOM      9  N   UNL     1      32.187 -11.709 -21.906  0.00  0.00    -0.229 NA
ATOM     10  C   UNL     1      34.795  -9.944 -23.985  0.00  0.00    +0.039 C 
ATOM     11  C   UNL     1      33.908 -11.034 -23.463  0.00  0.00    +0.010 C 
ATOM     12  C   UNL     1      34.067  -8.608 -23.985  0.00  0.00    +0.090 C 
ATOM     13  C   UNL     1      32.947 -10.754 -22.493  0.00  0.00    +0.130 C 
ATOM     14  C   UNL     1      34.083 -12.364 -23.848  0.00  0.00    +0.000 C 
ATOM     15  C   UNL     1      33.357  -8.328 -22.677  0.00  0.00    +0.227 C 
ATOM     16  C   UNL     1      33.300 -13.358 -23.276  0.00  0.00    +0.019 C 
ATOM     17  C   UNL     1      32.376 -12.982 -22.316  0.00  0.00    +0.100 C 
ATOM     18  H   UNL     1      32.189  -9.260 -21.294  0.00  0.00    +0.156 HD
ENDBRANCH   5  16
ENDBRANCH   3   6
BRANCH   2  19
ATOM     19  C   UNL     1      35.649 -17.561 -21.622  0.00  0.00    +0.122 C 
BRANCH  19  21
ATOM     20  N   UNL     1      36.368 -20.465 -19.530  0.00  0.00    -0.284 N 
ATOM     21  C   UNL     1      35.662 -18.795 -20.787  0.00  0.00    +0.014 C 
ATOM     22  C   UNL     1      34.539 -19.593 -20.462  0.00  0.00    +0.013 C 
ATOM     23  C   UNL     1      35.009 -20.640 -19.668  0.00  0.00    +0.051 C 
ATOM     24  C   UNL     1      36.771 -19.347 -20.208  0.00  0.00    +0.063 C 
ATOM     25  C   UNL     1      33.163 -19.534 -20.761  0.00  0.00    +0.001 C 
ATOM     26  C   UNL     1      34.170 -21.635 -19.155  0.00  0.00    +0.015 C 
ATOM     27  C   UNL     1      37.254 -21.330 -18.779  0.00  0.00    +0.117 C 
ATOM     28  C   UNL     1      32.311 -20.522 -20.256  0.00  0.00    +0.000 C 
ATOM     29  C   UNL     1      32.808 -21.555 -19.466  0.00  0.00    +0.001 C 
ENDBRANCH  19  21
ENDBRANCH   2  19
TORSDOF 4
ENDMDL
MODEL 9
REMARK VINA RESULT:      -9.5      6.308     12.963
REMARK  Name = 5288607
REMARK  4 active torsions:
REMARK  status: ('A' for Active; 'I' for Inactive)
REMARK    1  A    between atoms: N_2  and  C_19
REMARK    2  A    between atoms: C_3  and  C_6
REMARK    3  A    between atoms: C_5  and  C_16
REMARK    4  A    between atoms: C_19  and  C_21
REMARK                            x       y       z     vdW  Elec       q    Type
REMARK                         _______ _______ _______ _____ _____    ______ ____
ROOT
ATOM      1  O   UNL     1      30.579 -24.484 -15.498  0.00  0.00    -0.270 OA
ATOM      2  N   UNL     1      32.519 -23.955 -14.333  0.00  0.00    -0.270 N 
ATOM      3  C   UNL     1      31.597 -23.802 -15.372  0.00  0.00    +0.249 C 
ATOM      4  C   UNL     1      32.292 -24.977 -13.320  0.00  0.00    +0.116 C 
ENDROOT
BRANCH   3   6
ATOM      5  C   UNL     1      32.884 -22.973 -17.310  0.00  0.00    +0.006 C 
ATOM      6  C   UNL     1      31.918 -22.754 -16.387  0.00  0.00    +0.058 C 
BRANCH   5  16
ATOM      7  O   UNL     1      35.962 -18.121 -22.439  0.00  0.00    -0.275 OA
ATOM      8  N   UNL     1      34.378 -19.276 -21.244  0.00  0.00    -0.270 N 
ATOM      9  N   UNL     1      32.708 -20.500 -20.101  0.00  0.00    -0.229 NA
ATOM     10  C   UNL     1      36.448 -20.342 -19.627  0.00  0.00    +0.039 C 
ATOM     11  C   UNL     1      35.025 -20.789 -19.477  0.00  0.00    +0.010 C 
ATOM     12  C   UNL     1      36.734 -19.925 -21.062  0.00  0.00    +0.090 C 
ATOM     13  C   UNL     1      34.023 -20.217 -20.259  0.00  0.00    +0.130 C 
ATOM     14  C   UNL     1      34.647 -21.701 -18.490  0.00  0.00    +0.000 C 
ATOM     15  C   UNL     1      35.676 -18.998 -21.624  0.00  0.00    +0.227 C 
ATOM     16  C   UNL     1      33.306 -22.024 -18.324  0.00  0.00    +0.019 C 
ATOM     17  C   UNL     1      32.384 -21.399 -19.145  0.00  0.00    +0.100 C 
ATOM     18  H   UNL     1      33.653 -18.783 -21.691  0.00  0.00    +0.156 HD
ENDBRANCH   5  16
ENDBRANCH   3   6
BRANCH   2  19
ATOM     19  C   UNL     1      33.750 -23.181 -14.182  0.00  0.00    +0.122 C 
BRANCH  19  21
ATOM     20  N   UNL     1      35.681 -24.462 -11.361  0.00  0.00    -0.284 N 
ATOM     21  C   UNL     1      34.662 -23.871 -13.227  0.00  0.00    +0.014 C 
ATOM     22  C   UNL     1      35.605 -24.874 -13.552  0.00  0.00    +0.013 C 
ATOM     23  C   UNL     1      36.236 -25.232 -12.358  0.00  0.00    +0.051 C 
ATOM     24  C   UNL     1      34.724 -23.632 -11.881  0.00  0.00    +0.063 C 
ATOM     25  C   UNL     1      35.991 -25.522 -14.742  0.00  0.00    +0.001 C 
ATOM     26  C   UNL     1      37.237 -26.208 -12.295  0.00  0.00    +0.015 C 
ATOM     27  C   UNL     1      36.045 -24.511  -9.960  0.00  0.00    +0.117 C 
ATOM     28  C   UNL     1      36.991 -26.499 -14.695  0.00  0.00    +0.000 C 
ATOM     29  C   UNL     1      37.603 -26.835 -13.490  0.00  0.00    +0.001 C 
ENDBRANCH  19  21
ENDBRANCH   2  19
TORSDOF 4
ENDMDL
