MODEL 1
REMARK VINA RESULT:     -12.0      0.000      0.000
REMARK  Name = 54671008
REMARK  7 active torsions:
REMARK  status: ('A' for Active; 'I' for Inactive)
REMARK    1  A    between atoms: C_4  and  C_21
REMARK    2  A    between atoms: C_6  and  C_11
REMARK    3  A    between atoms: C_8  and  O_34
REMARK    4  A    between atoms: N_10  and  C_13
REMARK    5  A    between atoms: C_13  and  C_15
REMARK    6  A    between atoms: C_21  and  N_25
REMARK    7  A    between atoms: C_26  and  C_31
REMARK                            x       y       z     vdW  Elec       q    Type
REMARK                         _______ _______ _______ _____ _____    ______ ____
ROOT
ATOM      1  O   UNL     1      36.202 -23.021 -14.322  0.00  0.00    -0.271 OA
ATOM      2  N   UNL     1      33.892 -23.382 -14.209  0.00  0.00    -0.232 N 
ATOM      3  N   UNL     1      32.591 -23.180 -16.189  0.00  0.00    -0.386 NA
ATOM      4  C   UNL     1      32.693 -23.416 -14.917  0.00  0.00    +0.182 C 
ATOM      5  C   UNL     1      35.094 -23.080 -14.853  0.00  0.00    +0.265 C 
ATOM      6  C   UNL     1      33.745 -22.882 -16.859  0.00  0.00    +0.199 C 
ATOM      7  C   UNL     1      33.891 -23.666 -12.775  0.00  0.00    +0.122 C 
ATOM      8  C   UNL     1      34.966 -22.812 -16.312  0.00  0.00    +0.245 C 
ENDROOT
BRANCH   6  11
ATOM      9  O   UNL     1      33.747 -23.523 -19.119  0.00  0.00    -0.268 OA
ATOM     10  N   UNL     1      33.309 -21.299 -18.577  0.00  0.00    -0.295 N 
ATOM     11  C   UNL     1      33.604 -22.620 -18.299  0.00  0.00    +0.275 C 
ATOM     12  H   UNL     1      33.220 -20.670 -17.824  0.00  0.00    +0.150 HD
BRANCH  10  13
ATOM     13  C   UNL     1      33.123 -20.794 -19.919  0.00  0.00    +0.117 C 
BRANCH  13  15
ATOM     14  F   UNL     1      37.796 -18.380 -21.928  0.00  0.00    -0.204 F 
ATOM     15  C   UNL     1      34.369 -20.150 -20.455  0.00  0.00    -0.002 C 
ATOM     16  C   UNL     1      35.582 -20.312 -19.784  0.00  0.00    -0.000 C 
ATOM     17  C   UNL     1      34.315 -19.390 -21.623  0.00  0.00    -0.000 C 
ATOM     18  C   UNL     1      36.739 -19.714 -20.281  0.00  0.00    +0.029 C 
ATOM     19  C   UNL     1      35.472 -18.792 -22.121  0.00  0.00    +0.029 C 
ATOM     20  C   UNL     1      36.684 -18.954 -21.450  0.00  0.00    +0.140 C 
ENDBRANCH  13  15
ENDBRANCH  10  13
ENDBRANCH   6  11
BRANCH   4  21
ATOM     21  C   UNL     1      31.429 -23.748 -14.161  0.00  0.00    +0.117 C 
ATOM     22  C   UNL     1      31.367 -25.246 -13.896  0.00  0.00    +0.028 C 
ATOM     23  C   UNL     1      31.379 -22.951 -12.864  0.00  0.00    +0.028 C 
BRANCH  21  25
ATOM     24  O   UNL     1      28.728 -24.721 -14.218  0.00  0.00    -0.265 OA
ATOM     25  N   UNL     1      30.386 -23.337 -15.064  0.00  0.00    -0.293 N 
ATOM     26  C   UNL     1      29.103 -23.866 -15.016  0.00  0.00    +0.302 C 
ATOM     27  H   UNL     1      30.591 -22.652 -15.743  0.00  0.00    +0.150 HD
BRANCH  26  31
ATOM     28  O   UNL     1      27.497 -22.178 -15.825  0.00  0.00    -0.416 OA
ATOM     29  N   UNL     1      27.841 -23.931 -17.172  0.00  0.00    -0.102 NA
ATOM     30  N   UNL     1      26.922 -23.098 -17.781  0.00  0.00    -0.111 NA
ATOM     31  C   UNL     1      28.149 -23.354 -16.034  0.00  0.00    +0.304 A 
ATOM     32  C   UNL     1      26.751 -22.088 -16.960  0.00  0.00    +0.227 A 
ATOM     33  C   UNL     1      25.889 -20.907 -17.094  0.00  0.00    +0.097 C 
ENDBRANCH  26  31
ENDBRANCH  21  25
ENDBRANCH   4  21
BRANCH   8  34
ATOM     34  O   UNL     1      36.105 -22.508 -17.022  0.00  0.00    -0.370 OA
ATOM     35  H   UNL     1      36.500 -23.154 -17.574  0.00  0.00    +0.211 HD
ENDBRANCH   8  34
TORSDOF 7
ENDMDL
MODEL 2
REMARK VINA RESULT:     -11.3      3.153      6.449
REMARK  Name = 54671008
REMARK  7 active torsions:
REMARK  status: ('A' for Active; 'I' for Inactive)
REMARK    1  A    between atoms: C_4  and  C_21
REMARK    2  A    between atoms: C_6  and  C_11
REMARK    3  A    between atoms: C_8  and  O_34
REMARK    4  A    between atoms: N_10  and  C_13
REMARK    5  A    between atoms: C_13  and  C_15
REMARK    6  A    between atoms: C_21  and  N_25
REMARK    7  A    between atoms: C_26  and  C_31
REMARK                            x       y       z     vdW  Elec       q    Type
REMARK                         _______ _______ _______ _____ _____    ______ ____
ROOT
ATOM      1  O   UNL     1      31.389 -23.287 -14.261  0.00  0.00    -0.271 OA
ATOM      2  N   UNL     1      33.712 -23.529 -14.421  0.00  0.00    -0.232 N 
ATOM      3  N   UNL     1      34.770 -23.183 -16.522  0.00  0.00    -0.386 NA
ATOM      4  C   UNL     1      34.824 -23.474 -15.259  0.00  0.00    +0.182 C 
ATOM      5  C   UNL     1      32.432 -23.263 -14.913  0.00  0.00    +0.265 C 
ATOM      6  C   UNL     1      33.535 -22.913 -17.045  0.00  0.00    +0.199 C 
ATOM      7  C   UNL     1      33.889 -23.868 -13.010  0.00  0.00    +0.122 C 
ATOM      8  C   UNL     1      32.382 -22.928 -16.363  0.00  0.00    +0.245 C 
ENDROOT
BRANCH   6  11
ATOM      9  O   UNL     1      33.753 -23.437 -19.324  0.00  0.00    -0.268 OA
ATOM     10  N   UNL     1      33.166 -21.265 -18.716  0.00  0.00    -0.295 N 
ATOM     11  C   UNL     1      33.500 -22.584 -18.477  0.00  0.00    +0.275 C 
ATOM     12  H   UNL     1      32.986 -20.680 -17.944  0.00  0.00    +0.150 HD
BRANCH  10  13
ATOM     13  C   UNL     1      33.067 -20.700 -20.043  0.00  0.00    +0.117 C 
BRANCH  13  15
ATOM     14  F   UNL     1      37.920 -18.392 -21.721  0.00  0.00    -0.204 F 
ATOM     15  C   UNL     1      34.361 -20.084 -20.490  0.00  0.00    -0.002 C 
ATOM     16  C   UNL     1      34.385 -19.245 -21.604  0.00  0.00    -0.000 C 
ATOM     17  C   UNL     1      35.539 -20.353 -19.793  0.00  0.00    -0.000 C 
ATOM     18  C   UNL     1      35.588 -18.674 -22.020  0.00  0.00    +0.029 C 
ATOM     19  C   UNL     1      36.741 -19.782 -20.209  0.00  0.00    +0.029 C 
ATOM     20  C   UNL     1      36.766 -18.942 -21.322  0.00  0.00    +0.140 C 
ENDBRANCH  13  15
ENDBRANCH  10  13
ENDBRANCH   6  11
BRANCH   4  21
ATOM     21  C   UNL     1      36.179 -23.773 -14.664  0.00  0.00    +0.117 C 
ATOM     22  C   UNL     1      37.244 -22.945 -15.370  0.00  0.00    +0.028 C 
ATOM     23  C   UNL     1      36.157 -23.493 -13.167  0.00  0.00    +0.028 C 
BRANCH  21  25
ATOM     24  O   UNL     1      38.351 -25.427 -13.777  0.00  0.00    -0.265 OA
ATOM     25  N   UNL     1      36.353 -25.178 -14.928  0.00  0.00    -0.293 N 
ATOM     26  C   UNL     1      37.441 -25.898 -14.454  0.00  0.00    +0.302 C 
ATOM     27  H   UNL     1      35.672 -25.646 -15.465  0.00  0.00    +0.150 HD
BRANCH  26  31
ATOM     28  O   UNL     1      38.388 -27.763 -15.762  0.00  0.00    -0.416 OA
ATOM     29  N   UNL     1      36.724 -28.290 -14.362  0.00  0.00    -0.102 NA
ATOM     30  N   UNL     1      37.125 -29.447 -15.003  0.00  0.00    -0.111 NA
ATOM     31  C   UNL     1      37.487 -27.333 -14.835  0.00  0.00    +0.304 A 
ATOM     32  C   UNL     1      38.098 -29.092 -15.810  0.00  0.00    +0.227 A 
ATOM     33  C   UNL     1      38.895 -29.909 -16.733  0.00  0.00    +0.097 C 
ENDBRANCH  26  31
ENDBRANCH  21  25
ENDBRANCH   4  21
BRANCH   8  34
ATOM     34  O   UNL     1      31.157 -22.652 -16.927  0.00  0.00    -0.370 OA
ATOM     35  H   UNL     1      30.919 -21.766 -17.119  0.00  0.00    +0.211 HD
ENDBRANCH   8  34
TORSDOF 7
ENDMDL
MODEL 3
REMARK VINA RESULT:     -10.4      1.985      2.967
REMARK  Name = 54671008
REMARK  7 active torsions:
REMARK  status: ('A' for Active; 'I' for Inactive)
REMARK    1  A    between atoms: C_4  and  C_21
REMARK    2  A    between atoms: C_6  and  C_11
REMARK    3  A    between atoms: C_8  and  O_34
REMARK    4  A    between atoms: N_10  and  C_13
REMARK    5  A    between atoms: C_13  and  C_15
REMARK    6  A    between atoms: C_21  and  N_25
REMARK    7  A    between atoms: C_26  and  C_31
REMARK                            x       y       z     vdW  Elec       q    Type
REMARK                         _______ _______ _______ _____ _____    ______ ____
ROOT
ATOM      1  O   UNL     1      38.165 -21.189 -16.201  0.00  0.00    -0.271 OA
ATOM      2  N   UNL     1      36.538 -22.588 -15.264  0.00  0.00    -0.232 N 
ATOM      3  N   UNL     1      34.602 -23.125 -16.535  0.00  0.00    -0.386 NA
ATOM      4  C   UNL     1      35.311 -23.219 -15.452  0.00  0.00    +0.182 C 
ATOM      5  C   UNL     1      37.093 -21.789 -16.268  0.00  0.00    +0.265 C 
ATOM      6  C   UNL     1      35.109 -22.354 -17.544  0.00  0.00    +0.199 C 
ATOM      7  C   UNL     1      37.253 -22.764 -14.002  0.00  0.00    +0.122 C 
ATOM      8  C   UNL     1      36.273 -21.690 -17.506  0.00  0.00    +0.245 C 
ENDROOT
BRANCH   6  11
ATOM      9  O   UNL     1      33.830 -23.276 -19.285  0.00  0.00    -0.268 OA
ATOM     10  N   UNL     1      34.124 -20.965 -19.201  0.00  0.00    -0.295 N 
ATOM     11  C   UNL     1      34.289 -22.264 -18.761  0.00  0.00    +0.275 C 
ATOM     12  H   UNL     1      34.547 -20.239 -18.688  0.00  0.00    +0.150 HD
BRANCH  10  13
ATOM     13  C   UNL     1      33.358 -20.619 -20.377  0.00  0.00    +0.117 C 
BRANCH  13  15
ATOM     14  F   UNL     1      35.942 -16.711 -23.501  0.00  0.00    -0.204 F 
ATOM     15  C   UNL     1      34.047 -19.576 -21.210  0.00  0.00    -0.002 C 
ATOM     16  C   UNL     1      33.765 -19.474 -22.572  0.00  0.00    -0.000 C 
ATOM     17  C   UNL     1      34.969 -18.711 -20.622  0.00  0.00    -0.000 C 
ATOM     18  C   UNL     1      34.406 -18.506 -23.346  0.00  0.00    +0.029 C 
ATOM     19  C   UNL     1      35.610 -17.743 -21.395  0.00  0.00    +0.029 C 
ATOM     20  C   UNL     1      35.328 -17.641 -22.758  0.00  0.00    +0.140 C 
ENDBRANCH  13  15
ENDBRANCH  10  13
ENDBRANCH   6  11
BRANCH   4  21
ATOM     21  C   UNL     1      34.767 -24.067 -14.328  0.00  0.00    +0.117 C 
ATOM     22  C   UNL     1      35.394 -25.453 -14.380  0.00  0.00    +0.028 C 
ATOM     23  C   UNL     1      35.033 -23.385 -12.993  0.00  0.00    +0.028 C 
BRANCH  21  25
ATOM     24  O   UNL     1      32.674 -24.742 -12.481  0.00  0.00    -0.265 OA
ATOM     25  N   UNL     1      33.356 -24.124 -14.611  0.00  0.00    -0.293 N 
ATOM     26  C   UNL     1      32.414 -24.461 -13.648  0.00  0.00    +0.302 C 
ATOM     27  H   UNL     1      33.047 -23.914 -15.522  0.00  0.00    +0.150 HD
BRANCH  26  31
ATOM     28  O   UNL     1      30.387 -23.355 -14.515  0.00  0.00    -0.416 OA
ATOM     29  N   UNL     1      30.230 -25.560 -14.166  0.00  0.00    -0.102 NA
ATOM     30  N   UNL     1      29.013 -25.116 -14.647  0.00  0.00    -0.111 NA
ATOM     31  C   UNL     1      31.001 -24.499 -14.106  0.00  0.00    +0.304 A 
ATOM     32  C   UNL     1      29.150 -23.824 -14.837  0.00  0.00    +0.227 A 
ATOM     33  C   UNL     1      28.179 -22.842 -15.334  0.00  0.00    +0.097 C 
ENDBRANCH  26  31
ENDBRANCH  21  25
ENDBRANCH   4  21
BRANCH   8  34
ATOM     34  O   UNL     1      36.749 -20.923 -18.545  0.00  0.00    -0.370 OA
ATOM     35  H   UNL     1      36.981 -21.327 -19.357  0.00  0.00    +0.211 HD
ENDBRANCH   8  34
TORSDOF 7
ENDMDL
MODEL 4
REMARK VINA RESULT:     -10.0      3.345      6.476
REMARK  Name = 54671008
REMARK  7 active torsions:
REMARK  status: ('A' for Active; 'I' for Inactive)
REMARK    1  A    between atoms: C_4  and  C_21
REMARK    2  A    between atoms: C_6  and  C_11
REMARK    3  A    between atoms: C_8  and  O_34
REMARK    4  A    between atoms: N_10  and  C_13
REMARK    5  A    between atoms: C_13  and  C_15
REMARK    6  A    between atoms: C_21  and  N_25
REMARK    7  A    between atoms: C_26  and  C_31
REMARK                            x       y       z     vdW  Elec       q    Type
REMARK                         _______ _______ _______ _____ _____    ______ ____
ROOT
ATOM      1  O   UNL     1      31.698 -22.426 -17.663  0.00  0.00    -0.271 OA
ATOM      2  N   UNL     1      33.533 -22.941 -16.304  0.00  0.00    -0.232 N 
ATOM      3  N   UNL     1      35.722 -22.407 -17.062  0.00  0.00    -0.386 NA
ATOM      4  C   UNL     1      34.919 -22.900 -16.171  0.00  0.00    +0.182 C 
ATOM      5  C   UNL     1      32.909 -22.435 -17.447  0.00  0.00    +0.265 C 
ATOM      6  C   UNL     1      35.152 -21.899 -18.198  0.00  0.00    +0.199 C 
ATOM      7  C   UNL     1      32.722 -23.519 -15.234  0.00  0.00    +0.122 C 
ATOM      8  C   UNL     1      33.839 -21.871 -18.463  0.00  0.00    +0.245 C 
ENDROOT
BRANCH   6  11
ATOM      9  O   UNL     1      36.970 -22.040 -19.678  0.00  0.00    -0.268 OA
ATOM     10  N   UNL     1      35.831 -20.016 -19.479  0.00  0.00    -0.295 N 
ATOM     11  C   UNL     1      36.082 -21.345 -19.192  0.00  0.00    +0.275 C 
ATOM     12  H   UNL     1      35.085 -19.570 -19.017  0.00  0.00    +0.150 HD
BRANCH  10  13
ATOM     13  C   UNL     1      36.610 -19.249 -20.424  0.00  0.00    +0.117 C 
BRANCH  13  15
ATOM     14  F   UNL     1      33.475 -17.377 -24.710  0.00  0.00    -0.204 F 
ATOM     15  C   UNL     1      35.774 -18.750 -21.567  0.00  0.00    -0.002 C 
ATOM     16  C   UNL     1      34.982 -19.640 -22.293  0.00  0.00    -0.000 C 
ATOM     17  C   UNL     1      35.789 -17.396 -21.904  0.00  0.00    -0.000 C 
ATOM     18  C   UNL     1      34.206 -19.176 -23.355  0.00  0.00    +0.029 C 
ATOM     19  C   UNL     1      35.013 -16.932 -22.965  0.00  0.00    +0.029 C 
ATOM     20  C   UNL     1      34.221 -17.822 -23.691  0.00  0.00    +0.140 C 
ENDBRANCH  13  15
ENDBRANCH  10  13
ENDBRANCH   6  11
BRANCH   4  21
ATOM     21  C   UNL     1      35.529 -23.464 -14.910  0.00  0.00    +0.117 C 
ATOM     22  C   UNL     1      36.708 -22.601 -14.479  0.00  0.00    +0.028 C 
ATOM     23  C   UNL     1      34.472 -23.547 -13.818  0.00  0.00    +0.028 C 
BRANCH  21  25
ATOM     24  O   UNL     1      36.808 -25.429 -13.253  0.00  0.00    -0.265 OA
ATOM     25  N   UNL     1      35.966 -24.776 -15.313  0.00  0.00    -0.293 N 
ATOM     26  C   UNL     1      36.577 -25.662 -14.437  0.00  0.00    +0.302 C 
ATOM     27  H   UNL     1      35.823 -25.055 -16.247  0.00  0.00    +0.150 HD
BRANCH  26  31
ATOM     28  O   UNL     1      37.910 -27.736 -14.369  0.00  0.00    -0.416 OA
ATOM     29  N   UNL     1      36.556 -27.497 -16.133  0.00  0.00    -0.102 NA
ATOM     30  N   UNL     1      37.217 -28.704 -16.262  0.00  0.00    -0.111 NA
ATOM     31  C   UNL     1      36.991 -26.967 -15.015  0.00  0.00    +0.304 A 
ATOM     32  C   UNL     1      37.996 -28.802 -15.211  0.00  0.00    +0.227 A 
ATOM     33  C   UNL     1      38.923 -29.874 -14.828  0.00  0.00    +0.097 C 
ENDBRANCH  26  31
ENDBRANCH  21  25
ENDBRANCH   4  21
BRANCH   8  34
ATOM     34  O   UNL     1      33.305 -21.350 -19.620  0.00  0.00    -0.370 OA
ATOM     35  H   UNL     1      33.743 -21.480 -20.438  0.00  0.00    +0.211 HD
ENDBRANCH   8  34
TORSDOF 7
ENDMDL
MODEL 5
REMARK VINA RESULT:      -9.1      4.211      7.974
REMARK  Name = 54671008
REMARK  7 active torsions:
REMARK  status: ('A' for Active; 'I' for Inactive)
REMARK    1  A    between atoms: C_4  and  C_21
REMARK    2  A    between atoms: C_6  and  C_11
REMARK    3  A    between atoms: C_8  and  O_34
REMARK    4  A    between atoms: N_10  and  C_13
REMARK    5  A    between atoms: C_13  and  C_15
REMARK    6  A    between atoms: C_21  and  N_25
REMARK    7  A    between atoms: C_26  and  C_31
REMARK                            x       y       z     vdW  Elec       q    Type
REMARK                         _______ _______ _______ _____ _____    ______ ____
ROOT
ATOM      1  O   UNL     1      32.398 -23.543 -12.375  0.00  0.00    -0.271 OA
ATOM      2  N   UNL     1      32.749 -23.359 -14.682  0.00  0.00    -0.232 N 
ATOM      3  N   UNL     1      34.975 -23.327 -15.515  0.00  0.00    -0.386 NA
ATOM      4  C   UNL     1      33.692 -23.290 -15.704  0.00  0.00    +0.182 C 
ATOM      5  C   UNL     1      33.147 -23.477 -13.348  0.00  0.00    +0.265 C 
ATOM      6  C   UNL     1      35.409 -23.444 -14.223  0.00  0.00    +0.199 C 
ATOM      7  C   UNL     1      31.325 -23.309 -15.010  0.00  0.00    +0.122 C 
ATOM      8  C   UNL     1      34.621 -23.521 -13.142  0.00  0.00    +0.245 C 
ENDROOT
BRANCH   6  11
ATOM      9  O   UNL     1      37.588 -22.621 -14.522  0.00  0.00    -0.268 OA
ATOM     10  N   UNL     1      37.278 -24.569 -13.281  0.00  0.00    -0.295 N 
ATOM     11  C   UNL     1      36.866 -23.486 -14.034  0.00  0.00    +0.275 C 
ATOM     12  H   UNL     1      36.595 -25.194 -12.946  0.00  0.00    +0.150 HD
BRANCH  10  13
ATOM     13  C   UNL     1      38.663 -24.829 -12.958  0.00  0.00    +0.117 C 
BRANCH  13  15
ATOM     14  F   UNL     1      40.389 -29.812 -14.932  0.00  0.00    -0.204 F 
ATOM     15  C   UNL     1      39.123 -26.158 -13.484  0.00  0.00    -0.002 C 
ATOM     16  C   UNL     1      40.283 -26.239 -14.255  0.00  0.00    -0.000 C 
ATOM     17  C   UNL     1      38.391 -27.311 -13.203  0.00  0.00    -0.000 C 
ATOM     18  C   UNL     1      40.710 -27.473 -14.744  0.00  0.00    +0.029 C 
ATOM     19  C   UNL     1      38.818 -28.545 -13.692  0.00  0.00    +0.029 C 
ATOM     20  C   UNL     1      39.978 -28.626 -14.463  0.00  0.00    +0.140 C 
ENDBRANCH  13  15
ENDBRANCH  10  13
ENDBRANCH   6  11
BRANCH   4  21
ATOM     21  C   UNL     1      33.195 -23.163 -17.124  0.00  0.00    +0.117 C 
ATOM     22  C   UNL     1      33.222 -24.526 -17.802  0.00  0.00    +0.028 C 
ATOM     23  C   UNL     1      31.794 -22.567 -17.128  0.00  0.00    +0.028 C 
BRANCH  21  25
ATOM     24  O   UNL     1      32.943 -21.858 -19.669  0.00  0.00    -0.265 OA
ATOM     25  N   UNL     1      34.145 -22.263 -17.727  0.00  0.00    -0.293 N 
ATOM     26  C   UNL     1      33.935 -21.677 -18.967  0.00  0.00    +0.302 C 
ATOM     27  H   UNL     1      34.975 -22.055 -17.239  0.00  0.00    +0.150 HD
BRANCH  26  31
ATOM     28  O   UNL     1      34.773 -19.901 -20.459  0.00  0.00    -0.416 OA
ATOM     29  N   UNL     1      36.261 -20.765 -19.030  0.00  0.00    -0.102 NA
ATOM     30  N   UNL     1      36.901 -19.795 -19.777  0.00  0.00    -0.111 NA
ATOM     31  C   UNL     1      35.022 -20.793 -19.461  0.00  0.00    +0.304 A 
ATOM     32  C   UNL     1      35.995 -19.318 -20.598  0.00  0.00    +0.227 A 
ATOM     33  C   UNL     1      36.115 -18.268 -21.618  0.00  0.00    +0.097 C 
ENDBRANCH  26  31
ENDBRANCH  21  25
ENDBRANCH   4  21
BRANCH   8  34
ATOM     34  O   UNL     1      35.097 -23.637 -11.856  0.00  0.00    -0.370 OA
ATOM     35  H   UNL     1      34.636 -24.161 -11.231  0.00  0.00    +0.211 HD
ENDBRANCH   8  34
TORSDOF 7
ENDMDL
