MODEL 1
REMARK VINA RESULT:     -11.1      0.000      0.000
REMARK  Name = 16048422
REMARK  11 active torsions:
REMARK  status: ('A' for Active; 'I' for Inactive)
REMARK    1  A    between atoms: C_1  and  C_4
REMARK    2  A    between atoms: C_1  and  N_18
REMARK    3  A    between atoms: C_1  and  C_33
REMARK    4  A    between atoms: N_3  and  C_6
REMARK    5  A    between atoms: C_6  and  C_9
REMARK    6  A    between atoms: C_9  and  C_11
REMARK    7  A    between atoms: C_19  and  C_21
REMARK    8  A    between atoms: C_24  and  C_27
REMARK    9  A    between atoms: C_33  and  C_34
REMARK   10  A    between atoms: C_34  and  C_36
REMARK   11  A    between atoms: C_36  and  O_37
REMARK                            x       y       z     vdW  Elec       q    Type
REMARK                         _______ _______ _______ _____ _____    ______ ____
ROOT
ATOM      1  C   UNL     1      34.360 -23.802 -15.002  0.00  0.00    +0.149 C 
ENDROOT
BRANCH   1   4
ATOM      2  O   UNL     1      32.864 -22.468 -13.647  0.00  0.00    -0.273 OA
ATOM      3  N   UNL     1      32.083 -24.469 -14.529  0.00  0.00    -0.306 N 
ATOM      4  C   UNL     1      33.035 -23.482 -14.323  0.00  0.00    +0.240 C 
ATOM      5  H   UNL     1      32.324 -25.243 -15.088  0.00  0.00    +0.149 HD
BRANCH   3   6
ATOM      6  C   UNL     1      30.754 -24.418 -13.962  0.00  0.00    +0.061 C 
ATOM      7  C   UNL     1      29.845 -25.400 -14.715  0.00  0.00    +0.020 C 
ATOM      8  C   UNL     1      30.846 -24.863 -12.493  0.00  0.00    +0.020 C 
BRANCH   6   9
ATOM      9  C   UNL     1      30.198 -22.970 -14.003  0.00  0.00    +0.044 C 
BRANCH   9  11
ATOM     10  F   UNL     1      25.887 -22.083 -17.531  0.00  0.00    -0.204 F 
ATOM     11  C   UNL     1      29.042 -22.732 -14.949  0.00  0.00    -0.020 C 
ATOM     12  C   UNL     1      29.213 -22.922 -16.321  0.00  0.00    -0.002 C 
ATOM     13  C   UNL     1      27.806 -22.324 -14.450  0.00  0.00    -0.002 C 
ATOM     14  C   UNL     1      28.147 -22.703 -17.193  0.00  0.00    +0.029 C 
ATOM     15  C   UNL     1      26.740 -22.105 -15.322  0.00  0.00    +0.029 C 
ATOM     16  C   UNL     1      26.911 -22.294 -16.694  0.00  0.00    +0.140 C 
ENDBRANCH   9  11
ENDBRANCH   6   9
ENDBRANCH   3   6
ENDBRANCH   1   4
BRANCH   1  18
ATOM     17  O   UNL     1      33.177 -24.098 -17.601  0.00  0.00    -0.270 OA
ATOM     18  N   UNL     1      34.463 -22.879 -16.105  0.00  0.00    -0.295 N 
ATOM     19  C   UNL     1      33.853 -23.109 -17.330  0.00  0.00    +0.246 C 
ATOM     20  H   UNL     1      34.986 -22.054 -15.986  0.00  0.00    +0.150 HD
BRANCH  19  21
ATOM     21  C   UNL     1      34.077 -22.076 -18.373  0.00  0.00    +0.053 C 
ATOM     22  C   UNL     1      35.376 -21.745 -18.759  0.00  0.00    +0.005 C 
ATOM     23  C   UNL     1      32.989 -21.437 -18.967  0.00  0.00    +0.005 C 
ATOM     24  C   UNL     1      34.499 -20.135 -20.332  0.00  0.00    +0.000 C 
ATOM     25  C   UNL     1      35.587 -20.774 -19.738  0.00  0.00    +0.000 C 
ATOM     26  C   UNL     1      33.199 -20.466 -19.947  0.00  0.00    +0.000 C 
BRANCH  24  27
ATOM     27  C   UNL     1      34.717 -19.128 -21.348  0.00  0.00    +0.000 C 
ATOM     28  C   UNL     1      35.373 -17.941 -21.024  0.00  0.00    +0.000 C 
ATOM     29  C   UNL     1      34.272 -19.345 -22.652  0.00  0.00    +0.000 C 
ATOM     30  C   UNL     1      35.584 -16.970 -22.004  0.00  0.00    +0.000 C 
ATOM     31  C   UNL     1      34.483 -18.374 -23.632  0.00  0.00    +0.000 C 
ATOM     32  C   UNL     1      35.139 -17.187 -23.307  0.00  0.00    +0.000 C 
ENDBRANCH  24  27
ENDBRANCH  19  21
ENDBRANCH   1  18
BRANCH   1  33
ATOM     33  C   UNL     1      35.546 -23.636 -14.044  0.00  0.00    +0.041 C 
BRANCH  33  34
ATOM     34  C   UNL     1      35.822 -24.858 -13.166  0.00  0.00    +0.112 C 
BRANCH  34  36
ATOM     35  O   UNL     1      35.962 -25.291 -10.772  0.00  0.00    -0.250 OA
ATOM     36  C   UNL     1      35.532 -24.620 -11.700  0.00  0.00    +0.314 C 
BRANCH  36  37
ATOM     37  O   UNL     1      34.743 -23.529 -11.520  0.00  0.00    -0.480 OA
ATOM     38  H   UNL     1      33.914 -23.474 -11.952  0.00  0.00    +0.295 HD
ENDBRANCH  36  37
ENDBRANCH  34  36
ENDBRANCH  33  34
ENDBRANCH   1  33
TORSDOF 11
ENDMDL
MODEL 2
REMARK VINA RESULT:     -11.1      1.351      1.817
REMARK  Name = 16048422
REMARK  11 active torsions:
REMARK  status: ('A' for Active; 'I' for Inactive)
REMARK    1  A    between atoms: C_1  and  C_4
REMARK    2  A    between atoms: C_1  and  N_18
REMARK    3  A    between atoms: C_1  and  C_33
REMARK    4  A    between atoms: N_3  and  C_6
REMARK    5  A    between atoms: C_6  and  C_9
REMARK    6  A    between atoms: C_9  and  C_11
REMARK    7  A    between atoms: C_19  and  C_21
REMARK    8  A    between atoms: C_24  and  C_27
REMARK    9  A    between atoms: C_33  and  C_34
REMARK   10  A    between atoms: C_34  and  C_36
REMARK   11  A    between atoms: C_36  and  O_37
REMARK                            x       y       z     vdW  Elec       q    Type
REMARK                         _______ _______ _______ _____ _____    ______ ____
ROOT
ATOM      1  C   UNL     1      34.162 -23.691 -15.119  0.00  0.00    +0.149 C 
ENDROOT
BRANCH   1   4
ATOM      2  O   UNL     1      32.620 -22.275 -13.907  0.00  0.00    -0.273 OA
ATOM      3  N   UNL     1      31.941 -24.417 -14.490  0.00  0.00    -0.306 N 
ATOM      4  C   UNL     1      32.836 -23.359 -14.447  0.00  0.00    +0.240 C 
ATOM      5  H   UNL     1      32.215 -25.244 -14.950  0.00  0.00    +0.149 HD
BRANCH   3   6
ATOM      6  C   UNL     1      30.625 -24.367 -13.894  0.00  0.00    +0.061 C 
ATOM      7  C   UNL     1      29.717 -25.394 -14.586  0.00  0.00    +0.020 C 
ATOM      8  C   UNL     1      30.760 -24.750 -12.411  0.00  0.00    +0.020 C 
BRANCH   6   9
ATOM      9  C   UNL     1      30.041 -22.932 -13.980  0.00  0.00    +0.044 C 
BRANCH   9  11
ATOM     10  F   UNL     1      25.930 -22.163 -17.765  0.00  0.00    -0.204 F 
ATOM     11  C   UNL     1      28.939 -22.726 -14.995  0.00  0.00    -0.020 C 
ATOM     12  C   UNL     1      29.182 -22.968 -16.347  0.00  0.00    -0.002 C 
ATOM     13  C   UNL     1      27.680 -22.293 -14.578  0.00  0.00    -0.002 C 
ATOM     14  C   UNL     1      28.165 -22.778 -17.283  0.00  0.00    +0.029 C 
ATOM     15  C   UNL     1      26.664 -22.104 -15.514  0.00  0.00    +0.029 C 
ATOM     16  C   UNL     1      26.907 -22.346 -16.866  0.00  0.00    +0.140 C 
ENDBRANCH   9  11
ENDBRANCH   6   9
ENDBRANCH   3   6
ENDBRANCH   1   4
BRANCH   1  18
ATOM     17  O   UNL     1      33.348 -24.150 -17.834  0.00  0.00    -0.270 OA
ATOM     18  N   UNL     1      34.280 -22.768 -16.221  0.00  0.00    -0.295 N 
ATOM     19  C   UNL     1      33.856 -23.082 -17.504  0.00  0.00    +0.246 C 
ATOM     20  H   UNL     1      34.676 -21.883 -16.057  0.00  0.00    +0.150 HD
BRANCH  19  21
ATOM     21  C   UNL     1      34.073 -22.033 -18.534  0.00  0.00    +0.053 C 
ATOM     22  C   UNL     1      35.369 -21.693 -18.921  0.00  0.00    +0.005 C 
ATOM     23  C   UNL     1      32.980 -21.391 -19.115  0.00  0.00    +0.005 C 
ATOM     24  C   UNL     1      34.479 -20.065 -20.469  0.00  0.00    +0.000 C 
ATOM     25  C   UNL     1      35.572 -20.708 -19.888  0.00  0.00    +0.000 C 
ATOM     26  C   UNL     1      33.182 -20.406 -20.083  0.00  0.00    +0.000 C 
BRANCH  24  27
ATOM     27  C   UNL     1      34.689 -19.044 -21.472  0.00  0.00    +0.000 C 
ATOM     28  C   UNL     1      34.236 -19.244 -22.776  0.00  0.00    +0.000 C 
ATOM     29  C   UNL     1      35.343 -17.859 -21.135  0.00  0.00    +0.000 C 
ATOM     30  C   UNL     1      34.438 -18.259 -23.743  0.00  0.00    +0.000 C 
ATOM     31  C   UNL     1      35.545 -16.874 -22.103  0.00  0.00    +0.000 C 
ATOM     32  C   UNL     1      35.092 -17.075 -23.407  0.00  0.00    +0.000 C 
ENDBRANCH  24  27
ENDBRANCH  19  21
ENDBRANCH   1  18
BRANCH   1  33
ATOM     33  C   UNL     1      35.343 -23.537 -14.153  0.00  0.00    +0.041 C 
BRANCH  33  34
ATOM     34  C   UNL     1      36.670 -24.079 -14.690  0.00  0.00    +0.112 C 
BRANCH  34  36
ATOM     35  O   UNL     1      37.224 -21.863 -15.537  0.00  0.00    -0.250 OA
ATOM     36  C   UNL     1      37.568 -23.003 -15.260  0.00  0.00    +0.314 C 
BRANCH  36  37
ATOM     37  O   UNL     1      38.844 -23.448 -15.408  0.00  0.00    -0.480 OA
ATOM     38  H   UNL     1      39.005 -24.307 -15.744  0.00  0.00    +0.295 HD
ENDBRANCH  36  37
ENDBRANCH  34  36
ENDBRANCH  33  34
ENDBRANCH   1  33
TORSDOF 11
ENDMDL
MODEL 3
REMARK VINA RESULT:     -10.7      3.456      6.629
REMARK  Name = 16048422
REMARK  11 active torsions:
REMARK  status: ('A' for Active; 'I' for Inactive)
REMARK    1  A    between atoms: C_1  and  C_4
REMARK    2  A    between atoms: C_1  and  N_18
REMARK    3  A    between atoms: C_1  and  C_33
REMARK    4  A    between atoms: N_3  and  C_6
REMARK    5  A    between atoms: C_6  and  C_9
REMARK    6  A    between atoms: C_9  and  C_11
REMARK    7  A    between atoms: C_19  and  C_21
REMARK    8  A    between atoms: C_24  and  C_27
REMARK    9  A    between atoms: C_33  and  C_34
REMARK   10  A    between atoms: C_34  and  C_36
REMARK   11  A    between atoms: C_36  and  O_37
REMARK                            x       y       z     vdW  Elec       q    Type
REMARK                         _______ _______ _______ _____ _____    ______ ____
ROOT
ATOM      1  C   UNL     1      31.477 -23.293 -14.813  0.00  0.00    +0.149 C 
ENDROOT
BRANCH   1   4
ATOM      2  O   UNL     1      32.519 -25.108 -13.600  0.00  0.00    -0.273 OA
ATOM      3  N   UNL     1      33.827 -23.297 -14.235  0.00  0.00    -0.306 N 
ATOM      4  C   UNL     1      32.645 -24.019 -14.157  0.00  0.00    +0.240 C 
ATOM      5  H   UNL     1      33.817 -22.432 -14.705  0.00  0.00    +0.149 HD
BRANCH   3   6
ATOM      6  C   UNL     1      35.071 -23.753 -13.660  0.00  0.00    +0.061 C 
ATOM      7  C   UNL     1      36.125 -22.644 -13.791  0.00  0.00    +0.020 C 
ATOM      8  C   UNL     1      34.833 -24.029 -12.166  0.00  0.00    +0.020 C 
BRANCH   6   9
ATOM      9  C   UNL     1      35.535 -25.070 -14.336  0.00  0.00    +0.044 C 
BRANCH   9  11
ATOM     10  F   UNL     1      41.004 -26.338 -13.779  0.00  0.00    -0.204 F 
ATOM     11  C   UNL     1      37.001 -25.410 -14.187  0.00  0.00    -0.020 C 
ATOM     12  C   UNL     1      37.383 -26.571 -13.513  0.00  0.00    -0.002 C 
ATOM     13  C   UNL     1      37.971 -24.563 -14.722  0.00  0.00    -0.002 C 
ATOM     14  C   UNL     1      38.735 -26.884 -13.376  0.00  0.00    +0.029 C 
ATOM     15  C   UNL     1      39.323 -24.877 -14.585  0.00  0.00    +0.029 C 
ATOM     16  C   UNL     1      39.705 -26.037 -13.912  0.00  0.00    +0.140 C 
ENDBRANCH   9  11
ENDBRANCH   6   9
ENDBRANCH   3   6
ENDBRANCH   1   4
BRANCH   1  18
ATOM     17  O   UNL     1      33.120 -24.352 -16.916  0.00  0.00    -0.270 OA
ATOM     18  N   UNL     1      32.047 -22.557 -15.914  0.00  0.00    -0.295 N 
ATOM     19  C   UNL     1      32.832 -23.159 -16.887  0.00  0.00    +0.246 C 
ATOM     20  H   UNL     1      31.873 -21.590 -15.978  0.00  0.00    +0.150 HD
BRANCH  19  21
ATOM     21  C   UNL     1      33.367 -22.257 -17.939  0.00  0.00    +0.053 C 
ATOM     22  C   UNL     1      32.495 -21.492 -18.712  0.00  0.00    +0.005 C 
ATOM     23  C   UNL     1      34.743 -22.176 -18.153  0.00  0.00    +0.005 C 
ATOM     24  C   UNL     1      34.373 -20.565 -19.915  0.00  0.00    +0.000 C 
ATOM     25  C   UNL     1      32.998 -20.646 -19.701  0.00  0.00    +0.000 C 
ATOM     26  C   UNL     1      35.247 -21.330 -19.141  0.00  0.00    +0.000 C 
BRANCH  24  27
ATOM     27  C   UNL     1      34.896 -19.687 -20.940  0.00  0.00    +0.000 C 
ATOM     28  C   UNL     1      36.168 -19.132 -20.801  0.00  0.00    +0.000 C 
ATOM     29  C   UNL     1      34.128 -19.397 -22.068  0.00  0.00    +0.000 C 
ATOM     30  C   UNL     1      36.672 -18.287 -21.790  0.00  0.00    +0.000 C 
ATOM     31  C   UNL     1      34.633 -18.551 -23.056  0.00  0.00    +0.000 C 
ATOM     32  C   UNL     1      35.904 -17.996 -22.917  0.00  0.00    +0.000 C 
ENDBRANCH  24  27
ENDBRANCH  19  21
ENDBRANCH   1  18
BRANCH   1  33
ATOM     33  C   UNL     1      30.407 -24.272 -15.312  0.00  0.00    +0.041 C 
BRANCH  33  34
ATOM     34  C   UNL     1      28.968 -23.798 -15.092  0.00  0.00    +0.112 C 
BRANCH  34  36
ATOM     35  O   UNL     1      27.606 -24.096 -17.090  0.00  0.00    -0.250 OA
ATOM     36  C   UNL     1      28.278 -23.371 -16.369  0.00  0.00    +0.314 C 
BRANCH  36  37
ATOM     37  O   UNL     1      28.466 -22.049 -16.617  0.00  0.00    -0.480 OA
ATOM     38  H   UNL     1      28.435 -21.430 -15.915  0.00  0.00    +0.295 HD
ENDBRANCH  36  37
ENDBRANCH  34  36
ENDBRANCH  33  34
ENDBRANCH   1  33
TORSDOF 11
ENDMDL
MODEL 4
REMARK VINA RESULT:     -10.5      3.841      6.846
REMARK  Name = 16048422
REMARK  11 active torsions:
REMARK  status: ('A' for Active; 'I' for Inactive)
REMARK    1  A    between atoms: C_1  and  C_4
REMARK    2  A    between atoms: C_1  and  N_18
REMARK    3  A    between atoms: C_1  and  C_33
REMARK    4  A    between atoms: N_3  and  C_6
REMARK    5  A    between atoms: C_6  and  C_9
REMARK    6  A    between atoms: C_9  and  C_11
REMARK    7  A    between atoms: C_19  and  C_21
REMARK    8  A    between atoms: C_24  and  C_27
REMARK    9  A    between atoms: C_33  and  C_34
REMARK   10  A    between atoms: C_34  and  C_36
REMARK   11  A    between atoms: C_36  and  O_37
REMARK                            x       y       z     vdW  Elec       q    Type
REMARK                         _______ _______ _______ _____ _____    ______ ____
ROOT
ATOM      1  C   UNL     1      34.160 -23.464 -14.660  0.00  0.00    +0.149 C 
ENDROOT
BRANCH   1   4
ATOM      2  O   UNL     1      35.502 -25.329 -15.417  0.00  0.00    -0.273 OA
ATOM      3  N   UNL     1      36.337 -23.968 -13.732  0.00  0.00    -0.306 N 
ATOM      4  C   UNL     1      35.394 -24.358 -14.670  0.00  0.00    +0.240 C 
ATOM      5  H   UNL     1      36.150 -23.172 -13.182  0.00  0.00    +0.149 HD
BRANCH   3   6
ATOM      6  C   UNL     1      37.581 -24.672 -13.520  0.00  0.00    +0.061 C 
ATOM      7  C   UNL     1      38.594 -24.243 -14.592  0.00  0.00    +0.020 C 
ATOM      8  C   UNL     1      38.127 -24.269 -12.140  0.00  0.00    +0.020 C 
BRANCH   6   9
ATOM      9  C   UNL     1      37.349 -26.206 -13.528  0.00  0.00    +0.044 C 
BRANCH   9  11
ATOM     10  F   UNL     1      41.004 -29.240 -16.569  0.00  0.00    -0.204 F 
ATOM     11  C   UNL     1      38.329 -27.019 -14.344  0.00  0.00    -0.020 C 
ATOM     12  C   UNL     1      39.670 -27.079 -13.965  0.00  0.00    -0.002 C 
ATOM     13  C   UNL     1      37.891 -27.709 -15.474  0.00  0.00    -0.002 C 
ATOM     14  C   UNL     1      40.574 -27.830 -14.716  0.00  0.00    +0.029 C 
ATOM     15  C   UNL     1      38.795 -28.460 -16.225  0.00  0.00    +0.029 C 
ATOM     16  C   UNL     1      40.136 -28.520 -15.846  0.00  0.00    +0.140 C 
ENDBRANCH   9  11
ENDBRANCH   6   9
ENDBRANCH   3   6
ENDBRANCH   1   4
BRANCH   1  18
ATOM     17  O   UNL     1      33.341 -24.095 -17.339  0.00  0.00    -0.270 OA
ATOM     18  N   UNL     1      34.286 -22.617 -15.821  0.00  0.00    -0.295 N 
ATOM     19  C   UNL     1      33.858 -23.011 -17.081  0.00  0.00    +0.246 C 
ATOM     20  H   UNL     1      34.690 -21.726 -15.716  0.00  0.00    +0.150 HD
BRANCH  19  21
ATOM     21  C   UNL     1      34.083 -22.035 -18.178  0.00  0.00    +0.053 C 
ATOM     22  C   UNL     1      35.381 -21.735 -18.590  0.00  0.00    +0.005 C 
ATOM     23  C   UNL     1      32.995 -21.419 -18.797  0.00  0.00    +0.005 C 
ATOM     24  C   UNL     1      34.505 -20.203 -20.239  0.00  0.00    +0.000 C 
ATOM     25  C   UNL     1      35.593 -20.818 -19.620  0.00  0.00    +0.000 C 
ATOM     26  C   UNL     1      33.206 -20.503 -19.828  0.00  0.00    +0.000 C 
BRANCH  24  27
ATOM     27  C   UNL     1      34.723 -19.252 -21.307  0.00  0.00    +0.000 C 
ATOM     28  C   UNL     1      35.492 -18.111 -21.080  0.00  0.00    +0.000 C 
ATOM     29  C   UNL     1      34.166 -19.478 -22.566  0.00  0.00    +0.000 C 
ATOM     30  C   UNL     1      35.703 -17.195 -22.110  0.00  0.00    +0.000 C 
ATOM     31  C   UNL     1      34.378 -18.561 -23.597  0.00  0.00    +0.000 C 
ATOM     32  C   UNL     1      35.146 -17.420 -23.368  0.00  0.00    +0.000 C 
ENDBRANCH  24  27
ENDBRANCH  19  21
ENDBRANCH   1  18
BRANCH   1  33
ATOM     33  C   UNL     1      32.864 -24.281 -14.723  0.00  0.00    +0.041 C 
BRANCH  33  34
ATOM     34  C   UNL     1      31.720 -23.714 -13.881  0.00  0.00    +0.112 C 
BRANCH  34  36
ATOM     35  O   UNL     1      30.126 -25.529 -14.194  0.00  0.00    -0.250 OA
ATOM     36  C   UNL     1      30.718 -24.762 -13.448  0.00  0.00    +0.314 C 
BRANCH  36  37
ATOM     37  O   UNL     1      30.566 -24.777 -12.098  0.00  0.00    -0.480 OA
ATOM     38  H   UNL     1      31.083 -25.356 -11.574  0.00  0.00    +0.295 HD
ENDBRANCH  36  37
ENDBRANCH  34  36
ENDBRANCH  33  34
ENDBRANCH   1  33
TORSDOF 11
ENDMDL
MODEL 5
REMARK VINA RESULT:     -10.3      3.571      6.662
REMARK  Name = 16048422
REMARK  11 active torsions:
REMARK  status: ('A' for Active; 'I' for Inactive)
REMARK    1  A    between atoms: C_1  and  C_4
REMARK    2  A    between atoms: C_1  and  N_18
REMARK    3  A    between atoms: C_1  and  C_33
REMARK    4  A    between atoms: N_3  and  C_6
REMARK    5  A    between atoms: C_6  and  C_9
REMARK    6  A    between atoms: C_9  and  C_11
REMARK    7  A    between atoms: C_19  and  C_21
REMARK    8  A    between atoms: C_24  and  C_27
REMARK    9  A    between atoms: C_33  and  C_34
REMARK   10  A    between atoms: C_34  and  C_36
REMARK   11  A    between atoms: C_36  and  O_37
REMARK                            x       y       z     vdW  Elec       q    Type
REMARK                         _______ _______ _______ _____ _____    ______ ____
ROOT
ATOM      1  C   UNL     1      33.424 -23.262 -14.859  0.00  0.00    +0.149 C 
ENDROOT
BRANCH   1   4
ATOM      2  O   UNL     1      35.149 -24.911 -15.253  0.00  0.00    -0.273 OA
ATOM      3  N   UNL     1      35.442 -23.383 -13.529  0.00  0.00    -0.306 N 
ATOM      4  C   UNL     1      34.759 -23.947 -14.596  0.00  0.00    +0.240 C 
ATOM      5  H   UNL     1      35.039 -22.611 -13.071  0.00  0.00    +0.149 HD
BRANCH   3   6
ATOM      6  C   UNL     1      36.717 -23.873 -13.058  0.00  0.00    +0.061 C 
ATOM      7  C   UNL     1      37.244 -22.938 -11.960  0.00  0.00    +0.020 C 
ATOM      8  C   UNL     1      36.496 -25.268 -12.450  0.00  0.00    +0.020 C 
BRANCH   6   9
ATOM      9  C   UNL     1      37.721 -24.003 -14.234  0.00  0.00    +0.044 C 
BRANCH   9  11
ATOM     10  F   UNL     1      40.640 -28.824 -14.467  0.00  0.00    -0.204 F 
ATOM     11  C   UNL     1      38.504 -25.296 -14.296  0.00  0.00    -0.020 C 
ATOM     12  C   UNL     1      37.856 -26.488 -14.620  0.00  0.00    -0.002 C 
ATOM     13  C   UNL     1      39.873 -25.295 -14.031  0.00  0.00    -0.002 C 
ATOM     14  C   UNL     1      38.578 -27.680 -14.678  0.00  0.00    +0.029 C 
ATOM     15  C   UNL     1      40.595 -26.487 -14.089  0.00  0.00    +0.029 C 
ATOM     16  C   UNL     1      39.947 -27.679 -14.412  0.00  0.00    +0.140 C 
ENDBRANCH   9  11
ENDBRANCH   6   9
ENDBRANCH   3   6
ENDBRANCH   1   4
BRANCH   1  18
ATOM     17  O   UNL     1      33.319 -24.087 -17.607  0.00  0.00    -0.270 OA
ATOM     18  N   UNL     1      33.637 -22.429 -16.017  0.00  0.00    -0.295 N 
ATOM     19  C   UNL     1      33.565 -22.920 -17.312  0.00  0.00    +0.246 C 
ATOM     20  H   UNL     1      33.842 -21.475 -15.884  0.00  0.00    +0.150 HD
BRANCH  19  21
ATOM     21  C   UNL     1      33.837 -21.941 -18.395  0.00  0.00    +0.053 C 
ATOM     22  C   UNL     1      35.150 -21.680 -18.787  0.00  0.00    +0.005 C 
ATOM     23  C   UNL     1      32.779 -21.282 -19.021  0.00  0.00    +0.005 C 
ATOM     24  C   UNL     1      34.347 -20.101 -20.430  0.00  0.00    +0.000 C 
ATOM     25  C   UNL     1      35.406 -20.759 -19.804  0.00  0.00    +0.000 C 
ATOM     26  C   UNL     1      33.034 -20.362 -20.039  0.00  0.00    +0.000 C 
BRANCH  24  27
ATOM     27  C   UNL     1      34.611 -19.147 -21.484  0.00  0.00    +0.000 C 
ATOM     28  C   UNL     1      34.131 -19.381 -22.773  0.00  0.00    +0.000 C 
ATOM     29  C   UNL     1      35.345 -17.992 -21.213  0.00  0.00    +0.000 C 
ATOM     30  C   UNL     1      34.384 -18.460 -23.790  0.00  0.00    +0.000 C 
ATOM     31  C   UNL     1      35.599 -17.072 -22.231  0.00  0.00    +0.000 C 
ATOM     32  C   UNL     1      35.118 -17.306 -23.519  0.00  0.00    +0.000 C 
ENDBRANCH  24  27
ENDBRANCH  19  21
ENDBRANCH   1  18
BRANCH   1  33
ATOM     33  C   UNL     1      32.304 -24.276 -15.120  0.00  0.00    +0.041 C 
BRANCH  33  34
ATOM     34  C   UNL     1      30.940 -23.866 -14.561  0.00  0.00    +0.112 C 
BRANCH  34  36
ATOM     35  O   UNL     1      30.994 -24.699 -12.273  0.00  0.00    -0.250 OA
ATOM     36  C   UNL     1      30.494 -24.713 -13.389  0.00  0.00    +0.314 C 
BRANCH  36  37
ATOM     37  O   UNL     1      29.429 -25.491 -13.714  0.00  0.00    -0.480 OA
ATOM     38  H   UNL     1      29.327 -25.803 -14.591  0.00  0.00    +0.295 HD
ENDBRANCH  36  37
ENDBRANCH  34  36
ENDBRANCH  33  34
ENDBRANCH   1  33
TORSDOF 11
ENDMDL
MODEL 6
REMARK VINA RESULT:      -9.6      5.758     11.218
REMARK  Name = 16048422
REMARK  11 active torsions:
REMARK  status: ('A' for Active; 'I' for Inactive)
REMARK    1  A    between atoms: C_1  and  C_4
REMARK    2  A    between atoms: C_1  and  N_18
REMARK    3  A    between atoms: C_1  and  C_33
REMARK    4  A    between atoms: N_3  and  C_6
REMARK    5  A    between atoms: C_6  and  C_9
REMARK    6  A    between atoms: C_9  and  C_11
REMARK    7  A    between atoms: C_19  and  C_21
REMARK    8  A    between atoms: C_24  and  C_27
REMARK    9  A    between atoms: C_33  and  C_34
REMARK   10  A    between atoms: C_34  and  C_36
REMARK   11  A    between atoms: C_36  and  O_37
REMARK                            x       y       z     vdW  Elec       q    Type
REMARK                         _______ _______ _______ _____ _____    ______ ____
ROOT
ATOM      1  C   UNL     1      35.425 -16.410 -22.987  0.00  0.00    +0.149 C 
ENDROOT
BRANCH   1   4
ATOM      2  O   UNL     1      34.579 -14.850 -21.344  0.00  0.00    -0.273 OA
ATOM      3  N   UNL     1      34.345 -14.332 -23.595  0.00  0.00    -0.306 N 
ATOM      4  C   UNL     1      34.753 -15.121 -22.531  0.00  0.00    +0.240 C 
ATOM      5  H   UNL     1      34.535 -14.644 -24.510  0.00  0.00    +0.149 HD
BRANCH   3   6
ATOM      6  C   UNL     1      33.653 -13.074 -23.428  0.00  0.00    +0.061 C 
ATOM      7  C   UNL     1      34.639 -12.021 -22.903  0.00  0.00    +0.020 C 
ATOM      8  C   UNL     1      33.143 -12.624 -24.808  0.00  0.00    +0.020 C 
BRANCH   6   9
ATOM      9  C   UNL     1      32.433 -13.243 -22.484  0.00  0.00    +0.044 C 
BRANCH   9  11
ATOM     10  F   UNL     1      31.389  -8.926 -19.007  0.00  0.00    -0.204 F 
ATOM     11  C   UNL     1      32.153 -12.085 -21.552  0.00  0.00    -0.020 C 
ATOM     12  C   UNL     1      32.215 -12.272 -20.171  0.00  0.00    -0.002 C 
ATOM     13  C   UNL     1      31.833 -10.832 -22.073  0.00  0.00    -0.002 C 
ATOM     14  C   UNL     1      31.957 -11.204 -19.311  0.00  0.00    +0.029 C 
ATOM     15  C   UNL     1      31.576  -9.765 -21.214  0.00  0.00    +0.029 C 
ATOM     16  C   UNL     1      31.637  -9.951 -19.833  0.00  0.00    +0.140 C 
ENDBRANCH   9  11
ENDBRANCH   6   9
ENDBRANCH   3   6
ENDBRANCH   1   4
BRANCH   1  18
ATOM     17  O   UNL     1      36.677 -18.969 -22.635  0.00  0.00    -0.270 OA
ATOM     18  N   UNL     1      35.111 -17.390 -21.977  0.00  0.00    -0.295 N 
ATOM     19  C   UNL     1      35.775 -18.605 -21.886  0.00  0.00    +0.246 C 
ATOM     20  H   UNL     1      34.400 -17.190 -21.328  0.00  0.00    +0.150 HD
BRANCH  19  21
ATOM     21  C   UNL     1      35.316 -19.517 -20.807  0.00  0.00    +0.053 C 
ATOM     22  C   UNL     1      33.953 -19.747 -20.621  0.00  0.00    +0.005 C 
ATOM     23  C   UNL     1      36.248 -20.144 -19.980  0.00  0.00    +0.005 C 
ATOM     24  C   UNL     1      34.453 -21.230 -18.781  0.00  0.00    +0.000 C 
ATOM     25  C   UNL     1      33.521 -20.603 -19.608  0.00  0.00    +0.000 C 
ATOM     26  C   UNL     1      35.817 -21.001 -18.967  0.00  0.00    +0.000 C 
BRANCH  24  27
ATOM     27  C   UNL     1      34.007 -22.118 -17.730  0.00  0.00    +0.000 C 
ATOM     28  C   UNL     1      34.931 -22.671 -16.844  0.00  0.00    +0.000 C 
ATOM     29  C   UNL     1      32.651 -22.421 -17.602  0.00  0.00    +0.000 C 
ATOM     30  C   UNL     1      34.500 -23.527 -15.830  0.00  0.00    +0.000 C 
ATOM     31  C   UNL     1      32.221 -23.278 -16.588  0.00  0.00    +0.000 C 
ATOM     32  C   UNL     1      33.146 -23.830 -15.702  0.00  0.00    +0.000 C 
ENDBRANCH  24  27
ENDBRANCH  19  21
ENDBRANCH   1  18
BRANCH   1  33
ATOM     33  C   UNL     1      34.913 -16.863 -24.360  0.00  0.00    +0.041 C 
BRANCH  33  34
ATOM     34  C   UNL     1      33.403 -17.104 -24.421  0.00  0.00    +0.112 C 
BRANCH  34  36
ATOM     35  O   UNL     1      31.967 -18.932 -25.148  0.00  0.00    -0.250 OA
ATOM     36  C   UNL     1      33.038 -18.544 -24.702  0.00  0.00    +0.314 C 
BRANCH  36  37
ATOM     37  O   UNL     1      34.070 -19.382 -24.422  0.00  0.00    -0.480 OA
ATOM     38  H   UNL     1      34.951 -19.119 -24.603  0.00  0.00    +0.295 HD
ENDBRANCH  36  37
ENDBRANCH  34  36
ENDBRANCH  33  34
ENDBRANCH   1  33
TORSDOF 11
ENDMDL
MODEL 7
REMARK VINA RESULT:      -9.4      9.011     14.177
REMARK  Name = 16048422
REMARK  11 active torsions:
REMARK  status: ('A' for Active; 'I' for Inactive)
REMARK    1  A    between atoms: C_1  and  C_4
REMARK    2  A    between atoms: C_1  and  N_18
REMARK    3  A    between atoms: C_1  and  C_33
REMARK    4  A    between atoms: N_3  and  C_6
REMARK    5  A    between atoms: C_6  and  C_9
REMARK    6  A    between atoms: C_9  and  C_11
REMARK    7  A    between atoms: C_19  and  C_21
REMARK    8  A    between atoms: C_24  and  C_27
REMARK    9  A    between atoms: C_33  and  C_34
REMARK   10  A    between atoms: C_34  and  C_36
REMARK   11  A    between atoms: C_36  and  O_37
REMARK                            x       y       z     vdW  Elec       q    Type
REMARK                         _______ _______ _______ _____ _____    ______ ____
ROOT
ATOM      1  C   UNL     1      33.970 -12.301 -23.233  0.00  0.00    +0.149 C 
ENDROOT
BRANCH   1   4
ATOM      2  O   UNL     1      31.908 -12.274 -21.969  0.00  0.00    -0.273 OA
ATOM      3  N   UNL     1      33.044 -10.274 -22.290  0.00  0.00    -0.306 N 
ATOM      4  C   UNL     1      32.862 -11.643 -22.421  0.00  0.00    +0.240 C 
ATOM      5  H   UNL     1      33.846  -9.868 -22.692  0.00  0.00    +0.149 HD
BRANCH   3   6
ATOM      6  C   UNL     1      32.115  -9.415 -21.592  0.00  0.00    +0.061 C 
ATOM      7  C   UNL     1      30.964  -9.041 -22.539  0.00  0.00    +0.020 C 
ATOM      8  C   UNL     1      31.537 -10.204 -20.406  0.00  0.00    +0.020 C 
BRANCH   6   9
ATOM      9  C   UNL     1      32.839  -8.159 -21.042  0.00  0.00    +0.044 C 
BRANCH   9  11
ATOM     10  F   UNL     1      34.202  -4.226 -24.849  0.00  0.00    -0.204 F 
ATOM     11  C   UNL     1      33.204  -7.105 -22.062  0.00  0.00    -0.020 C 
ATOM     12  C   UNL     1      32.370  -6.003 -22.256  0.00  0.00    -0.002 C 
ATOM     13  C   UNL     1      34.374  -7.234 -22.810  0.00  0.00    -0.002 C 
ATOM     14  C   UNL     1      32.708  -5.030 -23.197  0.00  0.00    +0.029 C 
ATOM     15  C   UNL     1      34.712  -6.261 -23.751  0.00  0.00    +0.029 C 
ATOM     16  C   UNL     1      33.878  -5.160 -23.944  0.00  0.00    +0.140 C 
ENDBRANCH   9  11
ENDBRANCH   6   9
ENDBRANCH   3   6
ENDBRANCH   1   4
BRANCH   1  18
ATOM     17  O   UNL     1      34.907 -14.669 -24.559  0.00  0.00    -0.270 OA
ATOM     18  N   UNL     1      34.168 -13.600 -22.638  0.00  0.00    -0.295 N 
ATOM     19  C   UNL     1      34.628 -14.690 -23.363  0.00  0.00    +0.246 C 
ATOM     20  H   UNL     1      33.971 -13.717 -21.681  0.00  0.00    +0.150 HD
BRANCH  19  21
ATOM     21  C   UNL     1      34.753 -15.965 -22.610  0.00  0.00    +0.053 C 
ATOM     22  C   UNL     1      34.666 -17.183 -23.283  0.00  0.00    +0.005 C 
ATOM     23  C   UNL     1      34.957 -15.942 -21.231  0.00  0.00    +0.005 C 
ATOM     24  C   UNL     1      34.987 -18.358 -21.197  0.00  0.00    +0.000 C 
ATOM     25  C   UNL     1      34.783 -18.380 -22.576  0.00  0.00    +0.000 C 
ATOM     26  C   UNL     1      35.074 -17.139 -20.523  0.00  0.00    +0.000 C 
BRANCH  24  27
ATOM     27  C   UNL     1      35.109 -19.599 -20.463  0.00  0.00    +0.000 C 
ATOM     28  C   UNL     1      36.367 -20.060 -20.076  0.00  0.00    +0.000 C 
ATOM     29  C   UNL     1      33.968 -20.335 -20.142  0.00  0.00    +0.000 C 
ATOM     30  C   UNL     1      36.484 -21.256 -19.367  0.00  0.00    +0.000 C 
ATOM     31  C   UNL     1      34.086 -21.531 -19.434  0.00  0.00    +0.000 C 
ATOM     32  C   UNL     1      35.344 -21.991 -19.047  0.00  0.00    +0.000 C 
ENDBRANCH  24  27
ENDBRANCH  19  21
ENDBRANCH   1  18
BRANCH   1  33
ATOM     33  C   UNL     1      33.588 -12.435 -24.712  0.00  0.00    +0.041 C 
BRANCH  33  34
ATOM     34  C   UNL     1      33.671 -11.130 -25.506  0.00  0.00    +0.112 C 
BRANCH  34  36
ATOM     35  O   UNL     1      35.813 -10.442 -26.441  0.00  0.00    -0.250 OA
ATOM     36  C   UNL     1      35.049 -10.505 -25.488  0.00  0.00    +0.314 C 
BRANCH  36  37
ATOM     37  O   UNL     1      35.342  -9.981 -24.269  0.00  0.00    -0.480 OA
ATOM     38  H   UNL     1      35.610  -9.086 -24.195  0.00  0.00    +0.295 HD
ENDBRANCH  36  37
ENDBRANCH  34  36
ENDBRANCH  33  34
ENDBRANCH   1  33
TORSDOF 11
ENDMDL
MODEL 8
REMARK VINA RESULT:      -9.4      1.461      2.091
REMARK  Name = 16048422
REMARK  11 active torsions:
REMARK  status: ('A' for Active; 'I' for Inactive)
REMARK    1  A    between atoms: C_1  and  C_4
REMARK    2  A    between atoms: C_1  and  N_18
REMARK    3  A    between atoms: C_1  and  C_33
REMARK    4  A    between atoms: N_3  and  C_6
REMARK    5  A    between atoms: C_6  and  C_9
REMARK    6  A    between atoms: C_9  and  C_11
REMARK    7  A    between atoms: C_19  and  C_21
REMARK    8  A    between atoms: C_24  and  C_27
REMARK    9  A    between atoms: C_33  and  C_34
REMARK   10  A    between atoms: C_34  and  C_36
REMARK   11  A    between atoms: C_36  and  O_37
REMARK                            x       y       z     vdW  Elec       q    Type
REMARK                         _______ _______ _______ _____ _____    ______ ____
ROOT
ATOM      1  C   UNL     1      34.706 -24.131 -15.474  0.00  0.00    +0.149 C 
ENDROOT
BRANCH   1   4
ATOM      2  O   UNL     1      34.297 -22.779 -13.510  0.00  0.00    -0.273 OA
ATOM      3  N   UNL     1      32.507 -23.885 -14.493  0.00  0.00    -0.306 N 
ATOM      4  C   UNL     1      33.838 -23.508 -14.388  0.00  0.00    +0.240 C 
ATOM      5  H   UNL     1      32.245 -24.475 -15.238  0.00  0.00    +0.149 HD
BRANCH   3   6
ATOM      6  C   UNL     1      31.487 -23.456 -13.564  0.00  0.00    +0.061 C 
ATOM      7  C   UNL     1      32.023 -23.586 -12.130  0.00  0.00    +0.020 C 
ATOM      8  C   UNL     1      31.183 -21.975 -13.842  0.00  0.00    +0.020 C 
BRANCH   6   9
ATOM      9  C   UNL     1      30.184 -24.273 -13.768  0.00  0.00    +0.044 C 
BRANCH   9  11
ATOM     10  F   UNL     1      26.678 -22.371 -17.756  0.00  0.00    -0.204 F 
ATOM     11  C   UNL     1      29.244 -23.763 -14.837  0.00  0.00    -0.020 C 
ATOM     12  C   UNL     1      28.511 -22.596 -14.622  0.00  0.00    -0.002 C 
ATOM     13  C   UNL     1      29.110 -24.460 -16.037  0.00  0.00    -0.002 C 
ATOM     14  C   UNL     1      27.645 -22.125 -15.609  0.00  0.00    +0.029 C 
ATOM     15  C   UNL     1      28.244 -23.990 -17.024  0.00  0.00    +0.029 C 
ATOM     16  C   UNL     1      27.511 -22.822 -16.809  0.00  0.00    +0.140 C 
ENDBRANCH   9  11
ENDBRANCH   6   9
ENDBRANCH   3   6
ENDBRANCH   1   4
BRANCH   1  18
ATOM     17  O   UNL     1      32.801 -23.746 -17.588  0.00  0.00    -0.270 OA
ATOM     18  N   UNL     1      34.774 -23.147 -16.527  0.00  0.00    -0.295 N 
ATOM     19  C   UNL     1      33.801 -23.037 -17.509  0.00  0.00    +0.246 C 
ATOM     20  H   UNL     1      35.541 -22.531 -16.550  0.00  0.00    +0.150 HD
BRANCH  19  21
ATOM     21  C   UNL     1      34.031 -21.991 -18.539  0.00  0.00    +0.053 C 
ATOM     22  C   UNL     1      32.947 -21.368 -19.155  0.00  0.00    +0.005 C 
ATOM     23  C   UNL     1      35.333 -21.632 -18.888  0.00  0.00    +0.005 C 
ATOM     24  C   UNL     1      34.466 -20.027 -20.472  0.00  0.00    +0.000 C 
ATOM     25  C   UNL     1      33.164 -20.386 -20.123  0.00  0.00    +0.000 C 
ATOM     26  C   UNL     1      35.551 -20.650 -19.855  0.00  0.00    +0.000 C 
BRANCH  24  27
ATOM     27  C   UNL     1      34.691 -19.009 -21.474  0.00  0.00    +0.000 C 
ATOM     28  C   UNL     1      35.287 -17.799 -21.118  0.00  0.00    +0.000 C 
ATOM     29  C   UNL     1      34.315 -19.238 -22.798  0.00  0.00    +0.000 C 
ATOM     30  C   UNL     1      35.506 -16.818 -22.085  0.00  0.00    +0.000 C 
ATOM     31  C   UNL     1      34.534 -18.255 -23.765  0.00  0.00    +0.000 C 
ATOM     32  C   UNL     1      35.129 -17.046 -23.408  0.00  0.00    +0.000 C 
ENDBRANCH  24  27
ENDBRANCH  19  21
ENDBRANCH   1  18
BRANCH   1  33
ATOM     33  C   UNL     1      36.109 -24.470 -14.957  0.00  0.00    +0.041 C 
BRANCH  33  34
ATOM     34  C   UNL     1      36.181 -25.754 -14.128  0.00  0.00    +0.112 C 
BRANCH  34  36
ATOM     35  O   UNL     1      38.268 -26.838 -13.491  0.00  0.00    -0.250 OA
ATOM     36  C   UNL     1      37.453 -26.541 -14.354  0.00  0.00    +0.314 C 
BRANCH  36  37
ATOM     37  O   UNL     1      37.579 -26.920 -15.652  0.00  0.00    -0.480 OA
ATOM     38  H   UNL     1      36.862 -27.332 -16.093  0.00  0.00    +0.295 HD
ENDBRANCH  36  37
ENDBRANCH  34  36
ENDBRANCH  33  34
ENDBRANCH   1  33
TORSDOF 11
ENDMDL
MODEL 9
REMARK VINA RESULT:      -9.4      1.710      2.451
REMARK  Name = 16048422
REMARK  11 active torsions:
REMARK  status: ('A' for Active; 'I' for Inactive)
REMARK    1  A    between atoms: C_1  and  C_4
REMARK    2  A    between atoms: C_1  and  N_18
REMARK    3  A    between atoms: C_1  and  C_33
REMARK    4  A    between atoms: N_3  and  C_6
REMARK    5  A    between atoms: C_6  and  C_9
REMARK    6  A    between atoms: C_9  and  C_11
REMARK    7  A    between atoms: C_19  and  C_21
REMARK    8  A    between atoms: C_24  and  C_27
REMARK    9  A    between atoms: C_33  and  C_34
REMARK   10  A    between atoms: C_34  and  C_36
REMARK   11  A    between atoms: C_36  and  O_37
REMARK                            x       y       z     vdW  Elec       q    Type
REMARK                         _______ _______ _______ _____ _____    ______ ____
ROOT
ATOM      1  C   UNL     1      35.426 -23.024 -15.835  0.00  0.00    +0.149 C 
ENDROOT
BRANCH   1   4
ATOM      2  O   UNL     1      33.155 -23.789 -16.165  0.00  0.00    -0.273 OA
ATOM      3  N   UNL     1      33.839 -23.224 -14.019  0.00  0.00    -0.306 N 
ATOM      4  C   UNL     1      34.021 -23.401 -15.382  0.00  0.00    +0.240 C 
ATOM      5  H   UNL     1      34.602 -22.907 -13.482  0.00  0.00    +0.149 HD
BRANCH   3   6
ATOM      6  C   UNL     1      32.585 -23.479 -13.348  0.00  0.00    +0.061 C 
ATOM      7  C   UNL     1      32.160 -24.932 -13.608  0.00  0.00    +0.020 C 
ATOM      8  C   UNL     1      32.808 -23.297 -11.837  0.00  0.00    +0.020 C 
BRANCH   6   9
ATOM      9  C   UNL     1      31.502 -22.471 -13.811  0.00  0.00    +0.044 C 
BRANCH   9  11
ATOM     10  F   UNL     1      27.280 -24.615 -16.875  0.00  0.00    -0.204 F 
ATOM     11  C   UNL     1      30.370 -23.045 -14.632  0.00  0.00    -0.020 C 
ATOM     12  C   UNL     1      29.976 -22.416 -15.813  0.00  0.00    -0.002 C 
ATOM     13  C   UNL     1      29.721 -24.205 -14.209  0.00  0.00    -0.002 C 
ATOM     14  C   UNL     1      28.932 -22.947 -16.571  0.00  0.00    +0.029 C 
ATOM     15  C   UNL     1      28.677 -24.736 -14.967  0.00  0.00    +0.029 C 
ATOM     16  C   UNL     1      28.283 -24.106 -16.148  0.00  0.00    +0.140 C 
ENDBRANCH   9  11
ENDBRANCH   6   9
ENDBRANCH   3   6
ENDBRANCH   1   4
BRANCH   1  18
ATOM     17  O   UNL     1      37.496 -22.006 -17.544  0.00  0.00    -0.270 OA
ATOM     18  N   UNL     1      35.248 -22.206 -17.010  0.00  0.00    -0.295 N 
ATOM     19  C   UNL     1      36.316 -21.760 -17.776  0.00  0.00    +0.246 C 
ATOM     20  H   UNL     1      34.336 -21.955 -17.279  0.00  0.00    +0.150 HD
BRANCH  19  21
ATOM     21  C   UNL     1      35.968 -20.904 -18.939  0.00  0.00    +0.053 C 
ATOM     22  C   UNL     1      34.672 -20.920 -19.455  0.00  0.00    +0.005 C 
ATOM     23  C   UNL     1      36.937 -20.084 -19.515  0.00  0.00    +0.005 C 
ATOM     24  C   UNL     1      35.315 -19.296 -21.123  0.00  0.00    +0.000 C 
ATOM     25  C   UNL     1      34.346 -20.116 -20.547  0.00  0.00    +0.000 C 
ATOM     26  C   UNL     1      36.611 -19.279 -20.608  0.00  0.00    +0.000 C 
BRANCH  24  27
ATOM     27  C   UNL     1      34.977 -18.462 -22.256  0.00  0.00    +0.000 C 
ATOM     28  C   UNL     1      34.262 -18.996 -23.327  0.00  0.00    +0.000 C 
ATOM     29  C   UNL     1      35.366 -17.122 -22.277  0.00  0.00    +0.000 C 
ATOM     30  C   UNL     1      33.935 -18.192 -24.419  0.00  0.00    +0.000 C 
ATOM     31  C   UNL     1      35.039 -16.318 -23.369  0.00  0.00    +0.000 C 
ATOM     32  C   UNL     1      34.324 -16.853 -24.440  0.00  0.00    +0.000 C 
ENDBRANCH  24  27
ENDBRANCH  19  21
ENDBRANCH   1  18
BRANCH   1  33
ATOM     33  C   UNL     1      36.186 -22.253 -14.749  0.00  0.00    +0.041 C 
BRANCH  33  34
ATOM     34  C   UNL     1      37.406 -22.990 -14.191  0.00  0.00    +0.112 C 
BRANCH  34  36
ATOM     35  O   UNL     1      38.229 -23.695 -12.010  0.00  0.00    -0.250 OA
ATOM     36  C   UNL     1      37.342 -23.208 -12.696  0.00  0.00    +0.314 C 
BRANCH  36  37
ATOM     37  O   UNL     1      36.167 -22.764 -12.179  0.00  0.00    -0.480 OA
ATOM     38  H   UNL     1      36.167 -22.180 -11.446  0.00  0.00    +0.295 HD
ENDBRANCH  36  37
ENDBRANCH  34  36
ENDBRANCH  33  34
ENDBRANCH   1  33
TORSDOF 11
ENDMDL
