MODEL 1
REMARK VINA RESULT:     -12.9      0.000      0.000
REMARK  Name = 5288641
REMARK  1 active torsions:
REMARK  status: ('A' for Active; 'I' for Inactive)
REMARK    1  A    between atoms: C_14  and  S_23
REMARK                            x       y       z     vdW  Elec       q    Type
REMARK                         _______ _______ _______ _____ _____    ______ ____
ROOT
ATOM      1  O   UNL     1      35.657 -24.072 -14.717  0.00  0.00    -0.270 OA
ATOM      2  O   UNL     1      31.832 -22.110 -17.762  0.00  0.00    -0.285 OA
ATOM      3  N   UNL     1      35.261 -22.461 -17.181  0.00  0.00    -0.310 N 
ATOM      4  N   UNL     1      33.563 -24.687 -13.809  0.00  0.00    -0.280 N 
ATOM      5  C   UNL     1      33.534 -23.432 -15.723  0.00  0.00    +0.071 C 
ATOM      6  C   UNL     1      32.153 -23.700 -15.333  0.00  0.00    +0.020 C 
ATOM      7  C   UNL     1      33.982 -22.741 -16.772  0.00  0.00    +0.092 C 
ATOM      8  C   UNL     1      32.230 -24.465 -14.166  0.00  0.00    +0.051 C 
ATOM      9  C   UNL     1      34.439 -24.083 -14.718  0.00  0.00    +0.251 C 
ATOM     10  C   UNL     1      33.922 -21.447 -18.748  0.00  0.00    +0.054 C 
ATOM     11  C   UNL     1      35.240 -21.700 -18.343  0.00  0.00    +0.051 C 
ATOM     12  C   UNL     1      33.045 -22.101 -17.761  0.00  0.00    +0.210 C 
ATOM     13  C   UNL     1      30.928 -23.358 -15.874  0.00  0.00    +0.020 C 
ATOM     14  C   UNL     1      29.776 -23.800 -15.215  0.00  0.00    +0.112 C 
ATOM     15  C   UNL     1      31.105 -24.912 -13.500  0.00  0.00    +0.016 C 
ATOM     16  C   UNL     1      29.863 -24.570 -14.040  0.00  0.00    +0.020 C 
ATOM     17  C   UNL     1      33.604 -20.713 -19.871  0.00  0.00    +0.004 C 
ATOM     18  C   UNL     1      36.296 -21.206 -19.080  0.00  0.00    +0.015 C 
ATOM     19  C   UNL     1      34.672 -20.213 -20.617  0.00  0.00    +0.000 C 
ATOM     20  C   UNL     1      36.004 -20.457 -20.226  0.00  0.00    +0.001 C 
ATOM     21  H   UNL     1      36.078 -22.756 -16.718  0.00  0.00    +0.152 HD
ATOM     22  H   UNL     1      33.850 -25.202 -13.019  0.00  0.00    +0.155 HD
ENDROOT
BRANCH  14  23
ATOM     23  S   UNL     1      28.203 -23.391 -15.860  0.00  0.00    +0.042 S 
ATOM     24  O   UNL     1      28.433 -22.011 -16.705  0.00  0.00    -0.065 OA
ATOM     25  O   UNL     1      27.831 -24.420 -16.818  0.00  0.00    -0.065 OA
ATOM     26  O   UNL     1      27.347 -23.089 -14.724  0.00  0.00    -0.065 OA
ENDBRANCH  14  23
TORSDOF 1
ENDMDL
MODEL 2
REMARK VINA RESULT:     -11.0      2.484      4.774
REMARK  Name = 5288641
REMARK  1 active torsions:
REMARK  status: ('A' for Active; 'I' for Inactive)
REMARK    1  A    between atoms: C_14  and  S_23
REMARK                            x       y       z     vdW  Elec       q    Type
REMARK                         _______ _______ _______ _____ _____    ______ ____
ROOT
ATOM      1  O   UNL     1      30.096 -22.436 -16.845  0.00  0.00    -0.270 OA
ATOM      2  O   UNL     1      35.359 -22.532 -17.033  0.00  0.00    -0.285 OA
ATOM      3  N   UNL     1      32.366 -21.502 -18.517  0.00  0.00    -0.310 N 
ATOM      4  N   UNL     1      30.907 -23.618 -14.967  0.00  0.00    -0.280 N 
ATOM      5  C   UNL     1      32.467 -22.789 -16.422  0.00  0.00    +0.071 C 
ATOM      6  C   UNL     1      33.171 -23.478 -15.345  0.00  0.00    +0.020 C 
ATOM      7  C   UNL     1      32.980 -22.161 -17.481  0.00  0.00    +0.092 C 
ATOM      8  C   UNL     1      32.176 -23.962 -14.490  0.00  0.00    +0.051 C 
ATOM      9  C   UNL     1      30.993 -22.892 -16.159  0.00  0.00    +0.251 C 
ATOM     10  C   UNL     1      34.611 -21.315 -18.967  0.00  0.00    +0.054 C 
ATOM     11  C   UNL     1      33.315 -21.000 -19.398  0.00  0.00    +0.051 C 
ATOM     12  C   UNL     1      34.465 -22.078 -17.714  0.00  0.00    +0.210 C 
ATOM     13  C   UNL     1      34.507 -23.699 -15.070  0.00  0.00    +0.020 C 
ATOM     14  C   UNL     1      34.826 -24.420 -13.914  0.00  0.00    +0.112 C 
ATOM     15  C   UNL     1      32.470 -24.675 -13.344  0.00  0.00    +0.016 C 
ATOM     16  C   UNL     1      33.818 -24.902 -13.060  0.00  0.00    +0.020 C 
ATOM     17  C   UNL     1      35.748 -20.942 -19.652  0.00  0.00    +0.004 C 
ATOM     18  C   UNL     1      33.130 -20.282 -20.560  0.00  0.00    +0.015 C 
ATOM     19  C   UNL     1      35.561 -20.215 -20.828  0.00  0.00    +0.000 C 
ATOM     20  C   UNL     1      34.266 -19.888 -21.278  0.00  0.00    +0.001 C 
ATOM     21  H   UNL     1      31.393 -21.400 -18.621  0.00  0.00    +0.152 HD
ATOM     22  H   UNL     1      30.062 -23.858 -14.521  0.00  0.00    +0.155 HD
ENDROOT
BRANCH  14  23
ATOM     23  S   UNL     1      36.503 -24.726 -13.525  0.00  0.00    +0.042 S 
ATOM     24  O   UNL     1      37.247 -23.277 -13.665  0.00  0.00    -0.065 OA
ATOM     25  O   UNL     1      36.574 -25.108 -12.123  0.00  0.00    -0.065 OA
ATOM     26  O   UNL     1      37.023 -25.604 -14.561  0.00  0.00    -0.065 OA
ENDBRANCH  14  23
TORSDOF 1
ENDMDL
MODEL 3
REMARK VINA RESULT:     -10.3      3.248      7.019
REMARK  Name = 5288641
REMARK  1 active torsions:
REMARK  status: ('A' for Active; 'I' for Inactive)
REMARK    1  A    between atoms: C_14  and  S_23
REMARK                            x       y       z     vdW  Elec       q    Type
REMARK                         _______ _______ _______ _____ _____    ______ ____
ROOT
ATOM      1  O   UNL     1      32.767 -21.450 -19.204  0.00  0.00    -0.270 OA
ATOM      2  O   UNL     1      33.283 -23.856 -14.546  0.00  0.00    -0.285 OA
ATOM      3  N   UNL     1      31.150 -22.785 -17.100  0.00  0.00    -0.310 N 
ATOM      4  N   UNL     1      35.051 -21.466 -18.599  0.00  0.00    -0.280 N 
ATOM      5  C   UNL     1      33.586 -22.440 -17.136  0.00  0.00    +0.071 C 
ATOM      6  C   UNL     1      34.929 -22.556 -16.578  0.00  0.00    +0.020 C 
ATOM      7  C   UNL     1      32.433 -22.869 -16.620  0.00  0.00    +0.092 C 
ATOM      8  C   UNL     1      35.779 -21.948 -17.507  0.00  0.00    +0.051 C 
ATOM      9  C   UNL     1      33.684 -21.726 -18.453  0.00  0.00    +0.251 C 
ATOM     10  C   UNL     1      30.942 -23.882 -15.092  0.00  0.00    +0.054 C 
ATOM     11  C   UNL     1      30.263 -23.378 -16.210  0.00  0.00    +0.051 C 
ATOM     12  C   UNL     1      32.371 -23.581 -15.296  0.00  0.00    +0.210 C 
ATOM     13  C   UNL     1      35.434 -23.107 -15.416  0.00  0.00    +0.020 C 
ATOM     14  C   UNL     1      36.815 -23.035 -15.203  0.00  0.00    +0.112 C 
ATOM     15  C   UNL     1      37.145 -21.867 -17.317  0.00  0.00    +0.016 C 
ATOM     16  C   UNL     1      37.662 -22.422 -16.144  0.00  0.00    +0.020 C 
ATOM     17  C   UNL     1      30.309 -24.522 -14.048  0.00  0.00    +0.004 C 
ATOM     18  C   UNL     1      28.894 -23.511 -16.304  0.00  0.00    +0.015 C 
ATOM     19  C   UNL     1      28.924 -24.657 -14.143  0.00  0.00    +0.000 C 
ATOM     20  C   UNL     1      28.223 -24.157 -15.259  0.00  0.00    +0.001 C 
ATOM     21  H   UNL     1      30.894 -22.366 -17.953  0.00  0.00    +0.152 HD
ATOM     22  H   UNL     1      35.449 -21.001 -19.372  0.00  0.00    +0.155 HD
ENDROOT
BRANCH  14  23
ATOM     23  S   UNL     1      37.499 -23.718 -13.746  0.00  0.00    +0.042 S 
ATOM     24  O   UNL     1      38.963 -24.292 -14.188  0.00  0.00    -0.065 OA
ATOM     25  O   UNL     1      37.733 -22.629 -12.809  0.00  0.00    -0.065 OA
ATOM     26  O   UNL     1      36.662 -24.848 -13.376  0.00  0.00    -0.065 OA
ENDBRANCH  14  23
TORSDOF 1
ENDMDL
MODEL 4
REMARK VINA RESULT:     -10.0      3.600      6.837
REMARK  Name = 5288641
REMARK  1 active torsions:
REMARK  status: ('A' for Active; 'I' for Inactive)
REMARK    1  A    between atoms: C_14  and  S_23
REMARK                            x       y       z     vdW  Elec       q    Type
REMARK                         _______ _______ _______ _____ _____    ______ ____
ROOT
ATOM      1  O   UNL     1      34.403 -21.989 -17.891  0.00  0.00    -0.270 OA
ATOM      2  O   UNL     1      32.975 -24.372 -13.416  0.00  0.00    -0.285 OA
ATOM      3  N   UNL     1      31.988 -22.944 -16.450  0.00  0.00    -0.310 N 
ATOM      4  N   UNL     1      36.339 -22.445 -16.615  0.00  0.00    -0.280 N 
ATOM      5  C   UNL     1      34.333 -23.086 -15.719  0.00  0.00    +0.071 C 
ATOM      6  C   UNL     1      35.388 -23.455 -14.781  0.00  0.00    +0.020 C 
ATOM      7  C   UNL     1      33.017 -23.270 -15.604  0.00  0.00    +0.092 C 
ATOM      8  C   UNL     1      36.585 -23.043 -15.375  0.00  0.00    +0.051 C 
ATOM      9  C   UNL     1      34.971 -22.428 -16.908  0.00  0.00    +0.251 C 
ATOM     10  C   UNL     1      30.960 -23.944 -14.656  0.00  0.00    +0.054 C 
ATOM     11  C   UNL     1      30.772 -23.335 -15.904  0.00  0.00    +0.051 C 
ATOM     12  C   UNL     1      32.411 -23.935 -14.396  0.00  0.00    +0.210 C 
ATOM     13  C   UNL     1      35.391 -24.075 -13.547  0.00  0.00    +0.020 C 
ATOM     14  C   UNL     1      36.624 -24.274 -12.916  0.00  0.00    +0.112 C 
ATOM     15  C   UNL     1      37.812 -23.229 -14.770  0.00  0.00    +0.016 C 
ATOM     16  C   UNL     1      37.823 -23.855 -13.522  0.00  0.00    +0.020 C 
ATOM     17  C   UNL     1      29.923 -24.429 -13.887  0.00  0.00    +0.004 C 
ATOM     18  C   UNL     1      29.501 -23.197 -16.421  0.00  0.00    +0.015 C 
ATOM     19  C   UNL     1      28.637 -24.290 -14.410  0.00  0.00    +0.000 C 
ATOM     20  C   UNL     1      28.428 -23.680 -15.663  0.00  0.00    +0.001 C 
ATOM     21  H   UNL     1      32.095 -22.496 -17.320  0.00  0.00    +0.152 HD
ATOM     22  H   UNL     1      37.038 -22.081 -17.206  0.00  0.00    +0.155 HD
ENDROOT
BRANCH  14  23
ATOM     23  S   UNL     1      36.677 -25.053 -11.352  0.00  0.00    +0.042 S 
ATOM     24  O   UNL     1      37.056 -26.612 -11.663  0.00  0.00    -0.065 OA
ATOM     25  O   UNL     1      37.789 -24.484 -10.606  0.00  0.00    -0.065 OA
ATOM     26  O   UNL     1      35.326 -25.014 -10.815  0.00  0.00    -0.065 OA
ENDBRANCH  14  23
TORSDOF 1
ENDMDL
