MODEL 1
REMARK VINA RESULT:     -12.1      0.000      0.000
REMARK  Name = 23635314
REMARK  9 active torsions:
REMARK  status: ('A' for Active; 'I' for Inactive)
REMARK    1  A    between atoms: C_2  and  C_8
REMARK    2  A    between atoms: C_3  and  C_23
REMARK    3  A    between atoms: C_7  and  O_13
REMARK    4  A    between atoms: O_13  and  C_14
REMARK    5  A    between atoms: C_14  and  C_15
REMARK    6  A    between atoms: C_15  and  N_17
REMARK    7  A    between atoms: C_23  and  C_26
REMARK    8  A    between atoms: N_25  and  C_28
REMARK    9  A    between atoms: C_28  and  C_29
REMARK                            x       y       z     vdW  Elec       q    Type
REMARK                         _______ _______ _______ _____ _____    ______ ____
ROOT
ATOM      1  N   UNL     1      35.396 -16.730 -21.783  0.00  0.00    -0.248 NA
ATOM      2  C   UNL     1      34.817 -19.022 -21.285  0.00  0.00    +0.019 C 
ATOM      3  C   UNL     1      35.049 -16.972 -23.067  0.00  0.00    +0.068 C 
ATOM      4  C   UNL     1      34.470 -19.233 -22.614  0.00  0.00    +0.003 C 
ATOM      5  C   UNL     1      35.270 -17.764 -20.922  0.00  0.00    +0.098 C 
ATOM      6  C   UNL     1      34.586 -18.194 -23.529  0.00  0.00    +0.015 C 
ENDROOT
BRANCH   2   8
ATOM      7  C   UNL     1      34.497 -22.125 -18.432  0.00  0.00    +0.138 C 
ATOM      8  C   UNL     1      34.708 -20.083 -20.309  0.00  0.00    +0.002 C 
ATOM      9  C   UNL     1      35.754 -21.676 -18.824  0.00  0.00    +0.037 C 
ATOM     10  C   UNL     1      33.345 -21.563 -18.971  0.00  0.00    +0.037 C 
ATOM     11  C   UNL     1      35.859 -20.652 -19.765  0.00  0.00    +0.003 C 
ATOM     12  C   UNL     1      33.451 -20.539 -19.912  0.00  0.00    +0.003 C 
BRANCH   7  13
ATOM     13  O   UNL     1      34.394 -23.131 -17.508  0.00  0.00    -0.478 OA
BRANCH  13  14
ATOM     14  C   UNL     1      33.149 -23.255 -16.832  0.00  0.00    +0.183 C 
BRANCH  14  15
ATOM     15  C   UNL     1      33.400 -23.212 -15.334  0.00  0.00    -0.029 C 
BRANCH  15  17
ATOM     16  O   UNL     1      29.821 -24.862 -13.889  0.00  0.00    -0.358 OA
ATOM     17  N   UNL     1      32.151 -23.387 -14.596  0.00  0.00    +0.393 N 
ATOM     18  C   UNL     1      31.013 -23.515 -15.517  0.00  0.00    -0.044 C 
ATOM     19  C   UNL     1      32.223 -24.564 -13.719  0.00  0.00    -0.044 C 
ATOM     20  C   UNL     1      29.724 -23.707 -14.724  0.00  0.00    +0.119 C 
ATOM     21  C   UNL     1      30.905 -24.732 -12.968  0.00  0.00    +0.119 C 
ATOM     22  H   UNL     1      32.011 -22.558 -14.019  0.00  0.00    -0.079 HD
ENDBRANCH  15  17
ENDBRANCH  14  15
ENDBRANCH  13  14
ENDBRANCH   7  13
ENDBRANCH   2   8
BRANCH   3  23
ATOM     23  C   UNL     1      35.186 -15.833 -24.023  0.00  0.00    +0.131 C 
BRANCH  23  26
ATOM     24  O   UNL     1      33.177 -14.878 -24.980  0.00  0.00    -0.275 OA
ATOM     25  N   UNL     1      33.909 -14.112 -22.914  0.00  0.00    -0.300 N 
ATOM     26  C   UNL     1      33.979 -14.907 -24.050  0.00  0.00    +0.229 C 
ATOM     27  H   UNL     1      34.605 -14.211 -22.224  0.00  0.00    +0.150 HD
BRANCH  25  28
ATOM     28  C   UNL     1      32.857 -13.146 -22.704  0.00  0.00    +0.116 C 
BRANCH  28  29
ATOM     29  C   UNL     1      33.282 -11.759 -23.092  0.00  0.00    -0.003 C 
ATOM     30  C   UNL     1      34.233 -11.586 -24.091  0.00  0.00    -0.003 C 
ATOM     31  C   UNL     1      32.721 -10.662 -22.448  0.00  0.00    -0.003 C 
ATOM     32  C   UNL     1      34.628 -10.297 -24.451  0.00  0.00    -0.000 C 
ATOM     33  C   UNL     1      33.116  -9.374 -22.808  0.00  0.00    -0.000 C 
ATOM     34  C   UNL     1      34.071  -9.192 -23.810  0.00  0.00    -0.000 C 
ENDBRANCH  28  29
ENDBRANCH  25  28
ENDBRANCH  23  26
ENDBRANCH   3  23
TORSDOF 9
ENDMDL
MODEL 2
REMARK VINA RESULT:     -11.9      1.666      2.644
REMARK  Name = 23635314
REMARK  9 active torsions:
REMARK  status: ('A' for Active; 'I' for Inactive)
REMARK    1  A    between atoms: C_2  and  C_8
REMARK    2  A    between atoms: C_3  and  C_23
REMARK    3  A    between atoms: C_7  and  O_13
REMARK    4  A    between atoms: O_13  and  C_14
REMARK    5  A    between atoms: C_14  and  C_15
REMARK    6  A    between atoms: C_15  and  N_17
REMARK    7  A    between atoms: C_23  and  C_26
REMARK    8  A    between atoms: N_25  and  C_28
REMARK    9  A    between atoms: C_28  and  C_29
REMARK                            x       y       z     vdW  Elec       q    Type
REMARK                         _______ _______ _______ _____ _____    ______ ____
ROOT
ATOM      1  N   UNL     1      35.362 -16.676 -21.706  0.00  0.00    -0.248 NA
ATOM      2  C   UNL     1      34.758 -18.975 -21.274  0.00  0.00    +0.019 C 
ATOM      3  C   UNL     1      35.033 -16.883 -23.000  0.00  0.00    +0.068 C 
ATOM      4  C   UNL     1      34.429 -19.150 -22.613  0.00  0.00    +0.003 C 
ATOM      5  C   UNL     1      35.215 -17.731 -20.873  0.00  0.00    +0.098 C 
ATOM      6  C   UNL     1      34.567 -18.089 -23.499  0.00  0.00    +0.015 C 
ENDROOT
BRANCH   2   8
ATOM      7  C   UNL     1      34.371 -22.146 -18.506  0.00  0.00    +0.138 C 
ATOM      8  C   UNL     1      34.626 -20.060 -20.327  0.00  0.00    +0.002 C 
ATOM      9  C   UNL     1      35.637 -21.707 -18.878  0.00  0.00    +0.037 C 
ATOM     10  C   UNL     1      33.231 -21.552 -19.036  0.00  0.00    +0.037 C 
ATOM     11  C   UNL     1      35.765 -20.661 -19.790  0.00  0.00    +0.003 C 
ATOM     12  C   UNL     1      33.359 -20.506 -19.949  0.00  0.00    +0.003 C 
BRANCH   7  13
ATOM     13  O   UNL     1      34.246 -23.174 -17.609  0.00  0.00    -0.478 OA
BRANCH  13  14
ATOM     14  C   UNL     1      33.138 -23.117 -16.719  0.00  0.00    +0.183 C 
BRANCH  14  15
ATOM     15  C   UNL     1      33.643 -23.305 -15.298  0.00  0.00    -0.029 C 
BRANCH  15  17
ATOM     16  O   UNL     1      37.530 -24.188 -13.983  0.00  0.00    -0.358 OA
ATOM     17  N   UNL     1      35.059 -23.667 -15.296  0.00  0.00    +0.393 N 
ATOM     18  C   UNL     1      35.875 -22.581 -14.734  0.00  0.00    -0.044 C 
ATOM     19  C   UNL     1      35.281 -24.907 -14.539  0.00  0.00    -0.044 C 
ATOM     20  C   UNL     1      37.346 -22.987 -14.733  0.00  0.00    +0.119 C 
ATOM     21  C   UNL     1      36.765 -25.257 -14.542  0.00  0.00    +0.119 C 
ATOM     22  H   UNL     1      35.343 -23.820 -16.264  0.00  0.00    -0.079 HD
ENDBRANCH  15  17
ENDBRANCH  14  15
ENDBRANCH  13  14
ENDBRANCH   7  13
ENDBRANCH   2   8
BRANCH   3  23
ATOM     23  C   UNL     1      35.193 -15.722 -23.925  0.00  0.00    +0.131 C 
BRANCH  23  26
ATOM     24  O   UNL     1      33.200 -14.772 -24.920  0.00  0.00    -0.275 OA
ATOM     25  N   UNL     1      33.878 -14.020 -22.831  0.00  0.00    -0.300 N 
ATOM     26  C   UNL     1      33.980 -14.804 -23.972  0.00  0.00    +0.229 C 
ATOM     27  H   UNL     1      34.557 -14.121 -22.126  0.00  0.00    +0.150 HD
BRANCH  25  28
ATOM     28  C   UNL     1      32.813 -13.063 -22.638  0.00  0.00    +0.116 C 
BRANCH  28  29
ATOM     29  C   UNL     1      33.231 -11.673 -23.023  0.00  0.00    -0.003 C 
ATOM     30  C   UNL     1      32.630 -10.580 -22.410  0.00  0.00    -0.003 C 
ATOM     31  C   UNL     1      34.214 -11.494 -23.990  0.00  0.00    -0.003 C 
ATOM     32  C   UNL     1      33.018  -9.289 -22.768  0.00  0.00    -0.000 C 
ATOM     33  C   UNL     1      34.601 -10.203 -24.348  0.00  0.00    -0.000 C 
ATOM     34  C   UNL     1      34.003  -9.100 -23.737  0.00  0.00    -0.000 C 
ENDBRANCH  28  29
ENDBRANCH  25  28
ENDBRANCH  23  26
ENDBRANCH   3  23
TORSDOF 9
ENDMDL
MODEL 3
REMARK VINA RESULT:     -11.5      1.141      1.964
REMARK  Name = 23635314
REMARK  9 active torsions:
REMARK  status: ('A' for Active; 'I' for Inactive)
REMARK    1  A    between atoms: C_2  and  C_8
REMARK    2  A    between atoms: C_3  and  C_23
REMARK    3  A    between atoms: C_7  and  O_13
REMARK    4  A    between atoms: O_13  and  C_14
REMARK    5  A    between atoms: C_14  and  C_15
REMARK    6  A    between atoms: C_15  and  N_17
REMARK    7  A    between atoms: C_23  and  C_26
REMARK    8  A    between atoms: N_25  and  C_28
REMARK    9  A    between atoms: C_28  and  C_29
REMARK                            x       y       z     vdW  Elec       q    Type
REMARK                         _______ _______ _______ _____ _____    ______ ____
ROOT
ATOM      1  N   UNL     1      34.514 -18.413 -23.521  0.00  0.00    -0.248 NA
ATOM      2  C   UNL     1      34.845 -19.133 -21.239  0.00  0.00    +0.019 C 
ATOM      3  C   UNL     1      35.096 -17.240 -23.184  0.00  0.00    +0.068 C 
ATOM      4  C   UNL     1      35.437 -17.915 -20.930  0.00  0.00    +0.003 C 
ATOM      5  C   UNL     1      34.404 -19.333 -22.537  0.00  0.00    +0.098 C 
ATOM      6  C   UNL     1      35.568 -16.944 -21.916  0.00  0.00    +0.015 C 
ENDROOT
BRANCH   2   8
ATOM      7  C   UNL     1      34.401 -22.146 -18.307  0.00  0.00    +0.138 C 
ATOM      8  C   UNL     1      34.693 -20.164 -20.236  0.00  0.00    +0.002 C 
ATOM      9  C   UNL     1      35.675 -21.744 -18.694  0.00  0.00    +0.037 C 
ATOM     10  C   UNL     1      33.272 -21.567 -18.876  0.00  0.00    +0.037 C 
ATOM     11  C   UNL     1      35.821 -20.750 -19.661  0.00  0.00    +0.003 C 
ATOM     12  C   UNL     1      33.419 -20.573 -19.843  0.00  0.00    +0.003 C 
BRANCH   7  13
ATOM     13  O   UNL     1      34.257 -23.123 -17.357  0.00  0.00    -0.478 OA
BRANCH  13  14
ATOM     14  C   UNL     1      32.984 -23.227 -16.733  0.00  0.00    +0.183 C 
BRANCH  14  15
ATOM     15  C   UNL     1      33.177 -23.242 -15.226  0.00  0.00    -0.029 C 
BRANCH  15  17
ATOM     16  O   UNL     1      29.600 -24.984 -13.891  0.00  0.00    -0.358 OA
ATOM     17  N   UNL     1      31.901 -23.441 -14.543  0.00  0.00    +0.393 N 
ATOM     18  C   UNL     1      30.817 -23.651 -15.512  0.00  0.00    -0.044 C 
ATOM     19  C   UNL     1      31.976 -24.579 -13.617  0.00  0.00    -0.044 C 
ATOM     20  C   UNL     1      29.498 -23.867 -14.776  0.00  0.00    +0.119 C 
ATOM     21  C   UNL     1      30.630 -24.774 -12.925  0.00  0.00    +0.119 C 
ATOM     22  H   UNL     1      31.699 -22.597 -14.007  0.00  0.00    -0.079 HD
ENDBRANCH  15  17
ENDBRANCH  14  15
ENDBRANCH  13  14
ENDBRANCH   7  13
ENDBRANCH   2   8
BRANCH   3  23
ATOM     23  C   UNL     1      35.220 -16.220 -24.267  0.00  0.00    +0.131 C 
BRANCH  23  26
ATOM     24  O   UNL     1      32.945 -15.508 -24.699  0.00  0.00    -0.275 OA
ATOM     25  N   UNL     1      34.459 -13.969 -23.845  0.00  0.00    -0.300 N 
ATOM     26  C   UNL     1      34.072 -15.221 -24.303  0.00  0.00    +0.229 C 
ATOM     27  H   UNL     1      35.389 -13.841 -23.548  0.00  0.00    +0.150 HD
BRANCH  25  28
ATOM     28  C   UNL     1      33.551 -12.848 -23.785  0.00  0.00    +0.116 C 
BRANCH  28  29
ATOM     29  C   UNL     1      32.983 -12.659 -22.408  0.00  0.00    -0.003 C 
ATOM     30  C   UNL     1      32.212 -11.536 -22.130  0.00  0.00    -0.003 C 
ATOM     31  C   UNL     1      33.233 -13.609 -21.425  0.00  0.00    -0.003 C 
ATOM     32  C   UNL     1      31.685 -11.360 -20.851  0.00  0.00    -0.000 C 
ATOM     33  C   UNL     1      32.706 -13.433 -20.145  0.00  0.00    -0.000 C 
ATOM     34  C   UNL     1      31.932 -12.308 -19.858  0.00  0.00    -0.000 C 
ENDBRANCH  28  29
ENDBRANCH  25  28
ENDBRANCH  23  26
ENDBRANCH   3  23
TORSDOF 9
ENDMDL
MODEL 4
REMARK VINA RESULT:     -11.5      2.312     11.785
REMARK  Name = 23635314
REMARK  9 active torsions:
REMARK  status: ('A' for Active; 'I' for Inactive)
REMARK    1  A    between atoms: C_2  and  C_8
REMARK    2  A    between atoms: C_3  and  C_23
REMARK    3  A    between atoms: C_7  and  O_13
REMARK    4  A    between atoms: O_13  and  C_14
REMARK    5  A    between atoms: C_14  and  C_15
REMARK    6  A    between atoms: C_15  and  N_17
REMARK    7  A    between atoms: C_23  and  C_26
REMARK    8  A    between atoms: N_25  and  C_28
REMARK    9  A    between atoms: C_28  and  C_29
REMARK                            x       y       z     vdW  Elec       q    Type
REMARK                         _______ _______ _______ _____ _____    ______ ____
ROOT
ATOM      1  N   UNL     1      34.012 -23.615 -16.054  0.00  0.00    -0.248 NA
ATOM      2  C   UNL     1      35.005 -22.060 -17.613  0.00  0.00    +0.019 C 
ATOM      3  C   UNL     1      35.168 -23.579 -15.356  0.00  0.00    +0.068 C 
ATOM      4  C   UNL     1      36.178 -22.048 -16.869  0.00  0.00    +0.003 C 
ATOM      5  C   UNL     1      33.959 -22.851 -17.169  0.00  0.00    +0.098 C 
ATOM      6  C   UNL     1      36.270 -22.821 -15.717  0.00  0.00    +0.015 C 
ENDROOT
BRANCH   2   8
ATOM      7  C   UNL     1      34.636 -19.744 -21.131  0.00  0.00    +0.138 C 
ATOM      8  C   UNL     1      34.878 -21.267 -18.817  0.00  0.00    +0.002 C 
ATOM      9  C   UNL     1      33.496 -20.248 -20.515  0.00  0.00    +0.037 C 
ATOM     10  C   UNL     1      35.898 -19.996 -20.601  0.00  0.00    +0.037 C 
ATOM     11  C   UNL     1      33.617 -21.011 -19.355  0.00  0.00    +0.003 C 
ATOM     12  C   UNL     1      36.018 -20.760 -19.440  0.00  0.00    +0.003 C 
BRANCH   7  13
ATOM     13  O   UNL     1      34.517 -18.995 -22.271  0.00  0.00    -0.478 OA
BRANCH  13  14
ATOM     14  C   UNL     1      35.294 -17.806 -22.341  0.00  0.00    +0.183 C 
BRANCH  14  15
ATOM     15  C   UNL     1      35.015 -17.116 -23.666  0.00  0.00    -0.029 C 
BRANCH  15  17
ATOM     16  O   UNL     1      33.307 -13.410 -22.686  0.00  0.00    -0.358 OA
ATOM     17  N   UNL     1      34.835 -15.679 -23.473  0.00  0.00    +0.393 N 
ATOM     18  C   UNL     1      33.725 -15.177 -24.295  0.00  0.00    -0.044 C 
ATOM     19  C   UNL     1      34.593 -15.369 -22.057  0.00  0.00    -0.044 C 
ATOM     20  C   UNL     1      33.550 -13.678 -24.068  0.00  0.00    +0.119 C 
ATOM     21  C   UNL     1      34.396 -13.866 -21.882  0.00  0.00    +0.119 C 
ATOM     22  H   UNL     1      35.694 -15.214 -23.766  0.00  0.00    -0.079 HD
ENDBRANCH  15  17
ENDBRANCH  14  15
ENDBRANCH  13  14
ENDBRANCH   7  13
ENDBRANCH   2   8
BRANCH   3  23
ATOM     23  C   UNL     1      35.232 -24.421 -14.124  0.00  0.00    +0.131 C 
BRANCH  23  26
ATOM     24  O   UNL     1      33.992 -23.646 -12.193  0.00  0.00    -0.275 OA
ATOM     25  N   UNL     1      32.924 -25.010 -13.738  0.00  0.00    -0.300 N 
ATOM     26  C   UNL     1      34.004 -24.299 -13.234  0.00  0.00    +0.229 C 
ATOM     27  H   UNL     1      33.036 -25.502 -14.584  0.00  0.00    +0.150 HD
BRANCH  25  28
ATOM     28  C   UNL     1      31.643 -25.055 -13.073  0.00  0.00    +0.116 C 
BRANCH  28  29
ATOM     29  C   UNL     1      30.566 -24.392 -13.884  0.00  0.00    -0.003 C 
ATOM     30  C   UNL     1      30.509 -23.005 -13.946  0.00  0.00    -0.003 C 
ATOM     31  C   UNL     1      29.638 -25.173 -14.563  0.00  0.00    -0.003 C 
ATOM     32  C   UNL     1      29.509 -22.389 -14.699  0.00  0.00    -0.000 C 
ATOM     33  C   UNL     1      28.638 -24.556 -15.316  0.00  0.00    -0.000 C 
ATOM     34  C   UNL     1      28.573 -23.164 -15.383  0.00  0.00    -0.000 C 
ENDBRANCH  28  29
ENDBRANCH  25  28
ENDBRANCH  23  26
ENDBRANCH   3  23
TORSDOF 9
ENDMDL
MODEL 5
REMARK VINA RESULT:     -11.2      3.379      7.028
REMARK  Name = 23635314
REMARK  9 active torsions:
REMARK  status: ('A' for Active; 'I' for Inactive)
REMARK    1  A    between atoms: C_2  and  C_8
REMARK    2  A    between atoms: C_3  and  C_23
REMARK    3  A    between atoms: C_7  and  O_13
REMARK    4  A    between atoms: O_13  and  C_14
REMARK    5  A    between atoms: C_14  and  C_15
REMARK    6  A    between atoms: C_15  and  N_17
REMARK    7  A    between atoms: C_23  and  C_26
REMARK    8  A    between atoms: N_25  and  C_28
REMARK    9  A    between atoms: C_28  and  C_29
REMARK                            x       y       z     vdW  Elec       q    Type
REMARK                         _______ _______ _______ _____ _____    ______ ____
ROOT
ATOM      1  N   UNL     1      33.220 -10.567 -23.187  0.00  0.00    -0.248 NA
ATOM      2  C   UNL     1      33.302 -12.885 -22.515  0.00  0.00    +0.019 C 
ATOM      3  C   UNL     1      32.274 -10.376 -22.242  0.00  0.00    +0.068 C 
ATOM      4  C   UNL     1      32.327 -12.651 -21.554  0.00  0.00    +0.003 C 
ATOM      5  C   UNL     1      33.713 -11.821 -23.300  0.00  0.00    +0.098 C 
ATOM      6  C   UNL     1      31.797 -11.374 -21.408  0.00  0.00    +0.015 C 
ENDROOT
BRANCH   2   8
ATOM      7  C   UNL     1      34.971 -16.735 -23.028  0.00  0.00    +0.138 C 
ATOM      8  C   UNL     1      33.873 -14.203 -22.691  0.00  0.00    +0.002 C 
ATOM      9  C   UNL     1      34.350 -16.105 -24.101  0.00  0.00    +0.037 C 
ATOM     10  C   UNL     1      35.048 -16.111 -21.787  0.00  0.00    +0.037 C 
ATOM     11  C   UNL     1      33.800 -14.835 -23.932  0.00  0.00    +0.003 C 
ATOM     12  C   UNL     1      34.497 -14.841 -21.619  0.00  0.00    +0.003 C 
BRANCH   7  13
ATOM     13  O   UNL     1      35.511 -17.984 -23.194  0.00  0.00    -0.478 OA
BRANCH  13  14
ATOM     14  C   UNL     1      35.010 -19.015 -22.354  0.00  0.00    +0.183 C 
BRANCH  14  15
ATOM     15  C   UNL     1      35.888 -19.109 -21.117  0.00  0.00    -0.029 C 
BRANCH  15  17
ATOM     16  O   UNL     1      33.886 -22.148 -19.027  0.00  0.00    -0.358 OA
ATOM     17  N   UNL     1      35.208 -19.847 -20.055  0.00  0.00    +0.393 N 
ATOM     18  C   UNL     1      33.834 -20.185 -20.451  0.00  0.00    -0.044 C 
ATOM     19  C   UNL     1      35.948 -21.069 -19.711  0.00  0.00    -0.044 C 
ATOM     20  C   UNL     1      33.149 -20.963 -19.332  0.00  0.00    +0.119 C 
ATOM     21  C   UNL     1      35.213 -21.827 -18.609  0.00  0.00    +0.119 C 
ATOM     22  H   UNL     1      35.171 -19.245 -19.232  0.00  0.00    -0.079 HD
ENDBRANCH  15  17
ENDBRANCH  14  15
ENDBRANCH  13  14
ENDBRANCH   7  13
ENDBRANCH   2   8
BRANCH   3  23
ATOM     23  C   UNL     1      31.726  -8.993 -22.114  0.00  0.00    +0.131 C 
BRANCH  23  26
ATOM     24  O   UNL     1      32.989  -7.364 -20.842  0.00  0.00    -0.275 OA
ATOM     25  N   UNL     1      33.499  -7.675 -23.086  0.00  0.00    -0.300 N 
ATOM     26  C   UNL     1      32.794  -7.926 -21.916  0.00  0.00    +0.229 C 
ATOM     27  H   UNL     1      33.264  -8.182 -23.897  0.00  0.00    +0.150 HD
BRANCH  25  28
ATOM     28  C   UNL     1      34.562  -6.701 -23.159  0.00  0.00    +0.116 C 
BRANCH  28  29
ATOM     29  C   UNL     1      34.197  -5.536 -24.033  0.00  0.00    -0.003 C 
ATOM     30  C   UNL     1      33.076  -4.774 -23.729  0.00  0.00    -0.003 C 
ATOM     31  C   UNL     1      34.985  -5.231 -25.137  0.00  0.00    -0.003 C 
ATOM     32  C   UNL     1      32.736  -3.691 -24.541  0.00  0.00    -0.000 C 
ATOM     33  C   UNL     1      34.646  -4.149 -25.949  0.00  0.00    -0.000 C 
ATOM     34  C   UNL     1      33.521  -3.379 -25.651  0.00  0.00    -0.000 C 
ENDBRANCH  28  29
ENDBRANCH  25  28
ENDBRANCH  23  26
ENDBRANCH   3  23
TORSDOF 9
ENDMDL
MODEL 6
REMARK VINA RESULT:     -11.1      3.615     12.694
REMARK  Name = 23635314
REMARK  9 active torsions:
REMARK  status: ('A' for Active; 'I' for Inactive)
REMARK    1  A    between atoms: C_2  and  C_8
REMARK    2  A    between atoms: C_3  and  C_23
REMARK    3  A    between atoms: C_7  and  O_13
REMARK    4  A    between atoms: O_13  and  C_14
REMARK    5  A    between atoms: C_14  and  C_15
REMARK    6  A    between atoms: C_15  and  N_17
REMARK    7  A    between atoms: C_23  and  C_26
REMARK    8  A    between atoms: N_25  and  C_28
REMARK    9  A    between atoms: C_28  and  C_29
REMARK                            x       y       z     vdW  Elec       q    Type
REMARK                         _______ _______ _______ _____ _____    ______ ____
ROOT
ATOM      1  N   UNL     1      35.098 -15.894 -21.666  0.00  0.00    -0.248 NA
ATOM      2  C   UNL     1      33.967 -14.042 -22.726  0.00  0.00    +0.019 C 
ATOM      3  C   UNL     1      35.065 -16.533 -22.856  0.00  0.00    +0.068 C 
ATOM      4  C   UNL     1      33.950 -14.730 -23.933  0.00  0.00    +0.003 C 
ATOM      5  C   UNL     1      34.547 -14.660 -21.631  0.00  0.00    +0.098 C 
ATOM      6  C   UNL     1      34.507 -16.001 -24.007  0.00  0.00    +0.015 C 
ENDROOT
BRANCH   2   8
ATOM      7  C   UNL     1      32.295 -10.172 -22.402  0.00  0.00    +0.138 C 
ATOM      8  C   UNL     1      33.395 -12.718 -22.615  0.00  0.00    +0.002 C 
ATOM      9  C   UNL     1      33.283 -10.419 -23.349  0.00  0.00    +0.037 C 
ATOM     10  C   UNL     1      31.853 -11.187 -21.559  0.00  0.00    +0.037 C 
ATOM     11  C   UNL     1      33.834 -11.695 -23.456  0.00  0.00    +0.003 C 
ATOM     12  C   UNL     1      32.405 -12.463 -21.667  0.00  0.00    +0.003 C 
BRANCH   7  13
ATOM     13  O   UNL     1      31.754  -8.918 -22.296  0.00  0.00    -0.478 OA
BRANCH  13  14
ATOM     14  C   UNL     1      31.960  -8.233 -21.068  0.00  0.00    +0.183 C 
BRANCH  14  15
ATOM     15  C   UNL     1      33.150  -7.300 -21.222  0.00  0.00    -0.029 C 
BRANCH  15  17
ATOM     16  O   UNL     1      30.985  -4.180 -23.009  0.00  0.00    -0.358 OA
ATOM     17  N   UNL     1      32.711  -5.963 -21.614  0.00  0.00    +0.393 N 
ATOM     18  C   UNL     1      32.799  -5.791 -23.071  0.00  0.00    -0.044 C 
ATOM     19  C   UNL     1      31.337  -5.710 -21.159  0.00  0.00    -0.044 C 
ATOM     20  C   UNL     1      32.325  -4.392 -23.456  0.00  0.00    +0.119 C 
ATOM     21  C   UNL     1      30.897  -4.314 -21.590  0.00  0.00    +0.119 C 
ATOM     22  H   UNL     1      33.332  -5.287 -21.168  0.00  0.00    -0.079 HD
ENDBRANCH  15  17
ENDBRANCH  14  15
ENDBRANCH  13  14
ENDBRANCH   7  13
ENDBRANCH   2   8
BRANCH   3  23
ATOM     23  C   UNL     1      35.671 -17.897 -22.900  0.00  0.00    +0.131 C 
BRANCH  23  26
ATOM     24  O   UNL     1      34.199 -19.713 -23.531  0.00  0.00    -0.275 OA
ATOM     25  N   UNL     1      34.386 -19.149 -21.287  0.00  0.00    -0.300 N 
ATOM     26  C   UNL     1      34.678 -19.019 -22.638  0.00  0.00    +0.229 C 
ATOM     27  H   UNL     1      34.825 -18.540 -20.648  0.00  0.00    +0.150 HD
BRANCH  25  28
ATOM     28  C   UNL     1      33.466 -20.140 -20.781  0.00  0.00    +0.116 C 
BRANCH  28  29
ATOM     29  C   UNL     1      34.052 -20.918 -19.638  0.00  0.00    -0.003 C 
ATOM     30  C   UNL     1      33.217 -21.656 -18.808  0.00  0.00    -0.003 C 
ATOM     31  C   UNL     1      35.426 -20.893 -19.422  0.00  0.00    -0.003 C 
ATOM     32  C   UNL     1      33.761 -22.379 -17.747  0.00  0.00    -0.000 C 
ATOM     33  C   UNL     1      35.970 -21.616 -18.360  0.00  0.00    -0.000 C 
ATOM     34  C   UNL     1      35.137 -22.358 -17.522  0.00  0.00    -0.000 C 
ENDBRANCH  28  29
ENDBRANCH  25  28
ENDBRANCH  23  26
ENDBRANCH   3  23
TORSDOF 9
ENDMDL
MODEL 7
REMARK VINA RESULT:     -10.9      2.881     12.276
REMARK  Name = 23635314
REMARK  9 active torsions:
REMARK  status: ('A' for Active; 'I' for Inactive)
REMARK    1  A    between atoms: C_2  and  C_8
REMARK    2  A    between atoms: C_3  and  C_23
REMARK    3  A    between atoms: C_7  and  O_13
REMARK    4  A    between atoms: O_13  and  C_14
REMARK    5  A    between atoms: C_14  and  C_15
REMARK    6  A    between atoms: C_15  and  N_17
REMARK    7  A    between atoms: C_23  and  C_26
REMARK    8  A    between atoms: N_25  and  C_28
REMARK    9  A    between atoms: C_28  and  C_29
REMARK                            x       y       z     vdW  Elec       q    Type
REMARK                         _______ _______ _______ _____ _____    ______ ____
ROOT
ATOM      1  N   UNL     1      35.112 -22.279 -18.552  0.00  0.00    -0.248 NA
ATOM      2  C   UNL     1      34.285 -20.536 -20.006  0.00  0.00    +0.019 C 
ATOM      3  C   UNL     1      33.845 -22.447 -18.112  0.00  0.00    +0.068 C 
ATOM      4  C   UNL     1      32.995 -20.737 -19.530  0.00  0.00    +0.003 C 
ATOM      5  C   UNL     1      35.300 -21.325 -19.491  0.00  0.00    +0.098 C 
ATOM      6  C   UNL     1      32.763 -21.709 -18.564  0.00  0.00    +0.015 C 
ENDROOT
BRANCH   2   8
ATOM      7  C   UNL     1      35.088 -17.604 -22.943  0.00  0.00    +0.138 C 
ATOM      8  C   UNL     1      34.560 -19.533 -21.011  0.00  0.00    +0.002 C 
ATOM      9  C   UNL     1      35.594 -17.448 -21.658  0.00  0.00    +0.037 C 
ATOM     10  C   UNL     1      34.319 -18.715 -23.272  0.00  0.00    +0.037 C 
ATOM     11  C   UNL     1      35.330 -18.415 -20.689  0.00  0.00    +0.003 C 
ATOM     12  C   UNL     1      34.055 -19.682 -22.302  0.00  0.00    +0.003 C 
BRANCH   7  13
ATOM     13  O   UNL     1      35.347 -16.653 -23.895  0.00  0.00    -0.478 OA
BRANCH  13  14
ATOM     14  C   UNL     1      35.000 -15.312 -23.573  0.00  0.00    +0.183 C 
BRANCH  14  15
ATOM     15  C   UNL     1      33.542 -15.084 -23.934  0.00  0.00    -0.029 C 
BRANCH  15  17
ATOM     16  O   UNL     1      34.112 -11.020 -24.817  0.00  0.00    -0.358 OA
ATOM     17  N   UNL     1      33.283 -13.665 -24.165  0.00  0.00    +0.393 N 
ATOM     18  C   UNL     1      34.028 -12.835 -23.208  0.00  0.00    -0.044 C 
ATOM     19  C   UNL     1      33.636 -13.286 -25.541  0.00  0.00    -0.044 C 
ATOM     20  C   UNL     1      33.751 -11.359 -23.477  0.00  0.00    +0.119 C 
ATOM     21  C   UNL     1      33.368 -11.800 -25.755  0.00  0.00    +0.119 C 
ATOM     22  H   UNL     1      32.285 -13.503 -24.028  0.00  0.00    -0.079 HD
ENDBRANCH  15  17
ENDBRANCH  14  15
ENDBRANCH  13  14
ENDBRANCH   7  13
ENDBRANCH   2   8
BRANCH   3  23
ATOM     23  C   UNL     1      33.631 -23.499 -17.075  0.00  0.00    +0.131 C 
BRANCH  23  26
ATOM     24  O   UNL     1      33.156 -22.786 -14.809  0.00  0.00    -0.275 OA
ATOM     25  N   UNL     1      35.369 -22.984 -15.482  0.00  0.00    -0.300 N 
ATOM     26  C   UNL     1      33.995 -23.053 -15.666  0.00  0.00    +0.229 C 
ATOM     27  H   UNL     1      35.959 -23.220 -16.235  0.00  0.00    +0.150 HD
BRANCH  25  28
ATOM     28  C   UNL     1      35.967 -22.583 -14.231  0.00  0.00    +0.116 C 
BRANCH  28  29
ATOM     29  C   UNL     1      36.936 -23.609 -13.717  0.00  0.00    -0.003 C 
ATOM     30  C   UNL     1      37.332 -24.654 -14.542  0.00  0.00    -0.003 C 
ATOM     31  C   UNL     1      37.426 -23.503 -12.420  0.00  0.00    -0.003 C 
ATOM     32  C   UNL     1      38.232 -25.607 -14.065  0.00  0.00    -0.000 C 
ATOM     33  C   UNL     1      38.325 -24.456 -11.943  0.00  0.00    -0.000 C 
ATOM     34  C   UNL     1      38.728 -25.509 -12.765  0.00  0.00    -0.000 C 
ENDBRANCH  28  29
ENDBRANCH  25  28
ENDBRANCH  23  26
ENDBRANCH   3  23
TORSDOF 9
ENDMDL
MODEL 8
REMARK VINA RESULT:     -10.6      2.754      3.811
REMARK  Name = 23635314
REMARK  9 active torsions:
REMARK  status: ('A' for Active; 'I' for Inactive)
REMARK    1  A    between atoms: C_2  and  C_8
REMARK    2  A    between atoms: C_3  and  C_23
REMARK    3  A    between atoms: C_7  and  O_13
REMARK    4  A    between atoms: O_13  and  C_14
REMARK    5  A    between atoms: C_14  and  C_15
REMARK    6  A    between atoms: C_15  and  N_17
REMARK    7  A    between atoms: C_23  and  C_26
REMARK    8  A    between atoms: N_25  and  C_28
REMARK    9  A    between atoms: C_28  and  C_29
REMARK                            x       y       z     vdW  Elec       q    Type
REMARK                         _______ _______ _______ _____ _____    ______ ____
ROOT
ATOM      1  N   UNL     1      33.825 -18.989 -23.179  0.00  0.00    -0.248 NA
ATOM      2  C   UNL     1      34.774 -19.524 -21.023  0.00  0.00    +0.019 C 
ATOM      3  C   UNL     1      34.551 -17.850 -23.163  0.00  0.00    +0.068 C 
ATOM      4  C   UNL     1      35.506 -18.343 -21.041  0.00  0.00    +0.003 C 
ATOM      5  C   UNL     1      33.955 -19.800 -22.105  0.00  0.00    +0.098 C 
ATOM      6  C   UNL     1      35.397 -17.484 -22.129  0.00  0.00    +0.015 C 
ENDROOT
BRANCH   2   8
ATOM      7  C   UNL     1      35.039 -22.198 -17.760  0.00  0.00    +0.138 C 
ATOM      8  C   UNL     1      34.865 -20.438 -19.906  0.00  0.00    +0.002 C 
ATOM      9  C   UNL     1      36.195 -21.618 -18.270  0.00  0.00    +0.037 C 
ATOM     10  C   UNL     1      33.796 -21.907 -18.313  0.00  0.00    +0.037 C 
ATOM     11  C   UNL     1      36.107 -20.735 -19.346  0.00  0.00    +0.003 C 
ATOM     12  C   UNL     1      33.710 -21.025 -19.389  0.00  0.00    +0.003 C 
BRANCH   7  13
ATOM     13  O   UNL     1      35.124 -23.065 -16.702  0.00  0.00    -0.478 OA
BRANCH  13  14
ATOM     14  C   UNL     1      36.045 -22.731 -15.672  0.00  0.00    +0.183 C 
BRANCH  14  15
ATOM     15  C   UNL     1      35.463 -23.163 -14.337  0.00  0.00    -0.029 C 
BRANCH  15  17
ATOM     16  O   UNL     1      39.040 -24.358 -12.496  0.00  0.00    -0.358 OA
ATOM     17  N   UNL     1      36.439 -23.936 -13.573  0.00  0.00    +0.393 N 
ATOM     18  C   UNL     1      37.567 -24.339 -14.423  0.00  0.00    -0.044 C 
ATOM     19  C   UNL     1      36.928 -23.166 -12.420  0.00  0.00    -0.044 C 
ATOM     20  C   UNL     1      38.577 -25.134 -13.602  0.00  0.00    +0.119 C 
ATOM     21  C   UNL     1      37.953 -23.988 -11.645  0.00  0.00    +0.119 C 
ATOM     22  H   UNL     1      35.973 -24.776 -13.230  0.00  0.00    -0.079 HD
ENDBRANCH  15  17
ENDBRANCH  14  15
ENDBRANCH  13  14
ENDBRANCH   7  13
ENDBRANCH   2   8
BRANCH   3  23
ATOM     23  C   UNL     1      34.410 -16.950 -24.346  0.00  0.00    +0.131 C 
BRANCH  23  26
ATOM     24  O   UNL     1      35.737 -15.042 -23.664  0.00  0.00    -0.275 OA
ATOM     25  N   UNL     1      33.502 -14.719 -24.203  0.00  0.00    -0.300 N 
ATOM     26  C   UNL     1      34.650 -15.481 -24.031  0.00  0.00    +0.229 C 
ATOM     27  H   UNL     1      32.678 -15.168 -24.501  0.00  0.00    +0.150 HD
BRANCH  25  28
ATOM     28  C   UNL     1      33.469 -13.295 -23.963  0.00  0.00    +0.116 C 
BRANCH  28  29
ATOM     29  C   UNL     1      32.960 -12.969 -22.589  0.00  0.00    -0.003 C 
ATOM     30  C   UNL     1      32.208 -11.817 -22.390  0.00  0.00    -0.003 C 
ATOM     31  C   UNL     1      33.246 -13.822 -21.530  0.00  0.00    -0.003 C 
ATOM     32  C   UNL     1      31.735 -11.514 -21.114  0.00  0.00    -0.000 C 
ATOM     33  C   UNL     1      32.772 -13.519 -20.253  0.00  0.00    -0.000 C 
ATOM     34  C   UNL     1      32.017 -12.364 -20.045  0.00  0.00    -0.000 C 
ENDBRANCH  28  29
ENDBRANCH  25  28
ENDBRANCH  23  26
ENDBRANCH   3  23
TORSDOF 9
ENDMDL
MODEL 9
REMARK VINA RESULT:     -10.6      3.859     12.619
REMARK  Name = 23635314
REMARK  9 active torsions:
REMARK  status: ('A' for Active; 'I' for Inactive)
REMARK    1  A    between atoms: C_2  and  C_8
REMARK    2  A    between atoms: C_3  and  C_23
REMARK    3  A    between atoms: C_7  and  O_13
REMARK    4  A    between atoms: O_13  and  C_14
REMARK    5  A    between atoms: C_14  and  C_15
REMARK    6  A    between atoms: C_15  and  N_17
REMARK    7  A    between atoms: C_23  and  C_26
REMARK    8  A    between atoms: N_25  and  C_28
REMARK    9  A    between atoms: C_28  and  C_29
REMARK                            x       y       z     vdW  Elec       q    Type
REMARK                         _______ _______ _______ _____ _____    ______ ____
ROOT
ATOM      1  N   UNL     1      35.694 -22.996 -15.857  0.00  0.00    -0.248 NA
ATOM      2  C   UNL     1      34.501 -22.084 -17.749  0.00  0.00    +0.019 C 
ATOM      3  C   UNL     1      34.536 -23.576 -15.468  0.00  0.00    +0.068 C 
ATOM      4  C   UNL     1      33.330 -22.695 -17.318  0.00  0.00    +0.003 C 
ATOM      5  C   UNL     1      35.646 -22.263 -16.991  0.00  0.00    +0.098 C 
ATOM      6  C   UNL     1      33.340 -23.457 -16.156  0.00  0.00    +0.015 C 
ENDROOT
BRANCH   2   8
ATOM      7  C   UNL     1      34.565 -19.746 -21.270  0.00  0.00    +0.138 C 
ATOM      8  C   UNL     1      34.523 -21.284 -18.954  0.00  0.00    +0.002 C 
ATOM      9  C   UNL     1      35.762 -20.105 -20.660  0.00  0.00    +0.037 C 
ATOM     10  C   UNL     1      33.347 -20.149 -20.733  0.00  0.00    +0.037 C 
ATOM     11  C   UNL     1      35.741 -20.876 -19.499  0.00  0.00    +0.003 C 
ATOM     12  C   UNL     1      33.327 -20.920 -19.572  0.00  0.00    +0.003 C 
BRANCH   7  13
ATOM     13  O   UNL     1      34.586 -18.988 -22.412  0.00  0.00    -0.478 OA
BRANCH  13  14
ATOM     14  C   UNL     1      35.354 -17.792 -22.372  0.00  0.00    +0.183 C 
BRANCH  14  15
ATOM     15  C   UNL     1      34.998 -16.942 -23.581  0.00  0.00    -0.029 C 
BRANCH  15  17
ATOM     16  O   UNL     1      33.366 -13.337 -22.183  0.00  0.00    -0.358 OA
ATOM     17  N   UNL     1      34.855 -15.538 -23.202  0.00  0.00    +0.393 N 
ATOM     18  C   UNL     1      33.805 -14.887 -23.997  0.00  0.00    -0.044 C 
ATOM     19  C   UNL     1      34.554 -15.412 -21.769  0.00  0.00    -0.044 C 
ATOM     20  C   UNL     1      33.668 -13.427 -23.576  0.00  0.00    +0.119 C 
ATOM     21  C   UNL     1      34.398 -13.940 -21.401  0.00  0.00    +0.119 C 
ATOM     22  H   UNL     1      35.743 -15.073 -23.391  0.00  0.00    -0.079 HD
ENDBRANCH  15  17
ENDBRANCH  14  15
ENDBRANCH  13  14
ENDBRANCH   7  13
ENDBRANCH   2   8
BRANCH   3  23
ATOM     23  C   UNL     1      34.583 -24.387 -14.215  0.00  0.00    +0.131 C 
BRANCH  23  26
ATOM     24  O   UNL     1      35.784 -26.176 -15.321  0.00  0.00    -0.275 OA
ATOM     25  N   UNL     1      36.097 -25.856 -13.043  0.00  0.00    -0.300 N 
ATOM     26  C   UNL     1      35.544 -25.565 -14.283  0.00  0.00    +0.229 C 
ATOM     27  H   UNL     1      35.839 -25.304 -12.270  0.00  0.00    +0.150 HD
BRANCH  25  28
ATOM     28  C   UNL     1      37.037 -26.934 -12.844  0.00  0.00    +0.116 C 
BRANCH  28  29
ATOM     29  C   UNL     1      38.400 -26.596 -13.376  0.00  0.00    -0.003 C 
ATOM     30  C   UNL     1      39.003 -27.436 -14.304  0.00  0.00    -0.003 C 
ATOM     31  C   UNL     1      39.044 -25.446 -12.934  0.00  0.00    -0.003 C 
ATOM     32  C   UNL     1      40.269 -27.122 -14.798  0.00  0.00    -0.000 C 
ATOM     33  C   UNL     1      40.310 -25.132 -13.428  0.00  0.00    -0.000 C 
ATOM     34  C   UNL     1      40.923 -25.971 -14.360  0.00  0.00    -0.000 C 
ENDBRANCH  28  29
ENDBRANCH  25  28
ENDBRANCH  23  26
ENDBRANCH   3  23
TORSDOF 9
ENDMDL
