MODEL 1
REMARK VINA RESULT:     -11.6      0.000      0.000
REMARK  Name = 44123754
REMARK  11 active torsions:
REMARK  status: ('A' for Active; 'I' for Inactive)
REMARK    1  A    between atoms: C_3  and  C_22
REMARK    2  A    between atoms: C_4  and  C_7
REMARK    3  A    between atoms: N_6  and  C_15
REMARK    4  A    between atoms: C_8  and  N_12
REMARK    5  A    between atoms: C_15  and  O_16
REMARK    6  A    between atoms: O_16  and  P_17
REMARK    7  A    between atoms: P_17  and  O_20
REMARK    8  A    between atoms: C_22  and  C_23
REMARK    9  A    between atoms: C_26  and  C_29
REMARK   10  A    between atoms: C_29  and  O_30
REMARK   11  A    between atoms: O_30  and  C_32
REMARK                            x       y       z     vdW  Elec       q    Type
REMARK                         _______ _______ _______ _____ _____    ______ ____
ROOT
ATOM      1  O   UNL     1      33.192 -14.001 -24.369  0.00  0.00    -0.354 OA
ATOM      2  N   UNL     1      33.799 -15.120 -24.927  0.00  0.00    -0.081 NA
ATOM      3  C   UNL     1      34.461 -15.694 -23.919  0.00  0.00    +0.105 C 
ATOM      4  C   UNL     1      33.505 -13.934 -23.049  0.00  0.00    +0.175 C 
ATOM      5  C   UNL     1      34.311 -14.989 -22.712  0.00  0.00    +0.058 C 
ENDROOT
BRANCH   4   7
ATOM      6  N   UNL     1      32.466 -10.510 -22.121  0.00  0.00    -0.266 N 
ATOM      7  C   UNL     1      32.943 -12.815 -22.329  0.00  0.00    +0.048 C 
ATOM      8  C   UNL     1      33.001 -11.519 -22.821  0.00  0.00    +0.156 C 
ATOM      9  C   UNL     1      32.322 -13.039 -21.104  0.00  0.00    +0.003 C 
ATOM     10  C   UNL     1      31.863 -10.698 -20.939  0.00  0.00    +0.064 C 
ATOM     11  C   UNL     1      31.775 -11.972 -20.398  0.00  0.00    +0.016 C 
BRANCH   8  12
ATOM     12  N   UNL     1      33.622 -11.249 -24.060  0.00  0.00    -0.303 NA
ATOM     13  H   UNL     1      34.341 -10.578 -24.115  0.00  0.00    +0.121 HD
ATOM     14  H   UNL     1      33.336 -11.732 -24.869  0.00  0.00    +0.121 HD
ENDBRANCH   8  12
BRANCH   6  15
ATOM     15  C   UNL     1      32.528  -9.142 -22.642  0.00  0.00    +0.251 C 
BRANCH  15  16
ATOM     16  O   UNL     1      31.985  -8.261 -21.668  0.00  0.00    -0.250 OA
BRANCH  16  17
ATOM     17  P   UNL     1      32.901  -7.031 -21.104  0.00  0.00    +0.504 P 
ATOM     18  O   UNL     1      32.068  -5.772 -21.012  0.00  0.00    -0.225 OA
ATOM     19  O   UNL     1      34.215  -7.028 -21.855  0.00  0.00    -0.116 OA
BRANCH  17  20
ATOM     20  O   UNL     1      33.184  -7.580 -19.592  0.00  0.00    -0.301 OA
ATOM     21  H   UNL     1      32.339  -7.762 -19.151  0.00  0.00    +0.222 HD
ENDBRANCH  17  20
ENDBRANCH  16  17
ENDBRANCH  15  16
ENDBRANCH   6  15
ENDBRANCH   4   7
BRANCH   3  22
ATOM     22  C   UNL     1      35.231 -16.926 -24.154  0.00  0.00    +0.075 C 
BRANCH  22  23
ATOM     23  C   UNL     1      35.214 -17.915 -22.995  0.00  0.00    -0.016 C 
ATOM     24  C   UNL     1      36.210 -17.863 -22.020  0.00  0.00    -0.004 C 
ATOM     25  C   UNL     1      34.202 -18.872 -22.909  0.00  0.00    -0.004 C 
ATOM     26  C   UNL     1      35.183 -19.725 -20.872  0.00  0.00    +0.021 C 
ATOM     27  C   UNL     1      36.195 -18.768 -20.959  0.00  0.00    -0.001 C 
ATOM     28  C   UNL     1      34.187 -19.777 -21.848  0.00  0.00    -0.001 C 
BRANCH  26  29
ATOM     29  C   UNL     1      35.165 -20.691 -19.736  0.00  0.00    +0.234 C 
BRANCH  29  30
ATOM     30  O   UNL     1      33.844 -21.185 -19.556  0.00  0.00    -0.455 OA
BRANCH  30  32
ATOM     31  N   UNL     1      32.296 -22.070 -18.072  0.00  0.00    -0.210 NA
ATOM     32  C   UNL     1      33.593 -21.868 -18.395  0.00  0.00    +0.225 C 
ATOM     33  C   UNL     1      34.661 -22.308 -17.631  0.00  0.00    +0.058 C 
ATOM     34  C   UNL     1      34.380 -23.001 -16.458  0.00  0.00    +0.006 C 
ATOM     35  C   UNL     1      32.062 -22.747 -16.925  0.00  0.00    +0.102 C 
ATOM     36  C   UNL     1      33.058 -23.229 -16.092  0.00  0.00    +0.021 C 
ENDBRANCH  30  32
ENDBRANCH  29  30
ENDBRANCH  26  29
ENDBRANCH  22  23
ENDBRANCH   3  22
TORSDOF 11
ENDMDL
MODEL 2
REMARK VINA RESULT:     -11.5      4.895     11.586
REMARK  Name = 44123754
REMARK  11 active torsions:
REMARK  status: ('A' for Active; 'I' for Inactive)
REMARK    1  A    between atoms: C_3  and  C_22
REMARK    2  A    between atoms: C_4  and  C_7
REMARK    3  A    between atoms: N_6  and  C_15
REMARK    4  A    between atoms: C_8  and  N_12
REMARK    5  A    between atoms: C_15  and  O_16
REMARK    6  A    between atoms: O_16  and  P_17
REMARK    7  A    between atoms: P_17  and  O_20
REMARK    8  A    between atoms: C_22  and  C_23
REMARK    9  A    between atoms: C_26  and  C_29
REMARK   10  A    between atoms: C_29  and  O_30
REMARK   11  A    between atoms: O_30  and  C_32
REMARK                            x       y       z     vdW  Elec       q    Type
REMARK                         _______ _______ _______ _____ _____    ______ ____
ROOT
ATOM      1  O   UNL     1      33.759 -23.145 -18.059  0.00  0.00    -0.354 OA
ATOM      2  N   UNL     1      34.593 -22.609 -19.033  0.00  0.00    -0.081 NA
ATOM      3  C   UNL     1      35.545 -21.961 -18.355  0.00  0.00    +0.105 C 
ATOM      4  C   UNL     1      34.229 -22.807 -16.831  0.00  0.00    +0.175 C 
ATOM      5  C   UNL     1      35.364 -22.053 -16.963  0.00  0.00    +0.058 C 
ENDROOT
BRANCH   4   7
ATOM      6  N   UNL     1      31.413 -23.578 -14.563  0.00  0.00    -0.266 N 
ATOM      7  C   UNL     1      33.460 -23.298 -15.711  0.00  0.00    +0.048 C 
ATOM      8  C   UNL     1      32.089 -23.106 -15.620  0.00  0.00    +0.156 C 
ATOM      9  C   UNL     1      34.109 -23.984 -14.690  0.00  0.00    +0.003 C 
ATOM     10  C   UNL     1      32.014 -24.242 -13.567  0.00  0.00    +0.064 C 
ATOM     11  C   UNL     1      33.383 -24.463 -13.604  0.00  0.00    +0.016 C 
BRANCH   8  12
ATOM     12  N   UNL     1      31.391 -22.414 -16.634  0.00  0.00    -0.303 NA
ATOM     13  H   UNL     1      30.968 -21.547 -16.437  0.00  0.00    +0.121 HD
ATOM     14  H   UNL     1      31.327 -22.800 -17.537  0.00  0.00    +0.121 HD
ENDBRANCH   8  12
BRANCH   6  15
ATOM     15  C   UNL     1      29.966 -23.376 -14.468  0.00  0.00    +0.251 C 
BRANCH  15  16
ATOM     16  O   UNL     1      29.338 -24.071 -15.536  0.00  0.00    -0.250 OA
BRANCH  16  17
ATOM     17  P   UNL     1      28.067 -23.385 -16.299  0.00  0.00    +0.504 P 
ATOM     18  O   UNL     1      27.433 -24.387 -17.239  0.00  0.00    -0.225 OA
ATOM     19  O   UNL     1      28.489 -22.022 -16.803  0.00  0.00    -0.116 OA
BRANCH  17  20
ATOM     20  O   UNL     1      27.072 -23.169 -15.022  0.00  0.00    -0.301 OA
ATOM     21  H   UNL     1      27.593 -22.902 -14.248  0.00  0.00    +0.222 HD
ENDBRANCH  17  20
ENDBRANCH  16  17
ENDBRANCH  15  16
ENDBRANCH   6  15
ENDBRANCH   4   7
BRANCH   3  22
ATOM     22  C   UNL     1      36.617 -21.261 -19.080  0.00  0.00    +0.075 C 
BRANCH  22  23
ATOM     23  C   UNL     1      36.130 -20.254 -20.114  0.00  0.00    -0.016 C 
ATOM     24  C   UNL     1      36.993 -19.262 -20.580  0.00  0.00    -0.004 C 
ATOM     25  C   UNL     1      34.822 -20.324 -20.595  0.00  0.00    -0.004 C 
ATOM     26  C   UNL     1      35.240 -18.409 -22.008  0.00  0.00    +0.021 C 
ATOM     27  C   UNL     1      36.548 -18.339 -21.527  0.00  0.00    -0.001 C 
ATOM     28  C   UNL     1      34.377 -19.401 -21.541  0.00  0.00    -0.001 C 
BRANCH  26  29
ATOM     29  C   UNL     1      34.765 -17.424 -23.022  0.00  0.00    +0.234 C 
BRANCH  29  30
ATOM     30  O   UNL     1      35.397 -16.170 -22.795  0.00  0.00    -0.455 OA
BRANCH  30  32
ATOM     31  N   UNL     1      33.987 -14.460 -23.480  0.00  0.00    -0.210 NA
ATOM     32  C   UNL     1      34.583 -15.120 -22.462  0.00  0.00    +0.225 C 
ATOM     33  C   UNL     1      34.414 -14.799 -21.125  0.00  0.00    +0.058 C 
ATOM     34  C   UNL     1      33.581 -13.729 -20.812  0.00  0.00    +0.006 C 
ATOM     35  C   UNL     1      33.184 -13.427 -23.138  0.00  0.00    +0.102 C 
ATOM     36  C   UNL     1      32.951 -13.026 -21.833  0.00  0.00    +0.021 C 
ENDBRANCH  30  32
ENDBRANCH  29  30
ENDBRANCH  26  29
ENDBRANCH  22  23
ENDBRANCH   3  22
TORSDOF 11
ENDMDL
MODEL 3
REMARK VINA RESULT:     -11.3      1.381      2.092
REMARK  Name = 44123754
REMARK  11 active torsions:
REMARK  status: ('A' for Active; 'I' for Inactive)
REMARK    1  A    between atoms: C_3  and  C_22
REMARK    2  A    between atoms: C_4  and  C_7
REMARK    3  A    between atoms: N_6  and  C_15
REMARK    4  A    between atoms: C_8  and  N_12
REMARK    5  A    between atoms: C_15  and  O_16
REMARK    6  A    between atoms: O_16  and  P_17
REMARK    7  A    between atoms: P_17  and  O_20
REMARK    8  A    between atoms: C_22  and  C_23
REMARK    9  A    between atoms: C_26  and  C_29
REMARK   10  A    between atoms: C_29  and  O_30
REMARK   11  A    between atoms: O_30  and  C_32
REMARK                            x       y       z     vdW  Elec       q    Type
REMARK                         _______ _______ _______ _____ _____    ______ ____
ROOT
ATOM      1  O   UNL     1      34.556 -14.265 -21.791  0.00  0.00    -0.354 OA
ATOM      2  N   UNL     1      34.927 -15.604 -21.829  0.00  0.00    -0.081 NA
ATOM      3  C   UNL     1      34.676 -15.998 -23.080  0.00  0.00    +0.105 C 
ATOM      4  C   UNL     1      34.094 -13.894 -23.013  0.00  0.00    +0.175 C 
ATOM      5  C   UNL     1      34.149 -14.960 -23.870  0.00  0.00    +0.058 C 
ENDROOT
BRANCH   4   7
ATOM      6  N   UNL     1      32.469 -10.644 -22.334  0.00  0.00    -0.266 N 
ATOM      7  C   UNL     1      33.668 -12.518 -23.128  0.00  0.00    +0.048 C 
ATOM      8  C   UNL     1      32.839 -11.924 -22.188  0.00  0.00    +0.156 C 
ATOM      9  C   UNL     1      34.100 -11.763 -24.214  0.00  0.00    +0.003 C 
ATOM     10  C   UNL     1      32.870  -9.895 -23.369  0.00  0.00    +0.064 C 
ATOM     11  C   UNL     1      33.699 -10.436 -24.340  0.00  0.00    +0.016 C 
BRANCH   8  12
ATOM     12  N   UNL     1      32.378 -12.655 -21.072  0.00  0.00    -0.303 NA
ATOM     13  H   UNL     1      32.098 -12.182 -20.255  0.00  0.00    +0.121 HD
ATOM     14  H   UNL     1      32.338 -13.638 -21.111  0.00  0.00    +0.121 HD
ENDBRANCH   8  12
BRANCH   6  15
ATOM     15  C   UNL     1      31.593 -10.017 -21.340  0.00  0.00    +0.251 C 
BRANCH  15  16
ATOM     16  O   UNL     1      31.630  -8.609 -21.527  0.00  0.00    -0.250 OA
BRANCH  16  17
ATOM     17  P   UNL     1      32.370  -7.673 -20.411  0.00  0.00    +0.504 P 
ATOM     18  O   UNL     1      32.672  -8.492 -19.175  0.00  0.00    -0.225 OA
ATOM     19  O   UNL     1      31.612  -6.369 -20.300  0.00  0.00    -0.116 OA
BRANCH  17  20
ATOM     20  O   UNL     1      33.773  -7.379 -21.195  0.00  0.00    -0.301 OA
ATOM     21  H   UNL     1      33.679  -7.626 -22.129  0.00  0.00    +0.222 HD
ENDBRANCH  17  20
ENDBRANCH  16  17
ENDBRANCH  15  16
ENDBRANCH   6  15
ENDBRANCH   4   7
BRANCH   3  22
ATOM     22  C   UNL     1      34.954 -17.385 -23.484  0.00  0.00    +0.075 C 
BRANCH  22  23
ATOM     23  C   UNL     1      35.233 -18.338 -22.329  0.00  0.00    -0.016 C 
ATOM     24  C   UNL     1      36.481 -18.332 -21.707  0.00  0.00    -0.004 C 
ATOM     25  C   UNL     1      34.241 -19.217 -21.893  0.00  0.00    -0.004 C 
ATOM     26  C   UNL     1      35.745 -20.082 -20.213  0.00  0.00    +0.021 C 
ATOM     27  C   UNL     1      36.738 -19.204 -20.649  0.00  0.00    -0.001 C 
ATOM     28  C   UNL     1      34.497 -20.089 -20.836  0.00  0.00    -0.001 C 
BRANCH  26  29
ATOM     29  C   UNL     1      36.019 -21.013 -19.081  0.00  0.00    +0.234 C 
BRANCH  29  30
ATOM     30  O   UNL     1      35.125 -22.117 -19.150  0.00  0.00    -0.455 OA
BRANCH  30  32
ATOM     31  N   UNL     1      35.235 -22.731 -16.915  0.00  0.00    -0.210 NA
ATOM     32  C   UNL     1      34.470 -22.455 -17.995  0.00  0.00    +0.225 C 
ATOM     33  C   UNL     1      33.085 -22.492 -17.995  0.00  0.00    +0.058 C 
ATOM     34  C   UNL     1      32.443 -22.836 -16.810  0.00  0.00    +0.006 C 
ATOM     35  C   UNL     1      34.576 -23.061 -15.781  0.00  0.00    +0.102 C 
ATOM     36  C   UNL     1      33.196 -23.126 -15.677  0.00  0.00    +0.021 C 
ENDBRANCH  30  32
ENDBRANCH  29  30
ENDBRANCH  26  29
ENDBRANCH  22  23
ENDBRANCH   3  22
TORSDOF 11
ENDMDL
MODEL 4
REMARK VINA RESULT:     -11.3      2.426      3.972
REMARK  Name = 44123754
REMARK  11 active torsions:
REMARK  status: ('A' for Active; 'I' for Inactive)
REMARK    1  A    between atoms: C_3  and  C_22
REMARK    2  A    between atoms: C_4  and  C_7
REMARK    3  A    between atoms: N_6  and  C_15
REMARK    4  A    between atoms: C_8  and  N_12
REMARK    5  A    between atoms: C_15  and  O_16
REMARK    6  A    between atoms: O_16  and  P_17
REMARK    7  A    between atoms: P_17  and  O_20
REMARK    8  A    between atoms: C_22  and  C_23
REMARK    9  A    between atoms: C_26  and  C_29
REMARK   10  A    between atoms: C_29  and  O_30
REMARK   11  A    between atoms: O_30  and  C_32
REMARK                            x       y       z     vdW  Elec       q    Type
REMARK                         _______ _______ _______ _____ _____    ______ ____
ROOT
ATOM      1  O   UNL     1      34.964 -16.213 -20.902  0.00  0.00    -0.354 OA
ATOM      2  N   UNL     1      35.502 -17.330 -20.274  0.00  0.00    -0.081 NA
ATOM      3  C   UNL     1      35.816 -18.167 -21.267  0.00  0.00    +0.105 C 
ATOM      4  C   UNL     1      34.969 -16.408 -22.246  0.00  0.00    +0.175 C 
ATOM      5  C   UNL     1      35.501 -17.638 -22.531  0.00  0.00    +0.058 C 
ENDROOT
BRANCH   4   7
ATOM      6  N   UNL     1      33.681 -13.096 -23.264  0.00  0.00    -0.266 N 
ATOM      7  C   UNL     1      34.435 -15.324 -23.037  0.00  0.00    +0.048 C 
ATOM      8  C   UNL     1      34.175 -14.075 -22.493  0.00  0.00    +0.156 C 
ATOM      9  C   UNL     1      34.173 -15.534 -24.387  0.00  0.00    +0.003 C 
ATOM     10  C   UNL     1      33.419 -13.272 -24.566  0.00  0.00    +0.064 C 
ATOM     11  C   UNL     1      33.659 -14.500 -25.164  0.00  0.00    +0.016 C 
BRANCH   8  12
ATOM     12  N   UNL     1      34.427 -13.820 -21.127  0.00  0.00    -0.303 NA
ATOM     13  H   UNL     1      34.479 -12.892 -20.801  0.00  0.00    +0.121 HD
ATOM     14  H   UNL     1      34.552 -14.570 -20.502  0.00  0.00    +0.121 HD
ENDBRANCH   8  12
BRANCH   6  15
ATOM     15  C   UNL     1      33.407 -11.777 -22.688  0.00  0.00    +0.251 C 
BRANCH  15  16
ATOM     16  O   UNL     1      32.440 -11.924 -21.657  0.00  0.00    -0.250 OA
BRANCH  16  17
ATOM     17  P   UNL     1      31.592 -10.617 -21.166  0.00  0.00    +0.504 P 
ATOM     18  O   UNL     1      31.850  -9.457 -22.103  0.00  0.00    -0.225 OA
ATOM     19  O   UNL     1      31.782 -10.455 -19.674  0.00  0.00    -0.116 OA
BRANCH  17  20
ATOM     20  O   UNL     1      30.076 -11.167 -21.427  0.00  0.00    -0.301 OA
ATOM     21  H   UNL     1      30.113 -12.095 -21.709  0.00  0.00    +0.222 HD
ENDBRANCH  17  20
ENDBRANCH  16  17
ENDBRANCH  15  16
ENDBRANCH   6  15
ENDBRANCH   4   7
BRANCH   3  22
ATOM     22  C   UNL     1      36.419 -19.474 -20.962  0.00  0.00    +0.075 C 
BRANCH  22  23
ATOM     23  C   UNL     1      35.586 -20.359 -20.044  0.00  0.00    -0.016 C 
ATOM     24  C   UNL     1      34.198 -20.390 -20.178  0.00  0.00    -0.004 C 
ATOM     25  C   UNL     1      36.211 -21.139 -19.071  0.00  0.00    -0.004 C 
ATOM     26  C   UNL     1      34.059 -21.980 -18.364  0.00  0.00    +0.021 C 
ATOM     27  C   UNL     1      33.434 -21.200 -19.337  0.00  0.00    -0.001 C 
ATOM     28  C   UNL     1      35.447 -21.949 -18.230  0.00  0.00    -0.001 C 
BRANCH  26  29
ATOM     29  C   UNL     1      33.243 -22.848 -17.467  0.00  0.00    +0.234 C 
BRANCH  29  30
ATOM     30  O   UNL     1      31.884 -22.431 -17.515  0.00  0.00    -0.455 OA
BRANCH  30  32
ATOM     31  N   UNL     1      29.772 -22.506 -16.556  0.00  0.00    -0.210 NA
ATOM     32  C   UNL     1      31.089 -22.794 -16.459  0.00  0.00    +0.225 C 
ATOM     33  C   UNL     1      31.666 -23.429 -15.371  0.00  0.00    +0.058 C 
ATOM     34  C   UNL     1      30.839 -23.790 -14.314  0.00  0.00    +0.006 C 
ATOM     35  C   UNL     1      28.998 -22.872 -15.509  0.00  0.00    +0.102 C 
ATOM     36  C   UNL     1      29.478 -23.510 -14.377  0.00  0.00    +0.021 C 
ENDBRANCH  30  32
ENDBRANCH  29  30
ENDBRANCH  26  29
ENDBRANCH  22  23
ENDBRANCH   3  22
TORSDOF 11
ENDMDL
MODEL 5
REMARK VINA RESULT:     -11.2      3.803     11.310
REMARK  Name = 44123754
REMARK  11 active torsions:
REMARK  status: ('A' for Active; 'I' for Inactive)
REMARK    1  A    between atoms: C_3  and  C_22
REMARK    2  A    between atoms: C_4  and  C_7
REMARK    3  A    between atoms: N_6  and  C_15
REMARK    4  A    between atoms: C_8  and  N_12
REMARK    5  A    between atoms: C_15  and  O_16
REMARK    6  A    between atoms: O_16  and  P_17
REMARK    7  A    between atoms: P_17  and  O_20
REMARK    8  A    between atoms: C_22  and  C_23
REMARK    9  A    between atoms: C_26  and  C_29
REMARK   10  A    between atoms: C_29  and  O_30
REMARK   11  A    between atoms: O_30  and  C_32
REMARK                            x       y       z     vdW  Elec       q    Type
REMARK                         _______ _______ _______ _____ _____    ______ ____
ROOT
ATOM      1  O   UNL     1      34.100 -19.728 -22.162  0.00  0.00    -0.354 OA
ATOM      2  N   UNL     1      34.207 -18.723 -23.116  0.00  0.00    -0.081 NA
ATOM      3  C   UNL     1      35.032 -17.821 -22.578  0.00  0.00    +0.105 C 
ATOM      4  C   UNL     1      34.860 -19.404 -21.084  0.00  0.00    +0.175 C 
ATOM      5  C   UNL     1      35.474 -18.199 -21.298  0.00  0.00    +0.058 C 
ENDROOT
BRANCH   4   7
ATOM      6  N   UNL     1      33.706 -21.781 -18.498  0.00  0.00    -0.266 N 
ATOM      7  C   UNL     1      34.850 -20.361 -20.001  0.00  0.00    +0.048 C 
ATOM      8  C   UNL     1      33.670 -20.895 -19.503  0.00  0.00    +0.156 C 
ATOM      9  C   UNL     1      36.057 -20.761 -19.439  0.00  0.00    +0.003 C 
ATOM     10  C   UNL     1      34.855 -22.183 -17.938  0.00  0.00    +0.064 C 
ATOM     11  C   UNL     1      36.065 -21.682 -18.395  0.00  0.00    +0.016 C 
BRANCH   8  12
ATOM     12  N   UNL     1      32.424 -20.515 -20.046  0.00  0.00    -0.303 NA
ATOM     13  H   UNL     1      32.339 -20.347 -21.013  0.00  0.00    +0.121 HD
ATOM     14  H   UNL     1      31.640 -20.418 -19.458  0.00  0.00    +0.121 HD
ENDBRANCH   8  12
BRANCH   6  15
ATOM     15  C   UNL     1      32.461 -22.345 -17.973  0.00  0.00    +0.251 C 
BRANCH  15  16
ATOM     16  O   UNL     1      32.685 -22.776 -16.638  0.00  0.00    -0.250 OA
BRANCH  16  17
ATOM     17  P   UNL     1      31.403 -23.082 -15.671  0.00  0.00    +0.504 P 
ATOM     18  O   UNL     1      31.548 -22.320 -14.372  0.00  0.00    -0.225 OA
ATOM     19  O   UNL     1      31.156 -24.575 -15.661  0.00  0.00    -0.116 OA
BRANCH  17  20
ATOM     20  O   UNL     1      30.225 -22.380 -16.558  0.00  0.00    -0.301 OA
ATOM     21  H   UNL     1      29.669 -21.833 -15.981  0.00  0.00    +0.222 HD
ENDBRANCH  17  20
ENDBRANCH  16  17
ENDBRANCH  15  16
ENDBRANCH   6  15
ENDBRANCH   4   7
BRANCH   3  22
ATOM     22  C   UNL     1      35.376 -16.602 -23.327  0.00  0.00    +0.075 C 
BRANCH  22  23
ATOM     23  C   UNL     1      34.607 -15.358 -22.901  0.00  0.00    -0.016 C 
ATOM     24  C   UNL     1      34.630 -14.947 -21.568  0.00  0.00    -0.004 C 
ATOM     25  C   UNL     1      33.880 -14.629 -23.843  0.00  0.00    -0.004 C 
ATOM     26  C   UNL     1      33.199 -13.080 -22.120  0.00  0.00    +0.021 C 
ATOM     27  C   UNL     1      33.926 -13.808 -21.177  0.00  0.00    -0.001 C 
ATOM     28  C   UNL     1      33.176 -13.491 -23.452  0.00  0.00    -0.001 C 
BRANCH  26  29
ATOM     29  C   UNL     1      32.448 -11.861 -21.702  0.00  0.00    +0.234 C 
BRANCH  29  30
ATOM     30  O   UNL     1      32.277 -11.004 -22.824  0.00  0.00    -0.455 OA
BRANCH  30  32
ATOM     31  N   UNL     1      32.552  -8.839 -22.037  0.00  0.00    -0.210 NA
ATOM     32  C   UNL     1      33.000  -9.840 -22.828  0.00  0.00    +0.225 C 
ATOM     33  C   UNL     1      34.130  -9.753 -23.624  0.00  0.00    +0.058 C 
ATOM     34  C   UNL     1      34.847  -8.562 -23.609  0.00  0.00    +0.006 C 
ATOM     35  C   UNL     1      33.276  -7.696 -22.047  0.00  0.00    +0.102 C 
ATOM     36  C   UNL     1      34.419  -7.509 -22.808  0.00  0.00    +0.021 C 
ENDBRANCH  30  32
ENDBRANCH  29  30
ENDBRANCH  26  29
ENDBRANCH  22  23
ENDBRANCH   3  22
TORSDOF 11
ENDMDL
MODEL 6
REMARK VINA RESULT:     -11.0      4.515     11.982
REMARK  Name = 44123754
REMARK  11 active torsions:
REMARK  status: ('A' for Active; 'I' for Inactive)
REMARK    1  A    between atoms: C_3  and  C_22
REMARK    2  A    between atoms: C_4  and  C_7
REMARK    3  A    between atoms: N_6  and  C_15
REMARK    4  A    between atoms: C_8  and  N_12
REMARK    5  A    between atoms: C_15  and  O_16
REMARK    6  A    between atoms: O_16  and  P_17
REMARK    7  A    between atoms: P_17  and  O_20
REMARK    8  A    between atoms: C_22  and  C_23
REMARK    9  A    between atoms: C_26  and  C_29
REMARK   10  A    between atoms: C_29  and  O_30
REMARK   11  A    between atoms: O_30  and  C_32
REMARK                            x       y       z     vdW  Elec       q    Type
REMARK                         _______ _______ _______ _____ _____    ______ ____
ROOT
ATOM      1  O   UNL     1      36.233 -19.591 -19.856  0.00  0.00    -0.354 OA
ATOM      2  N   UNL     1      36.586 -18.800 -20.943  0.00  0.00    -0.081 NA
ATOM      3  C   UNL     1      35.618 -18.998 -21.843  0.00  0.00    +0.105 C 
ATOM      4  C   UNL     1      35.072 -20.238 -20.130  0.00  0.00    +0.175 C 
ATOM      5  C   UNL     1      34.638 -19.895 -21.383  0.00  0.00    +0.058 C 
ENDROOT
BRANCH   4   7
ATOM      6  N   UNL     1      34.898 -22.386 -17.127  0.00  0.00    -0.266 N 
ATOM      7  C   UNL     1      34.576 -21.104 -19.085  0.00  0.00    +0.048 C 
ATOM      8  C   UNL     1      35.399 -21.586 -18.078  0.00  0.00    +0.156 C 
ATOM      9  C   UNL     1      33.234 -21.467 -19.085  0.00  0.00    +0.003 C 
ATOM     10  C   UNL     1      33.610 -22.751 -17.103  0.00  0.00    +0.064 C 
ATOM     11  C   UNL     1      32.740 -22.301 -18.085  0.00  0.00    +0.016 C 
BRANCH   8  12
ATOM     12  N   UNL     1      36.768 -21.240 -18.041  0.00  0.00    -0.303 NA
ATOM     13  H   UNL     1      37.435 -21.903 -17.750  0.00  0.00    +0.121 HD
ATOM     14  H   UNL     1      37.054 -20.336 -18.306  0.00  0.00    +0.121 HD
ENDBRANCH   8  12
BRANCH   6  15
ATOM     15  C   UNL     1      35.768 -22.894 -16.063  0.00  0.00    +0.251 C 
BRANCH  15  16
ATOM     16  O   UNL     1      35.194 -24.082 -15.536  0.00  0.00    -0.250 OA
BRANCH  16  17
ATOM     17  P   UNL     1      36.121 -25.090 -14.644  0.00  0.00    +0.504 P 
ATOM     18  O   UNL     1      36.040 -26.493 -15.206  0.00  0.00    -0.225 OA
ATOM     19  O   UNL     1      35.838 -24.832 -13.181  0.00  0.00    -0.116 OA
BRANCH  17  20
ATOM     20  O   UNL     1      37.595 -24.476 -14.991  0.00  0.00    -0.301 OA
ATOM     21  H   UNL     1      37.868 -24.770 -15.874  0.00  0.00    +0.222 HD
ENDBRANCH  17  20
ENDBRANCH  16  17
ENDBRANCH  15  16
ENDBRANCH   6  15
ENDBRANCH   4   7
BRANCH   3  22
ATOM     22  C   UNL     1      35.669 -18.306 -23.141  0.00  0.00    +0.075 C 
BRANCH  22  23
ATOM     23  C   UNL     1      35.033 -16.921 -23.146  0.00  0.00    -0.016 C 
ATOM     24  C   UNL     1      34.376 -16.460 -24.286  0.00  0.00    -0.004 C 
ATOM     25  C   UNL     1      35.108 -16.115 -22.009  0.00  0.00    -0.004 C 
ATOM     26  C   UNL     1      33.869 -14.387 -23.155  0.00  0.00    +0.021 C 
ATOM     27  C   UNL     1      33.794 -15.193 -24.291  0.00  0.00    -0.001 C 
ATOM     28  C   UNL     1      34.526 -14.848 -22.015  0.00  0.00    -0.001 C 
BRANCH  26  29
ATOM     29  C   UNL     1      33.244 -13.033 -23.160  0.00  0.00    +0.234 C 
BRANCH  29  30
ATOM     30  O   UNL     1      34.132 -12.105 -23.772  0.00  0.00    -0.455 OA
BRANCH  30  32
ATOM     31  N   UNL     1      32.822 -10.470 -22.773  0.00  0.00    -0.210 NA
ATOM     32  C   UNL     1      33.907 -10.777 -23.519  0.00  0.00    +0.225 C 
ATOM     33  C   UNL     1      34.788  -9.838 -24.029  0.00  0.00    +0.058 C 
ATOM     34  C   UNL     1      34.539  -8.497 -23.758  0.00  0.00    +0.006 C 
ATOM     35  C   UNL     1      32.612  -9.157 -22.529  0.00  0.00    +0.102 C 
ATOM     36  C   UNL     1      33.433  -8.142 -22.994  0.00  0.00    +0.021 C 
ENDBRANCH  30  32
ENDBRANCH  29  30
ENDBRANCH  26  29
ENDBRANCH  22  23
ENDBRANCH   3  22
TORSDOF 11
ENDMDL
MODEL 7
REMARK VINA RESULT:     -10.9      6.331     13.745
REMARK  Name = 44123754
REMARK  11 active torsions:
REMARK  status: ('A' for Active; 'I' for Inactive)
REMARK    1  A    between atoms: C_3  and  C_22
REMARK    2  A    between atoms: C_4  and  C_7
REMARK    3  A    between atoms: N_6  and  C_15
REMARK    4  A    between atoms: C_8  and  N_12
REMARK    5  A    between atoms: C_15  and  O_16
REMARK    6  A    between atoms: O_16  and  P_17
REMARK    7  A    between atoms: P_17  and  O_20
REMARK    8  A    between atoms: C_22  and  C_23
REMARK    9  A    between atoms: C_26  and  C_29
REMARK   10  A    between atoms: C_29  and  O_30
REMARK   11  A    between atoms: O_30  and  C_32
REMARK                            x       y       z     vdW  Elec       q    Type
REMARK                         _______ _______ _______ _____ _____    ______ ____
ROOT
ATOM      1  O   UNL     1      33.604 -23.723 -14.308  0.00  0.00    -0.354 OA
ATOM      2  N   UNL     1      32.677 -23.353 -15.276  0.00  0.00    -0.081 NA
ATOM      3  C   UNL     1      33.400 -23.109 -16.372  0.00  0.00    +0.105 C 
ATOM      4  C   UNL     1      34.850 -23.690 -14.846  0.00  0.00    +0.175 C 
ATOM      5  C   UNL     1      34.776 -23.305 -16.158  0.00  0.00    +0.058 C 
ENDROOT
BRANCH   4   7
ATOM      6  N   UNL     1      37.635 -25.528 -13.255  0.00  0.00    -0.266 N 
ATOM      7  C   UNL     1      35.926 -24.053 -13.953  0.00  0.00    +0.048 C 
ATOM      8  C   UNL     1      36.643 -25.230 -14.106  0.00  0.00    +0.156 C 
ATOM      9  C   UNL     1      36.256 -23.199 -12.906  0.00  0.00    +0.003 C 
ATOM     10  C   UNL     1      37.973 -24.724 -12.239  0.00  0.00    +0.064 C 
ATOM     11  C   UNL     1      37.290 -23.534 -12.037  0.00  0.00    +0.016 C 
BRANCH   8  12
ATOM     12  N   UNL     1      36.340 -26.125 -15.156  0.00  0.00    -0.303 NA
ATOM     13  H   UNL     1      35.747 -26.894 -14.992  0.00  0.00    +0.121 HD
ATOM     14  H   UNL     1      36.722 -25.979 -16.052  0.00  0.00    +0.121 HD
ENDBRANCH   8  12
BRANCH   6  15
ATOM     15  C   UNL     1      38.392 -26.771 -13.419  0.00  0.00    +0.251 C 
BRANCH  15  16
ATOM     16  O   UNL     1      39.339 -26.593 -14.463  0.00  0.00    -0.250 OA
BRANCH  16  17
ATOM     17  P   UNL     1      39.709 -27.856 -15.431  0.00  0.00    +0.504 P 
ATOM     18  O   UNL     1      39.604 -29.148 -14.650  0.00  0.00    -0.225 OA
ATOM     19  O   UNL     1      40.972 -27.521 -16.194  0.00  0.00    -0.116 OA
BRANCH  17  20
ATOM     20  O   UNL     1      38.452 -27.773 -16.471  0.00  0.00    -0.301 OA
ATOM     21  H   UNL     1      38.623 -28.350 -17.232  0.00  0.00    +0.222 HD
ENDBRANCH  17  20
ENDBRANCH  16  17
ENDBRANCH  15  16
ENDBRANCH   6  15
ENDBRANCH   4   7
BRANCH   3  22
ATOM     22  C   UNL     1      32.732 -22.686 -17.613  0.00  0.00    +0.075 C 
BRANCH  22  23
ATOM     23  C   UNL     1      33.581 -21.805 -18.522  0.00  0.00    -0.016 C 
ATOM     24  C   UNL     1      34.972 -21.904 -18.487  0.00  0.00    -0.004 C 
ATOM     25  C   UNL     1      32.967 -20.901 -19.389  0.00  0.00    -0.004 C 
ATOM     26  C   UNL     1      35.136 -20.194 -20.185  0.00  0.00    +0.021 C 
ATOM     27  C   UNL     1      35.749 -21.098 -19.318  0.00  0.00    -0.001 C 
ATOM     28  C   UNL     1      33.745 -20.095 -20.221  0.00  0.00    -0.001 C 
BRANCH  26  29
ATOM     29  C   UNL     1      35.967 -19.334 -21.076  0.00  0.00    +0.234 C 
BRANCH  29  30
ATOM     30  O   UNL     1      35.551 -17.980 -20.949  0.00  0.00    -0.455 OA
BRANCH  30  32
ATOM     31  N   UNL     1      35.173 -15.987 -22.075  0.00  0.00    -0.210 NA
ATOM     32  C   UNL     1      35.175 -17.339 -22.100  0.00  0.00    +0.225 C 
ATOM     33  C   UNL     1      34.827 -18.095 -23.207  0.00  0.00    +0.058 C 
ATOM     34  C   UNL     1      34.450 -17.421 -24.364  0.00  0.00    +0.006 C 
ATOM     35  C   UNL     1      34.803 -15.366 -23.218  0.00  0.00    +0.102 C 
ATOM     36  C   UNL     1      34.436 -16.030 -24.378  0.00  0.00    +0.021 C 
ENDBRANCH  30  32
ENDBRANCH  29  30
ENDBRANCH  26  29
ENDBRANCH  22  23
ENDBRANCH   3  22
TORSDOF 11
ENDMDL
MODEL 8
REMARK VINA RESULT:     -10.9      3.966     11.360
REMARK  Name = 44123754
REMARK  11 active torsions:
REMARK  status: ('A' for Active; 'I' for Inactive)
REMARK    1  A    between atoms: C_3  and  C_22
REMARK    2  A    between atoms: C_4  and  C_7
REMARK    3  A    between atoms: N_6  and  C_15
REMARK    4  A    between atoms: C_8  and  N_12
REMARK    5  A    between atoms: C_15  and  O_16
REMARK    6  A    between atoms: O_16  and  P_17
REMARK    7  A    between atoms: P_17  and  O_20
REMARK    8  A    between atoms: C_22  and  C_23
REMARK    9  A    between atoms: C_26  and  C_29
REMARK   10  A    between atoms: C_29  and  O_30
REMARK   11  A    between atoms: O_30  and  C_32
REMARK                            x       y       z     vdW  Elec       q    Type
REMARK                         _______ _______ _______ _____ _____    ______ ____
ROOT
ATOM      1  O   UNL     1      33.932 -20.448 -20.205  0.00  0.00    -0.354 OA
ATOM      2  N   UNL     1      34.168 -19.676 -21.337  0.00  0.00    -0.081 NA
ATOM      3  C   UNL     1      35.493 -19.516 -21.376  0.00  0.00    +0.105 C 
ATOM      4  C   UNL     1      35.115 -20.728 -19.599  0.00  0.00    +0.175 C 
ATOM      5  C   UNL     1      36.141 -20.157 -20.305  0.00  0.00    +0.058 C 
ENDROOT
BRANCH   4   7
ATOM      6  N   UNL     1      33.829 -22.923 -16.918  0.00  0.00    -0.266 N 
ATOM      7  C   UNL     1      35.030 -21.529 -18.401  0.00  0.00    +0.048 C 
ATOM      8  C   UNL     1      33.864 -22.189 -18.038  0.00  0.00    +0.156 C 
ATOM      9  C   UNL     1      36.148 -21.646 -17.581  0.00  0.00    +0.003 C 
ATOM     10  C   UNL     1      34.891 -23.052 -16.111  0.00  0.00    +0.064 C 
ATOM     11  C   UNL     1      36.083 -22.414 -16.423  0.00  0.00    +0.016 C 
BRANCH   8  12
ATOM     12  N   UNL     1      32.707 -22.097 -18.842  0.00  0.00    -0.303 NA
ATOM     13  H   UNL     1      32.670 -22.567 -19.706  0.00  0.00    +0.121 HD
ATOM     14  H   UNL     1      31.939 -21.562 -18.538  0.00  0.00    +0.121 HD
ENDBRANCH   8  12
BRANCH   6  15
ATOM     15  C   UNL     1      32.598 -23.619 -16.536  0.00  0.00    +0.251 C 
BRANCH  15  16
ATOM     16  O   UNL     1      31.588 -22.652 -16.284  0.00  0.00    -0.250 OA
BRANCH  16  17
ATOM     17  P   UNL     1      30.120 -23.146 -15.765  0.00  0.00    +0.504 P 
ATOM     18  O   UNL     1      30.115 -24.651 -15.601  0.00  0.00    -0.225 OA
ATOM     19  O   UNL     1      29.061 -22.462 -16.600  0.00  0.00    -0.116 OA
BRANCH  17  20
ATOM     20  O   UNL     1      30.117 -22.462 -14.282  0.00  0.00    -0.301 OA
ATOM     21  H   UNL     1      29.479 -22.923 -13.714  0.00  0.00    +0.222 HD
ENDBRANCH  17  20
ENDBRANCH  16  17
ENDBRANCH  15  16
ENDBRANCH   6  15
ENDBRANCH   4   7
BRANCH   3  22
ATOM     22  C   UNL     1      36.106 -18.735 -22.463  0.00  0.00    +0.075 C 
BRANCH  22  23
ATOM     23  C   UNL     1      35.381 -17.438 -22.799  0.00  0.00    -0.016 C 
ATOM     24  C   UNL     1      34.807 -17.266 -24.058  0.00  0.00    -0.004 C 
ATOM     25  C   UNL     1      35.291 -16.422 -21.847  0.00  0.00    -0.004 C 
ATOM     26  C   UNL     1      34.053 -15.063 -23.415  0.00  0.00    +0.021 C 
ATOM     27  C   UNL     1      34.144 -16.079 -24.367  0.00  0.00    -0.001 C 
ATOM     28  C   UNL     1      34.627 -15.235 -22.155  0.00  0.00    -0.001 C 
BRANCH  26  29
ATOM     29  C   UNL     1      33.341 -13.795 -23.743  0.00  0.00    +0.234 C 
BRANCH  29  30
ATOM     30  O   UNL     1      34.159 -12.688 -23.386  0.00  0.00    -0.455 OA
BRANCH  30  32
ATOM     31  N   UNL     1      32.520 -11.612 -22.144  0.00  0.00    -0.210 NA
ATOM     32  C   UNL     1      33.513 -11.524 -23.057  0.00  0.00    +0.225 C 
ATOM     33  C   UNL     1      33.908 -10.343 -23.664  0.00  0.00    +0.058 C 
ATOM     34  C   UNL     1      33.238  -9.176 -23.312  0.00  0.00    +0.006 C 
ATOM     35  C   UNL     1      31.893 -10.457 -21.827  0.00  0.00    +0.102 C 
ATOM     36  C   UNL     1      32.211  -9.226 -22.376  0.00  0.00    +0.021 C 
ENDBRANCH  30  32
ENDBRANCH  29  30
ENDBRANCH  26  29
ENDBRANCH  22  23
ENDBRANCH   3  22
TORSDOF 11
ENDMDL
MODEL 9
REMARK VINA RESULT:     -10.8      3.906     11.501
REMARK  Name = 44123754
REMARK  11 active torsions:
REMARK  status: ('A' for Active; 'I' for Inactive)
REMARK    1  A    between atoms: C_3  and  C_22
REMARK    2  A    between atoms: C_4  and  C_7
REMARK    3  A    between atoms: N_6  and  C_15
REMARK    4  A    between atoms: C_8  and  N_12
REMARK    5  A    between atoms: C_15  and  O_16
REMARK    6  A    between atoms: O_16  and  P_17
REMARK    7  A    between atoms: P_17  and  O_20
REMARK    8  A    between atoms: C_22  and  C_23
REMARK    9  A    between atoms: C_26  and  C_29
REMARK   10  A    between atoms: C_29  and  O_30
REMARK   11  A    between atoms: O_30  and  C_32
REMARK                            x       y       z     vdW  Elec       q    Type
REMARK                         _______ _______ _______ _____ _____    ______ ____
ROOT
ATOM      1  O   UNL     1      33.771 -20.218 -20.943  0.00  0.00    -0.354 OA
ATOM      2  N   UNL     1      33.887 -19.380 -22.046  0.00  0.00    -0.081 NA
ATOM      3  C   UNL     1      35.152 -18.951 -22.023  0.00  0.00    +0.105 C 
ATOM      4  C   UNL     1      34.962 -20.268 -20.292  0.00  0.00    +0.175 C 
ATOM      5  C   UNL     1      35.875 -19.479 -20.939  0.00  0.00    +0.058 C 
ENDROOT
BRANCH   4   7
ATOM      6  N   UNL     1      33.965 -22.598 -17.601  0.00  0.00    -0.266 N 
ATOM      7  C   UNL     1      34.996 -21.106 -19.116  0.00  0.00    +0.048 C 
ATOM      8  C   UNL     1      33.890 -21.833 -18.698  0.00  0.00    +0.156 C 
ATOM      9  C   UNL     1      36.171 -21.190 -18.376  0.00  0.00    +0.003 C 
ATOM     10  C   UNL     1      35.084 -22.697 -16.871  0.00  0.00    +0.064 C 
ATOM     11  C   UNL     1      36.220 -21.993 -17.240  0.00  0.00    +0.016 C 
BRANCH   8  12
ATOM     12  N   UNL     1      32.678 -21.775 -19.420  0.00  0.00    -0.303 NA
ATOM     13  H   UNL     1      32.043 -21.041 -19.258  0.00  0.00    +0.121 HD
ATOM     14  H   UNL     1      32.470 -22.470 -20.086  0.00  0.00    +0.121 HD
ENDBRANCH   8  12
BRANCH   6  15
ATOM     15  C   UNL     1      32.798 -23.365 -17.161  0.00  0.00    +0.251 C 
BRANCH  15  16
ATOM     16  O   UNL     1      32.351 -22.840 -15.919  0.00  0.00    -0.250 OA
BRANCH  16  17
ATOM     17  P   UNL     1      30.775 -22.987 -15.509  0.00  0.00    +0.504 P 
ATOM     18  O   UNL     1      29.903 -22.481 -16.638  0.00  0.00    -0.225 OA
ATOM     19  O   UNL     1      30.594 -22.457 -14.104  0.00  0.00    -0.116 OA
BRANCH  17  20
ATOM     20  O   UNL     1      30.664 -24.615 -15.455  0.00  0.00    -0.301 OA
ATOM     21  H   UNL     1      31.474 -25.007 -15.818  0.00  0.00    +0.222 HD
ENDBRANCH  17  20
ENDBRANCH  16  17
ENDBRANCH  15  16
ENDBRANCH   6  15
ENDBRANCH   4   7
BRANCH   3  22
ATOM     22  C   UNL     1      35.635 -18.030 -23.065  0.00  0.00    +0.075 C 
BRANCH  22  23
ATOM     23  C   UNL     1      34.995 -16.647 -23.034  0.00  0.00    -0.016 C 
ATOM     24  C   UNL     1      34.394 -16.131 -24.182  0.00  0.00    -0.004 C 
ATOM     25  C   UNL     1      35.009 -15.898 -21.857  0.00  0.00    -0.004 C 
ATOM     26  C   UNL     1      33.822 -14.117 -22.977  0.00  0.00    +0.021 C 
ATOM     27  C   UNL     1      33.809 -14.866 -24.154  0.00  0.00    -0.001 C 
ATOM     28  C   UNL     1      34.423 -14.633 -21.829  0.00  0.00    -0.001 C 
BRANCH  26  29
ATOM     29  C   UNL     1      33.193 -12.765 -22.947  0.00  0.00    +0.234 C 
BRANCH  29  30
ATOM     30  O   UNL     1      33.864 -11.911 -23.867  0.00  0.00    -0.455 OA
BRANCH  30  32
ATOM     31  N   UNL     1      32.788 -10.120 -22.858  0.00  0.00    -0.210 NA
ATOM     32  C   UNL     1      33.824 -10.567 -23.603  0.00  0.00    +0.225 C 
ATOM     33  C   UNL     1      34.829  -9.755 -24.101  0.00  0.00    +0.058 C 
ATOM     34  C   UNL     1      34.767  -8.395 -23.818  0.00  0.00    +0.006 C 
ATOM     35  C   UNL     1      32.761  -8.792 -22.603  0.00  0.00    +0.102 C 
ATOM     36  C   UNL     1      33.717  -7.897 -23.055  0.00  0.00    +0.021 C 
ENDBRANCH  30  32
ENDBRANCH  29  30
ENDBRANCH  26  29
ENDBRANCH  22  23
ENDBRANCH   3  22
TORSDOF 11
ENDMDL
