MODEL 1
REMARK VINA RESULT:     -11.3      0.000      0.000
REMARK  Name = 23586146
REMARK  5 active torsions:
REMARK  status: ('A' for Active; 'I' for Inactive)
REMARK    1  A    between atoms: N_1  and  C_12
REMARK    2  A    between atoms: C_8  and  N_18
REMARK    3  A    between atoms: N_18  and  C_20
REMARK    4  A    between atoms: C_23  and  S_26
REMARK    5  A    between atoms: S_26  and  N_29
REMARK                            x       y       z     vdW  Elec       q    Type
REMARK                         _______ _______ _______ _____ _____    ______ ____
ROOT
ATOM      1  N   UNL     1      35.503 -24.104 -14.016  0.00  0.00    -0.309 N 
ATOM      2  N   UNL     1      33.239 -23.728 -13.958  0.00  0.00    -0.321 NA
ATOM      3  N   UNL     1      32.109 -23.138 -15.994  0.00  0.00    -0.106 N 
ATOM      4  N   UNL     1      30.845 -22.843 -16.400  0.00  0.00    -0.139 NA
ATOM      5  N   UNL     1      30.867 -23.281 -14.165  0.00  0.00    -0.145 NA
ATOM      6  C   UNL     1      34.357 -23.787 -14.642  0.00  0.00    +0.196 C 
ATOM      7  C   UNL     1      34.425 -23.509 -16.119  0.00  0.00    +0.081 C 
ATOM      8  C   UNL     1      33.283 -23.192 -16.748  0.00  0.00    +0.140 C 
ATOM      9  C   UNL     1      32.097 -23.403 -14.623  0.00  0.00    +0.176 C 
ATOM     10  C   UNL     1      30.153 -22.944 -15.269  0.00  0.00    +0.230 C 
ATOM     11  H   UNL     1      36.335 -24.128 -14.541  0.00  0.00    +0.149 HD
ENDROOT
BRANCH   1  12
ATOM     12  C   UNL     1      35.565 -24.413 -12.600  0.00  0.00    +0.071 C 
ATOM     13  C   UNL     1      36.444 -25.647 -12.369  0.00  0.00    +0.020 C 
ATOM     14  C   UNL     1      36.083 -23.200 -11.820  0.00  0.00    +0.020 C 
ATOM     15  C   UNL     1      37.929 -25.369 -12.608  0.00  0.00    +0.002 C 
ATOM     16  C   UNL     1      37.568 -22.932 -12.060  0.00  0.00    +0.002 C 
ATOM     17  C   UNL     1      38.416 -24.173 -11.797  0.00  0.00    +0.000 C 
ENDBRANCH   1  12
BRANCH   8  18
ATOM     18  N   UNL     1      33.193 -22.915 -18.082  0.00  0.00    -0.299 N 
ATOM     19  H   UNL     1      32.566 -23.475 -18.595  0.00  0.00    +0.153 HD
BRANCH  18  20
ATOM     20  C   UNL     1      33.877 -21.938 -18.814  0.00  0.00    +0.049 C 
ATOM     21  C   UNL     1      33.164 -20.995 -19.556  0.00  0.00    +0.016 C 
ATOM     22  C   UNL     1      35.271 -21.906 -18.803  0.00  0.00    +0.016 C 
ATOM     23  C   UNL     1      35.240 -19.990 -20.273  0.00  0.00    +0.122 C 
ATOM     24  C   UNL     1      33.846 -20.021 -20.285  0.00  0.00    +0.021 C 
ATOM     25  C   UNL     1      35.952 -20.932 -19.532  0.00  0.00    +0.021 C 
BRANCH  23  26
ATOM     26  S   UNL     1      36.093 -18.771 -21.186  0.00  0.00    +0.057 S 
ATOM     27  O   UNL     1      37.505 -18.839 -20.838  0.00  0.00    -0.153 OA
ATOM     28  O   UNL     1      35.687 -18.867 -22.582  0.00  0.00    -0.153 OA
BRANCH  26  29
ATOM     29  N   UNL     1      35.430 -17.342 -20.521  0.00  0.00    -0.203 NA
ATOM     30  H   UNL     1      36.098 -16.579 -20.619  0.00  0.00    +0.144 HD
ATOM     31  H   UNL     1      35.227 -17.491 -19.532  0.00  0.00    +0.144 HD
ENDBRANCH  26  29
ENDBRANCH  23  26
ENDBRANCH  18  20
ENDBRANCH   8  18
TORSDOF 5
ENDMDL
MODEL 2
REMARK VINA RESULT:     -10.1      4.625      6.688
REMARK  Name = 23586146
REMARK  5 active torsions:
REMARK  status: ('A' for Active; 'I' for Inactive)
REMARK    1  A    between atoms: N_1  and  C_12
REMARK    2  A    between atoms: C_8  and  N_18
REMARK    3  A    between atoms: N_18  and  C_20
REMARK    4  A    between atoms: C_23  and  S_26
REMARK    5  A    between atoms: S_26  and  N_29
REMARK                            x       y       z     vdW  Elec       q    Type
REMARK                         _______ _______ _______ _____ _____    ______ ____
ROOT
ATOM      1  N   UNL     1      37.674 -27.069 -14.782  0.00  0.00    -0.309 N 
ATOM      2  N   UNL     1      37.207 -26.380 -12.643  0.00  0.00    -0.321 NA
ATOM      3  N   UNL     1      35.820 -24.444 -12.325  0.00  0.00    -0.106 N 
ATOM      4  N   UNL     1      35.315 -23.721 -11.290  0.00  0.00    -0.139 NA
ATOM      5  N   UNL     1      36.568 -25.449 -10.499  0.00  0.00    -0.145 NA
ATOM      6  C   UNL     1      37.071 -26.216 -13.938  0.00  0.00    +0.196 C 
ATOM      7  C   UNL     1      36.261 -25.099 -14.537  0.00  0.00    +0.081 C 
ATOM      8  C   UNL     1      35.658 -24.244 -13.698  0.00  0.00    +0.140 C 
ATOM      9  C   UNL     1      36.584 -25.497 -11.816  0.00  0.00    +0.176 C 
ATOM     10  C   UNL     1      35.794 -24.368 -10.232  0.00  0.00    +0.230 C 
ATOM     11  H   UNL     1      37.575 -26.923 -15.750  0.00  0.00    +0.149 HD
ENDROOT
BRANCH   1  12
ATOM     12  C   UNL     1      38.464 -28.199 -14.327  0.00  0.00    +0.071 C 
ATOM     13  C   UNL     1      37.995 -29.482 -15.020  0.00  0.00    +0.020 C 
ATOM     14  C   UNL     1      39.951 -27.934 -14.581  0.00  0.00    +0.020 C 
ATOM     15  C   UNL     1      38.367 -29.524 -16.503  0.00  0.00    +0.002 C 
ATOM     16  C   UNL     1      40.317 -27.983 -16.065  0.00  0.00    +0.002 C 
ATOM     17  C   UNL     1      39.857 -29.284 -16.716  0.00  0.00    +0.000 C 
ENDBRANCH   1  12
BRANCH   8  18
ATOM     18  N   UNL     1      34.893 -23.186 -14.098  0.00  0.00    -0.299 N 
ATOM     19  H   UNL     1      35.352 -22.316 -14.141  0.00  0.00    +0.153 HD
BRANCH  18  20
ATOM     20  C   UNL     1      33.540 -23.179 -14.456  0.00  0.00    +0.049 C 
ATOM     21  C   UNL     1      32.556 -23.207 -13.467  0.00  0.00    +0.016 C 
ATOM     22  C   UNL     1      33.175 -23.146 -15.802  0.00  0.00    +0.016 C 
ATOM     23  C   UNL     1      30.843 -23.167 -15.171  0.00  0.00    +0.122 C 
ATOM     24  C   UNL     1      31.208 -23.200 -13.825  0.00  0.00    +0.021 C 
ATOM     25  C   UNL     1      31.827 -23.140 -16.159  0.00  0.00    +0.021 C 
BRANCH  23  26
ATOM     26  S   UNL     1      29.156 -23.158 -15.617  0.00  0.00    +0.057 S 
ATOM     27  O   UNL     1      29.037 -22.593 -16.954  0.00  0.00    -0.153 OA
ATOM     28  O   UNL     1      28.595 -24.473 -15.335  0.00  0.00    -0.153 OA
BRANCH  26  29
ATOM     29  N   UNL     1      28.526 -22.040 -14.488  0.00  0.00    -0.203 NA
ATOM     30  H   UNL     1      27.516 -21.971 -14.605  0.00  0.00    +0.144 HD
ATOM     31  H   UNL     1      28.949 -21.125 -14.643  0.00  0.00    +0.144 HD
ENDBRANCH  26  29
ENDBRANCH  23  26
ENDBRANCH  18  20
ENDBRANCH   8  18
TORSDOF 5
ENDMDL
MODEL 3
REMARK VINA RESULT:      -9.8      1.809      4.754
REMARK  Name = 23586146
REMARK  5 active torsions:
REMARK  status: ('A' for Active; 'I' for Inactive)
REMARK    1  A    between atoms: N_1  and  C_12
REMARK    2  A    between atoms: C_8  and  N_18
REMARK    3  A    between atoms: N_18  and  C_20
REMARK    4  A    between atoms: C_23  and  S_26
REMARK    5  A    between atoms: S_26  and  N_29
REMARK                            x       y       z     vdW  Elec       q    Type
REMARK                         _______ _______ _______ _____ _____    ______ ____
ROOT
ATOM      1  N   UNL     1      30.892 -22.805 -15.588  0.00  0.00    -0.309 N 
ATOM      2  N   UNL     1      32.937 -23.030 -14.569  0.00  0.00    -0.321 NA
ATOM      3  N   UNL     1      34.920 -22.976 -15.925  0.00  0.00    -0.106 N 
ATOM      4  N   UNL     1      36.266 -23.066 -15.752  0.00  0.00    -0.139 NA
ATOM      5  N   UNL     1      35.205 -23.246 -13.745  0.00  0.00    -0.145 NA
ATOM      6  C   UNL     1      32.232 -22.865 -15.664  0.00  0.00    +0.196 C 
ATOM      7  C   UNL     1      32.858 -22.739 -17.026  0.00  0.00    +0.081 C 
ATOM      8  C   UNL     1      34.196 -22.800 -17.107  0.00  0.00    +0.140 C 
ATOM      9  C   UNL     1      34.292 -23.088 -14.683  0.00  0.00    +0.176 C 
ATOM     10  C   UNL     1      36.373 -23.226 -14.437  0.00  0.00    +0.230 C 
ATOM     11  H   UNL     1      30.378 -22.696 -16.419  0.00  0.00    +0.149 HD
ENDROOT
BRANCH   1  12
ATOM     12  C   UNL     1      30.171 -22.891 -14.331  0.00  0.00    +0.071 C 
ATOM     13  C   UNL     1      28.662 -22.930 -14.591  0.00  0.00    +0.020 C 
ATOM     14  C   UNL     1      30.637 -24.120 -13.543  0.00  0.00    +0.020 C 
ATOM     15  C   UNL     1      28.202 -24.250 -15.211  0.00  0.00    +0.002 C 
ATOM     16  C   UNL     1      30.169 -25.435 -14.165  0.00  0.00    +0.002 C 
ATOM     17  C   UNL     1      28.660 -25.448 -14.387  0.00  0.00    +0.000 C 
ENDBRANCH   1  12
BRANCH   8  18
ATOM     18  N   UNL     1      34.900 -22.701 -18.273  0.00  0.00    -0.299 N 
ATOM     19  H   UNL     1      35.369 -23.517 -18.561  0.00  0.00    +0.153 HD
BRANCH  18  20
ATOM     20  C   UNL     1      35.038 -21.590 -19.111  0.00  0.00    +0.049 C 
ATOM     21  C   UNL     1      36.305 -21.064 -19.370  0.00  0.00    +0.016 C 
ATOM     22  C   UNL     1      33.911 -21.006 -19.689  0.00  0.00    +0.016 C 
ATOM     23  C   UNL     1      35.314 -19.373 -20.783  0.00  0.00    +0.122 C 
ATOM     24  C   UNL     1      36.443 -19.956 -20.206  0.00  0.00    +0.021 C 
ATOM     25  C   UNL     1      34.049 -19.899 -20.524  0.00  0.00    +0.021 C 
BRANCH  23  26
ATOM     26  S   UNL     1      35.488 -17.987 -21.829  0.00  0.00    +0.057 S 
ATOM     27  O   UNL     1      34.668 -18.200 -23.014  0.00  0.00    -0.153 OA
ATOM     28  O   UNL     1      35.309 -16.780 -21.034  0.00  0.00    -0.153 OA
BRANCH  26  29
ATOM     29  N   UNL     1      37.134 -18.114 -22.270  0.00  0.00    -0.203 NA
ATOM     30  H   UNL     1      37.402 -17.303 -22.824  0.00  0.00    +0.144 HD
ATOM     31  H   UNL     1      37.275 -18.963 -22.818  0.00  0.00    +0.144 HD
ENDBRANCH  26  29
ENDBRANCH  23  26
ENDBRANCH  18  20
ENDBRANCH   8  18
TORSDOF 5
ENDMDL
MODEL 4
REMARK VINA RESULT:      -9.5      5.426     11.021
REMARK  Name = 23586146
REMARK  5 active torsions:
REMARK  status: ('A' for Active; 'I' for Inactive)
REMARK    1  A    between atoms: N_1  and  C_12
REMARK    2  A    between atoms: C_8  and  N_18
REMARK    3  A    between atoms: N_18  and  C_20
REMARK    4  A    between atoms: C_23  and  S_26
REMARK    5  A    between atoms: S_26  and  N_29
REMARK                            x       y       z     vdW  Elec       q    Type
REMARK                         _______ _______ _______ _____ _____    ______ ____
ROOT
ATOM      1  N   UNL     1      34.246 -13.851 -23.076  0.00  0.00    -0.309 N 
ATOM      2  N   UNL     1      33.638 -15.785 -24.153  0.00  0.00    -0.321 NA
ATOM      3  N   UNL     1      34.479 -17.881 -23.335  0.00  0.00    -0.106 N 
ATOM      4  N   UNL     1      34.382 -19.201 -23.648  0.00  0.00    -0.139 NA
ATOM      5  N   UNL     1      33.151 -17.959 -25.106  0.00  0.00    -0.145 NA
ATOM      6  C   UNL     1      34.301 -15.188 -23.190  0.00  0.00    +0.196 C 
ATOM      7  C   UNL     1      35.137 -15.939 -22.189  0.00  0.00    +0.081 C 
ATOM      8  C   UNL     1      35.195 -17.274 -22.300  0.00  0.00    +0.140 C 
ATOM      9  C   UNL     1      33.716 -17.140 -24.240  0.00  0.00    +0.176 C 
ATOM     10  C   UNL     1      33.580 -19.183 -24.708  0.00  0.00    +0.230 C 
ATOM     11  H   UNL     1      34.761 -13.418 -22.358  0.00  0.00    +0.149 HD
ENDROOT
BRANCH   1  12
ATOM     12  C   UNL     1      33.458 -13.017 -23.965  0.00  0.00    +0.071 C 
ATOM     13  C   UNL     1      32.168 -12.576 -23.268  0.00  0.00    +0.020 C 
ATOM     14  C   UNL     1      34.286 -11.815 -24.428  0.00  0.00    +0.020 C 
ATOM     15  C   UNL     1      32.415 -11.555 -22.157  0.00  0.00    +0.002 C 
ATOM     16  C   UNL     1      34.525 -10.796 -23.314  0.00  0.00    +0.002 C 
ATOM     17  C   UNL     1      33.218 -10.360 -22.659  0.00  0.00    +0.000 C 
ENDBRANCH   1  12
BRANCH   8  18
ATOM     18  N   UNL     1      35.912 -18.083 -21.466  0.00  0.00    -0.299 N 
ATOM     19  H   UNL     1      36.869 -17.871 -21.380  0.00  0.00    +0.153 HD
BRANCH  18  20
ATOM     20  C   UNL     1      35.459 -19.175 -20.716  0.00  0.00    +0.049 C 
ATOM     21  C   UNL     1      36.376 -20.009 -20.076  0.00  0.00    +0.016 C 
ATOM     22  C   UNL     1      34.092 -19.430 -20.609  0.00  0.00    +0.016 C 
ATOM     23  C   UNL     1      34.558 -21.352 -19.222  0.00  0.00    +0.122 C 
ATOM     24  C   UNL     1      35.925 -21.097 -19.328  0.00  0.00    +0.021 C 
ATOM     25  C   UNL     1      33.642 -20.518 -19.862  0.00  0.00    +0.021 C 
BRANCH  23  26
ATOM     26  S   UNL     1      33.994 -22.713 -18.286  0.00  0.00    +0.057 S 
ATOM     27  O   UNL     1      33.900 -23.869 -19.167  0.00  0.00    -0.153 OA
ATOM     28  O   UNL     1      34.786 -22.797 -17.066  0.00  0.00    -0.153 OA
BRANCH  26  29
ATOM     29  N   UNL     1      32.415 -22.200 -17.881  0.00  0.00    -0.203 NA
ATOM     30  H   UNL     1      31.948 -22.928 -17.342  0.00  0.00    +0.144 HD
ATOM     31  H   UNL     1      31.888 -22.017 -18.735  0.00  0.00    +0.144 HD
ENDBRANCH  26  29
ENDBRANCH  23  26
ENDBRANCH  18  20
ENDBRANCH   8  18
TORSDOF 5
ENDMDL
MODEL 5
REMARK VINA RESULT:      -9.2      4.687      6.467
REMARK  Name = 23586146
REMARK  5 active torsions:
REMARK  status: ('A' for Active; 'I' for Inactive)
REMARK    1  A    between atoms: N_1  and  C_12
REMARK    2  A    between atoms: C_8  and  N_18
REMARK    3  A    between atoms: N_18  and  C_20
REMARK    4  A    between atoms: C_23  and  S_26
REMARK    5  A    between atoms: S_26  and  N_29
REMARK                            x       y       z     vdW  Elec       q    Type
REMARK                         _______ _______ _______ _____ _____    ______ ____
ROOT
ATOM      1  N   UNL     1      36.127 -26.984 -14.253  0.00  0.00    -0.309 N 
ATOM      2  N   UNL     1      37.133 -25.023 -14.896  0.00  0.00    -0.321 NA
ATOM      3  N   UNL     1      35.882 -22.977 -14.753  0.00  0.00    -0.106 N 
ATOM      4  N   UNL     1      36.072 -21.656 -15.014  0.00  0.00    -0.139 NA
ATOM      5  N   UNL     1      37.958 -22.830 -15.511  0.00  0.00    -0.145 NA
ATOM      6  C   UNL     1      36.080 -25.654 -14.431  0.00  0.00    +0.196 C 
ATOM      7  C   UNL     1      34.797 -24.949 -14.080  0.00  0.00    +0.081 C 
ATOM      8  C   UNL     1      34.746 -23.620 -14.257  0.00  0.00    +0.140 C 
ATOM      9  C   UNL     1      37.050 -23.676 -15.065  0.00  0.00    +0.176 C 
ATOM     10  C   UNL     1      37.323 -21.632 -15.461  0.00  0.00    +0.230 C 
ATOM     11  H   UNL     1      35.324 -27.443 -13.918  0.00  0.00    +0.149 HD
ENDROOT
BRANCH   1  12
ATOM     12  C   UNL     1      37.312 -27.773 -14.533  0.00  0.00    +0.071 C 
ATOM     13  C   UNL     1      38.346 -27.585 -13.419  0.00  0.00    +0.020 C 
ATOM     14  C   UNL     1      36.932 -29.248 -14.704  0.00  0.00    +0.020 C 
ATOM     15  C   UNL     1      37.931 -28.253 -12.107  0.00  0.00    +0.002 C 
ATOM     16  C   UNL     1      36.523 -29.910 -13.389  0.00  0.00    +0.002 C 
ATOM     17  C   UNL     1      37.586 -29.724 -12.310  0.00  0.00    +0.000 C 
ENDBRANCH   1  12
BRANCH   8  18
ATOM     18  N   UNL     1      33.651 -22.852 -13.983  0.00  0.00    -0.299 N 
ATOM     19  H   UNL     1      33.783 -22.138 -13.318  0.00  0.00    +0.153 HD
BRANCH  18  20
ATOM     20  C   UNL     1      32.365 -22.947 -14.527  0.00  0.00    +0.049 C 
ATOM     21  C   UNL     1      32.195 -22.979 -15.912  0.00  0.00    +0.016 C 
ATOM     22  C   UNL     1      31.254 -23.010 -13.687  0.00  0.00    +0.016 C 
ATOM     23  C   UNL     1      29.802 -23.138 -15.612  0.00  0.00    +0.122 C 
ATOM     24  C   UNL     1      30.913 -23.075 -16.454  0.00  0.00    +0.021 C 
ATOM     25  C   UNL     1      29.974 -23.105 -14.229  0.00  0.00    +0.021 C 
BRANCH  23  26
ATOM     26  S   UNL     1      28.199 -23.257 -16.292  0.00  0.00    +0.057 S 
ATOM     27  O   UNL     1      27.995 -22.129 -17.189  0.00  0.00    -0.153 OA
ATOM     28  O   UNL     1      28.003 -24.615 -16.782  0.00  0.00    -0.153 OA
BRANCH  26  29
ATOM     29  N   UNL     1      27.236 -23.033 -14.898  0.00  0.00    -0.203 NA
ATOM     30  H   UNL     1      27.787 -22.575 -14.174  0.00  0.00    +0.144 HD
ATOM     31  H   UNL     1      26.913 -23.939 -14.558  0.00  0.00    +0.144 HD
ENDBRANCH  26  29
ENDBRANCH  23  26
ENDBRANCH  18  20
ENDBRANCH   8  18
TORSDOF 5
ENDMDL
MODEL 6
REMARK VINA RESULT:      -9.0      9.246     14.337
REMARK  Name = 23586146
REMARK  5 active torsions:
REMARK  status: ('A' for Active; 'I' for Inactive)
REMARK    1  A    between atoms: N_1  and  C_12
REMARK    2  A    between atoms: C_8  and  N_18
REMARK    3  A    between atoms: N_18  and  C_20
REMARK    4  A    between atoms: C_23  and  S_26
REMARK    5  A    between atoms: S_26  and  N_29
REMARK                            x       y       z     vdW  Elec       q    Type
REMARK                         _______ _______ _______ _____ _____    ______ ____
ROOT
ATOM      1  N   UNL     1      33.988  -8.236 -23.696  0.00  0.00    -0.309 N 
ATOM      2  N   UNL     1      32.803  -9.416 -22.123  0.00  0.00    -0.321 NA
ATOM      3  N   UNL     1      32.612 -11.799 -22.361  0.00  0.00    -0.106 N 
ATOM      4  N   UNL     1      32.036 -12.838 -21.699  0.00  0.00    -0.139 NA
ATOM      5  N   UNL     1      31.612 -10.885 -20.608  0.00  0.00    -0.145 NA
ATOM      6  C   UNL     1      33.516  -9.402 -23.224  0.00  0.00    +0.196 C 
ATOM      7  C   UNL     1      33.837 -10.649 -24.002  0.00  0.00    +0.081 C 
ATOM      8  C   UNL     1      33.368 -11.816 -23.535  0.00  0.00    +0.140 C 
ATOM      9  C   UNL     1      32.340 -10.614 -21.674  0.00  0.00    +0.176 C 
ATOM     10  C   UNL     1      31.457 -12.231 -20.667  0.00  0.00    +0.230 C 
ATOM     11  H   UNL     1      34.507  -8.242 -24.531  0.00  0.00    +0.149 HD
ENDROOT
BRANCH   1  12
ATOM     12  C   UNL     1      33.764  -6.969 -23.025  0.00  0.00    +0.071 C 
ATOM     13  C   UNL     1      34.642  -5.880 -23.652  0.00  0.00    +0.020 C 
ATOM     14  C   UNL     1      32.279  -6.598 -23.086  0.00  0.00    +0.020 C 
ATOM     15  C   UNL     1      34.179  -5.482 -25.054  0.00  0.00    +0.002 C 
ATOM     16  C   UNL     1      31.826  -6.196 -24.489  0.00  0.00    +0.002 C 
ATOM     17  C   UNL     1      32.705  -5.094 -25.072  0.00  0.00    +0.000 C 
ENDBRANCH   1  12
BRANCH   8  18
ATOM     18  N   UNL     1      33.579 -13.024 -24.135  0.00  0.00    -0.299 N 
ATOM     19  H   UNL     1      33.392 -13.063 -25.100  0.00  0.00    +0.153 HD
BRANCH  18  20
ATOM     20  C   UNL     1      34.030 -14.214 -23.553  0.00  0.00    +0.049 C 
ATOM     21  C   UNL     1      34.040 -15.395 -24.298  0.00  0.00    +0.016 C 
ATOM     22  C   UNL     1      34.469 -14.222 -22.229  0.00  0.00    +0.016 C 
ATOM     23  C   UNL     1      34.928 -16.587 -22.393  0.00  0.00    +0.122 C 
ATOM     24  C   UNL     1      34.490 -16.581 -23.718  0.00  0.00    +0.021 C 
ATOM     25  C   UNL     1      34.918 -15.408 -21.650  0.00  0.00    +0.021 C 
BRANCH  23  26
ATOM     26  S   UNL     1      35.490 -18.072 -21.668  0.00  0.00    +0.057 S 
ATOM     27  O   UNL     1      35.664 -17.849 -20.239  0.00  0.00    -0.153 OA
ATOM     28  O   UNL     1      34.645 -19.164 -22.133  0.00  0.00    -0.153 OA
BRANCH  26  29
ATOM     29  N   UNL     1      37.031 -18.226 -22.392  0.00  0.00    -0.203 NA
ATOM     30  H   UNL     1      36.990 -17.892 -23.354  0.00  0.00    +0.144 HD
ATOM     31  H   UNL     1      37.314 -19.206 -22.383  0.00  0.00    +0.144 HD
ENDBRANCH  26  29
ENDBRANCH  23  26
ENDBRANCH  18  20
ENDBRANCH   8  18
TORSDOF 5
ENDMDL
MODEL 7
REMARK VINA RESULT:      -8.5     10.426     15.323
REMARK  Name = 23586146
REMARK  5 active torsions:
REMARK  status: ('A' for Active; 'I' for Inactive)
REMARK    1  A    between atoms: N_1  and  C_12
REMARK    2  A    between atoms: C_8  and  N_18
REMARK    3  A    between atoms: N_18  and  C_20
REMARK    4  A    between atoms: C_23  and  S_26
REMARK    5  A    between atoms: S_26  and  N_29
REMARK                            x       y       z     vdW  Elec       q    Type
REMARK                         _______ _______ _______ _____ _____    ______ ____
ROOT
ATOM      1  N   UNL     1      32.913  -7.198 -23.391  0.00  0.00    -0.309 N 
ATOM      2  N   UNL     1      32.625  -7.552 -21.141  0.00  0.00    -0.321 NA
ATOM      3  N   UNL     1      31.963  -9.734 -20.386  0.00  0.00    -0.106 N 
ATOM      4  N   UNL     1      31.692 -10.358 -19.208  0.00  0.00    -0.139 NA
ATOM      5  N   UNL     1      32.254  -8.183 -18.832  0.00  0.00    -0.145 NA
ATOM      6  C   UNL     1      32.604  -8.013 -22.369  0.00  0.00    +0.196 C 
ATOM      7  C   UNL     1      32.242  -9.436 -22.699  0.00  0.00    +0.081 C 
ATOM      8  C   UNL     1      31.932 -10.254 -21.682  0.00  0.00    +0.140 C 
ATOM      9  C   UNL     1      32.305  -8.405 -20.131  0.00  0.00    +0.176 C 
ATOM     10  C   UNL     1      31.883  -9.385 -18.322  0.00  0.00    +0.230 C 
ATOM     11  H   UNL     1      32.877  -7.555 -24.307  0.00  0.00    +0.149 HD
ENDROOT
BRANCH   1  12
ATOM     12  C   UNL     1      33.299  -5.812 -23.201  0.00  0.00    +0.071 C 
ATOM     13  C   UNL     1      34.586  -5.513 -23.976  0.00  0.00    +0.020 C 
ATOM     14  C   UNL     1      32.157  -4.886 -23.631  0.00  0.00    +0.020 C 
ATOM     15  C   UNL     1      34.373  -5.486 -25.490  0.00  0.00    +0.002 C 
ATOM     16  C   UNL     1      31.953  -4.860 -25.146  0.00  0.00    +0.002 C 
ATOM     17  C   UNL     1      33.248  -4.536 -25.883  0.00  0.00    +0.000 C 
ENDBRANCH   1  12
BRANCH   8  18
ATOM     18  N   UNL     1      31.585 -11.566 -21.831  0.00  0.00    -0.299 N 
ATOM     19  H   UNL     1      30.654 -11.792 -21.606  0.00  0.00    +0.153 HD
BRANCH  18  20
ATOM     20  C   UNL     1      32.383 -12.631 -22.263  0.00  0.00    +0.049 C 
ATOM     21  C   UNL     1      32.504 -12.905 -23.626  0.00  0.00    +0.016 C 
ATOM     22  C   UNL     1      33.059 -13.420 -21.332  0.00  0.00    +0.016 C 
ATOM     23  C   UNL     1      33.975 -14.755 -23.125  0.00  0.00    +0.122 C 
ATOM     24  C   UNL     1      33.300 -13.966 -24.057  0.00  0.00    +0.021 C 
ATOM     25  C   UNL     1      33.854 -14.481 -21.763  0.00  0.00    +0.021 C 
BRANCH  23  26
ATOM     26  S   UNL     1      34.971 -16.082 -23.665  0.00  0.00    +0.057 S 
ATOM     27  O   UNL     1      35.972 -15.561 -24.585  0.00  0.00    -0.153 OA
ATOM     28  O   UNL     1      35.389 -16.852 -22.501  0.00  0.00    -0.153 OA
BRANCH  26  29
ATOM     29  N   UNL     1      33.836 -17.002 -24.551  0.00  0.00    -0.203 NA
ATOM     30  H   UNL     1      33.658 -17.881 -24.067  0.00  0.00    +0.144 HD
ATOM     31  H   UNL     1      34.207 -17.195 -25.482  0.00  0.00    +0.144 HD
ENDBRANCH  26  29
ENDBRANCH  23  26
ENDBRANCH  18  20
ENDBRANCH   8  18
TORSDOF 5
ENDMDL
MODEL 8
REMARK VINA RESULT:      -8.5      8.267     11.934
REMARK  Name = 23586146
REMARK  5 active torsions:
REMARK  status: ('A' for Active; 'I' for Inactive)
REMARK    1  A    between atoms: N_1  and  C_12
REMARK    2  A    between atoms: C_8  and  N_18
REMARK    3  A    between atoms: N_18  and  C_20
REMARK    4  A    between atoms: C_23  and  S_26
REMARK    5  A    between atoms: S_26  and  N_29
REMARK                            x       y       z     vdW  Elec       q    Type
REMARK                         _______ _______ _______ _____ _____    ______ ____
ROOT
ATOM      1  N   UNL     1      35.309 -16.717 -21.708  0.00  0.00    -0.309 N 
ATOM      2  N   UNL     1      34.652 -15.796 -23.705  0.00  0.00    -0.321 NA
ATOM      3  N   UNL     1      33.467 -13.706 -23.684  0.00  0.00    -0.106 N 
ATOM      4  N   UNL     1      32.919 -12.846 -24.583  0.00  0.00    -0.139 NA
ATOM      5  N   UNL     1      33.852 -14.618 -25.666  0.00  0.00    -0.145 NA
ATOM      6  C   UNL     1      34.705 -15.734 -22.395  0.00  0.00    +0.196 C 
ATOM      7  C   UNL     1      34.111 -14.597 -21.608  0.00  0.00    +0.081 C 
ATOM      8  C   UNL     1      33.507 -13.613 -22.291  0.00  0.00    +0.140 C 
ATOM      9  C   UNL     1      34.033 -14.783 -24.370  0.00  0.00    +0.176 C 
ATOM     10  C   UNL     1      33.180 -13.442 -25.742  0.00  0.00    +0.230 C 
ATOM     11  H   UNL     1      35.325 -16.663 -20.725  0.00  0.00    +0.149 HD
ENDROOT
BRANCH   1  12
ATOM     12  C   UNL     1      35.937 -17.856 -22.352  0.00  0.00    +0.071 C 
ATOM     13  C   UNL     1      37.172 -18.294 -21.558  0.00  0.00    +0.020 C 
ATOM     14  C   UNL     1      34.928 -18.999 -22.498  0.00  0.00    +0.020 C 
ATOM     15  C   UNL     1      36.815 -18.953 -20.225  0.00  0.00    +0.002 C 
ATOM     16  C   UNL     1      34.580 -19.656 -21.163  0.00  0.00    +0.002 C 
ATOM     17  C   UNL     1      35.830 -20.103 -20.411  0.00  0.00    +0.000 C 
ENDBRANCH   1  12
BRANCH   8  18
ATOM     18  N   UNL     1      32.925 -12.522 -21.712  0.00  0.00    -0.299 N 
ATOM     19  H   UNL     1      32.428 -12.692 -20.880  0.00  0.00    +0.153 HD
BRANCH  18  20
ATOM     20  C   UNL     1      32.946 -11.193 -22.149  0.00  0.00    +0.049 C 
ATOM     21  C   UNL     1      34.029 -10.720 -22.892  0.00  0.00    +0.016 C 
ATOM     22  C   UNL     1      31.886 -10.340 -21.843  0.00  0.00    +0.016 C 
ATOM     23  C   UNL     1      32.988  -8.543 -23.021  0.00  0.00    +0.122 C 
ATOM     24  C   UNL     1      34.049  -9.395 -23.329  0.00  0.00    +0.021 C 
ATOM     25  C   UNL     1      31.907  -9.016 -22.279  0.00  0.00    +0.021 C 
BRANCH  23  26
ATOM     26  S   UNL     1      33.015  -6.885 -23.568  0.00  0.00    +0.057 S 
ATOM     27  O   UNL     1      34.227  -6.678 -24.349  0.00  0.00    -0.153 OA
ATOM     28  O   UNL     1      31.718  -6.567 -24.148  0.00  0.00    -0.153 OA
BRANCH  26  29
ATOM     29  N   UNL     1      33.169  -6.054 -22.082  0.00  0.00    -0.203 NA
ATOM     30  H   UNL     1      32.981  -5.063 -22.225  0.00  0.00    +0.144 HD
ATOM     31  H   UNL     1      34.117  -6.172 -21.724  0.00  0.00    +0.144 HD
ENDBRANCH  26  29
ENDBRANCH  23  26
ENDBRANCH  18  20
ENDBRANCH   8  18
TORSDOF 5
ENDMDL
MODEL 9
REMARK VINA RESULT:      -8.4      9.862     14.165
REMARK  Name = 23586146
REMARK  5 active torsions:
REMARK  status: ('A' for Active; 'I' for Inactive)
REMARK    1  A    between atoms: N_1  and  C_12
REMARK    2  A    between atoms: C_8  and  N_18
REMARK    3  A    between atoms: N_18  and  C_20
REMARK    4  A    between atoms: C_23  and  S_26
REMARK    5  A    between atoms: S_26  and  N_29
REMARK                            x       y       z     vdW  Elec       q    Type
REMARK                         _______ _______ _______ _____ _____    ______ ____
ROOT
ATOM      1  N   UNL     1      32.292  -8.452 -23.441  0.00  0.00    -0.309 N 
ATOM      2  N   UNL     1      31.739 -10.001 -21.839  0.00  0.00    -0.321 NA
ATOM      3  N   UNL     1      32.899 -12.104 -21.810  0.00  0.00    -0.106 N 
ATOM      4  N   UNL     1      32.895 -13.250 -21.078  0.00  0.00    -0.139 NA
ATOM      5  N   UNL     1      31.345 -11.796 -20.261  0.00  0.00    -0.145 NA
ATOM      6  C   UNL     1      32.468  -9.657 -22.875  0.00  0.00    +0.196 C 
ATOM      7  C   UNL     1      33.511 -10.562 -23.473  0.00  0.00    +0.081 C 
ATOM      8  C   UNL     1      33.690 -11.767 -22.911  0.00  0.00    +0.140 C 
ATOM      9  C   UNL     1      31.943 -11.229 -21.291  0.00  0.00    +0.176 C 
ATOM     10  C   UNL     1      31.952 -13.007 -20.174  0.00  0.00    +0.230 C 
ATOM     11  H   UNL     1      32.836  -8.217 -24.227  0.00  0.00    +0.149 HD
ENDROOT
BRANCH   1  12
ATOM     12  C   UNL     1      31.334  -7.482 -22.944  0.00  0.00    +0.071 C 
ATOM     13  C   UNL     1      31.966  -6.640 -21.833  0.00  0.00    +0.020 C 
ATOM     14  C   UNL     1      30.829  -6.607 -24.095  0.00  0.00    +0.020 C 
ATOM     15  C   UNL     1      33.025  -5.668 -22.356  0.00  0.00    +0.002 C 
ATOM     16  C   UNL     1      31.890  -5.635 -24.610  0.00  0.00    +0.002 C 
ATOM     17  C   UNL     1      32.480  -4.795 -23.481  0.00  0.00    +0.000 C 
ENDBRANCH   1  12
BRANCH   8  18
ATOM     18  N   UNL     1      34.598 -12.690 -23.345  0.00  0.00    -0.299 N 
ATOM     19  H   UNL     1      35.494 -12.343 -23.559  0.00  0.00    +0.153 HD
BRANCH  18  20
ATOM     20  C   UNL     1      34.417 -14.066 -23.525  0.00  0.00    +0.049 C 
ATOM     21  C   UNL     1      33.653 -14.536 -24.594  0.00  0.00    +0.016 C 
ATOM     22  C   UNL     1      35.000 -14.968 -22.635  0.00  0.00    +0.016 C 
ATOM     23  C   UNL     1      34.058 -16.810 -23.882  0.00  0.00    +0.122 C 
ATOM     24  C   UNL     1      33.474 -15.908 -24.773  0.00  0.00    +0.021 C 
ATOM     25  C   UNL     1      34.821 -16.339 -22.814  0.00  0.00    +0.021 C 
BRANCH  23  26
ATOM     26  S   UNL     1      33.832 -18.526 -24.107  0.00  0.00    +0.057 S 
ATOM     27  O   UNL     1      34.891 -19.018 -24.978  0.00  0.00    -0.153 OA
ATOM     28  O   UNL     1      33.624 -19.141 -22.803  0.00  0.00    -0.153 OA
BRANCH  26  29
ATOM     29  N   UNL     1      32.356 -18.551 -24.967  0.00  0.00    -0.203 NA
ATOM     30  H   UNL     1      32.495 -19.004 -25.869  0.00  0.00    +0.144 HD
ATOM     31  H   UNL     1      32.031 -17.595 -25.114  0.00  0.00    +0.144 HD
ENDBRANCH  26  29
ENDBRANCH  23  26
ENDBRANCH  18  20
ENDBRANCH   8  18
TORSDOF 5
ENDMDL
