MODEL 1
REMARK VINA RESULT:     -11.3      0.000      0.000
REMARK  Name = 449087
REMARK  3 active torsions:
REMARK  status: ('A' for Active; 'I' for Inactive)
REMARK    1  A    between atoms: C_5  and  C_11
REMARK    2  A    between atoms: C_8  and  C_14
REMARK    3  A    between atoms: C_14  and  C_15
REMARK                            x       y       z     vdW  Elec       q    Type
REMARK                         _______ _______ _______ _____ _____    ______ ____
ROOT
ATOM      1  O   UNL     1      35.327 -16.587 -21.153  0.00  0.00    -0.274 OA
ATOM      2  N   UNL     1      33.596 -14.243 -25.070  0.00  0.00    -0.239 N 
ATOM      3  N   UNL     1      33.995 -15.526 -25.105  0.00  0.00    -0.166 NA
ATOM      4  N   UNL     1      34.877 -16.976 -23.425  0.00  0.00    -0.268 N 
ATOM      5  C   UNL     1      33.721 -13.660 -23.843  0.00  0.00    +0.045 C 
ATOM      6  C   UNL     1      34.236 -14.629 -23.017  0.00  0.00    +0.048 C 
ATOM      7  C   UNL     1      34.378 -15.739 -23.854  0.00  0.00    +0.152 C 
ATOM      8  C   UNL     1      35.306 -17.310 -22.143  0.00  0.00    +0.232 C 
ATOM      9  H   UNL     1      33.247 -13.768 -25.858  0.00  0.00    +0.174 HD
ATOM     10  H   UNL     1      34.930 -17.687 -24.105  0.00  0.00    +0.156 HD
ENDROOT
BRANCH   5  11
ATOM     11  C   UNL     1      33.359 -12.228 -23.474  0.00  0.00    +0.037 C 
ATOM     12  C   UNL     1      34.421 -11.159 -23.545  0.00  0.00    +0.006 C 
ATOM     13  C   UNL     1      33.311 -11.179 -24.556  0.00  0.00    +0.006 C 
ENDBRANCH   5  11
BRANCH   8  14
ATOM     14  C   UNL     1      35.776 -18.761 -22.090  0.00  0.00    +0.112 C 
BRANCH  14  15
ATOM     15  C   UNL     1      35.043 -19.599 -21.096  0.00  0.00    -0.013 C 
ATOM     16  C   UNL     1      35.073 -21.080 -19.167  0.00  0.00    -0.000 C 
ATOM     17  C   UNL     1      35.748 -20.288 -20.109  0.00  0.00    -0.004 C 
ATOM     18  C   UNL     1      33.662 -21.173 -19.224  0.00  0.00    -0.000 C 
ATOM     19  C   UNL     1      33.655 -19.690 -21.152  0.00  0.00    -0.004 C 
ATOM     20  C   UNL     1      32.968 -20.472 -20.224  0.00  0.00    -0.000 C 
ATOM     21  C   UNL     1      35.768 -21.782 -18.168  0.00  0.00    -0.000 C 
ATOM     22  C   UNL     1      32.987 -21.966 -18.281  0.00  0.00    -0.000 C 
ATOM     23  C   UNL     1      35.081 -22.564 -17.239  0.00  0.00    -0.000 C 
ATOM     24  C   UNL     1      33.693 -22.656 -17.296  0.00  0.00    -0.000 C 
ENDBRANCH  14  15
ENDBRANCH   8  14
TORSDOF 3
ENDMDL
MODEL 2
REMARK VINA RESULT:     -11.2      1.051      2.150
REMARK  Name = 449087
REMARK  3 active torsions:
REMARK  status: ('A' for Active; 'I' for Inactive)
REMARK    1  A    between atoms: C_5  and  C_11
REMARK    2  A    between atoms: C_8  and  C_14
REMARK    3  A    between atoms: C_14  and  C_15
REMARK                            x       y       z     vdW  Elec       q    Type
REMARK                         _______ _______ _______ _____ _____    ______ ____
ROOT
ATOM      1  O   UNL     1      35.062 -15.891 -22.036  0.00  0.00    -0.274 OA
ATOM      2  N   UNL     1      33.284 -12.449 -25.008  0.00  0.00    -0.239 N 
ATOM      3  N   UNL     1      33.358 -13.746 -25.355  0.00  0.00    -0.166 NA
ATOM      4  N   UNL     1      34.150 -15.673 -24.190  0.00  0.00    -0.268 N 
ATOM      5  C   UNL     1      33.752 -12.187 -23.754  0.00  0.00    +0.045 C 
ATOM      6  C   UNL     1      34.158 -13.395 -23.243  0.00  0.00    +0.048 C 
ATOM      7  C   UNL     1      33.889 -14.300 -24.274  0.00  0.00    +0.152 C 
ATOM      8  C   UNL     1      34.702 -16.359 -23.110  0.00  0.00    +0.232 C 
ATOM      9  H   UNL     1      32.927 -11.753 -25.605  0.00  0.00    +0.174 HD
ATOM     10  H   UNL     1      33.917 -16.213 -24.979  0.00  0.00    +0.156 HD
ENDROOT
BRANCH   5  11
ATOM     11  C   UNL     1      33.805 -10.829 -23.067  0.00  0.00    +0.037 C 
ATOM     12  C   UNL     1      34.511  -9.685 -23.752  0.00  0.00    +0.006 C 
ATOM     13  C   UNL     1      33.014  -9.681 -23.643  0.00  0.00    +0.006 C 
ENDBRANCH   5  11
BRANCH   8  14
ATOM     14  C   UNL     1      34.819 -17.849 -23.418  0.00  0.00    +0.112 C 
BRANCH  14  15
ATOM     15  C   UNL     1      35.203 -18.682 -22.240  0.00  0.00    -0.013 C 
ATOM     16  C   UNL     1      34.580 -20.215 -20.458  0.00  0.00    -0.000 C 
ATOM     17  C   UNL     1      34.235 -19.427 -21.568  0.00  0.00    -0.004 C 
ATOM     18  C   UNL     1      35.927 -20.250 -20.026  0.00  0.00    -0.000 C 
ATOM     19  C   UNL     1      36.528 -18.716 -21.815  0.00  0.00    -0.004 C 
ATOM     20  C   UNL     1      36.889 -19.494 -20.715  0.00  0.00    -0.000 C 
ATOM     21  C   UNL     1      33.617 -20.971 -19.768  0.00  0.00    -0.000 C 
ATOM     22  C   UNL     1      36.272 -21.039 -18.916  0.00  0.00    -0.000 C 
ATOM     23  C   UNL     1      33.978 -21.749 -18.668  0.00  0.00    -0.000 C 
ATOM     24  C   UNL     1      35.303 -21.783 -18.243  0.00  0.00    -0.000 C 
ENDBRANCH  14  15
ENDBRANCH   8  14
TORSDOF 3
ENDMDL
MODEL 3
REMARK VINA RESULT:     -10.9      2.491      9.718
REMARK  Name = 449087
REMARK  3 active torsions:
REMARK  status: ('A' for Active; 'I' for Inactive)
REMARK    1  A    between atoms: C_5  and  C_11
REMARK    2  A    between atoms: C_8  and  C_14
REMARK    3  A    between atoms: C_14  and  C_15
REMARK                            x       y       z     vdW  Elec       q    Type
REMARK                         _______ _______ _______ _____ _____    ______ ____
ROOT
ATOM      1  O   UNL     1      34.541 -13.463 -22.965  0.00  0.00    -0.274 OA
ATOM      2  N   UNL     1      34.422 -18.194 -24.165  0.00  0.00    -0.239 N 
ATOM      3  N   UNL     1      33.790 -17.244 -24.877  0.00  0.00    -0.166 NA
ATOM      4  N   UNL     1      33.627 -14.879 -24.602  0.00  0.00    -0.268 N 
ATOM      5  C   UNL     1      35.094 -17.713 -23.080  0.00  0.00    +0.045 C 
ATOM      6  C   UNL     1      34.891 -16.355 -23.083  0.00  0.00    +0.048 C 
ATOM      7  C   UNL     1      34.087 -16.140 -24.205  0.00  0.00    +0.152 C 
ATOM      8  C   UNL     1      33.876 -13.659 -23.976  0.00  0.00    +0.232 C 
ATOM      9  H   UNL     1      34.399 -19.148 -24.404  0.00  0.00    +0.174 HD
ATOM     10  H   UNL     1      33.068 -14.850 -25.412  0.00  0.00    +0.156 HD
ENDROOT
BRANCH   5  11
ATOM     11  C   UNL     1      35.905 -18.524 -22.078  0.00  0.00    +0.037 C 
ATOM     12  C   UNL     1      35.800 -18.196 -20.609  0.00  0.00    +0.006 C 
ATOM     13  C   UNL     1      35.189 -19.461 -21.139  0.00  0.00    +0.006 C 
ENDBRANCH   5  11
BRANCH   8  14
ATOM     14  C   UNL     1      33.195 -12.517 -24.725  0.00  0.00    +0.112 C 
BRANCH  14  15
ATOM     15  C   UNL     1      33.625 -11.159 -24.279  0.00  0.00    -0.013 C 
ATOM     16  C   UNL     1      33.304  -9.216 -22.852  0.00  0.00    -0.000 C 
ATOM     17  C   UNL     1      32.912 -10.494 -23.282  0.00  0.00    -0.004 C 
ATOM     18  C   UNL     1      34.437  -8.605 -23.440  0.00  0.00    -0.000 C 
ATOM     19  C   UNL     1      34.739 -10.558 -24.858  0.00  0.00    -0.004 C 
ATOM     20  C   UNL     1      35.143  -9.290 -24.442  0.00  0.00    -0.000 C 
ATOM     21  C   UNL     1      32.597  -8.532 -21.849  0.00  0.00    -0.000 C 
ATOM     22  C   UNL     1      34.829  -7.327 -23.008  0.00  0.00    -0.000 C 
ATOM     23  C   UNL     1      33.001  -7.263 -21.434  0.00  0.00    -0.000 C 
ATOM     24  C   UNL     1      34.115  -6.662 -22.012  0.00  0.00    -0.000 C 
ENDBRANCH  14  15
ENDBRANCH   8  14
TORSDOF 3
ENDMDL
MODEL 4
REMARK VINA RESULT:     -10.6      1.694      2.887
REMARK  Name = 449087
REMARK  3 active torsions:
REMARK  status: ('A' for Active; 'I' for Inactive)
REMARK    1  A    between atoms: C_5  and  C_11
REMARK    2  A    between atoms: C_8  and  C_14
REMARK    3  A    between atoms: C_14  and  C_15
REMARK                            x       y       z     vdW  Elec       q    Type
REMARK                         _______ _______ _______ _____ _____    ______ ____
ROOT
ATOM      1  O   UNL     1      36.466 -18.458 -20.072  0.00  0.00    -0.274 OA
ATOM      2  N   UNL     1      34.147 -17.634 -24.288  0.00  0.00    -0.239 N 
ATOM      3  N   UNL     1      34.294 -18.863 -23.765  0.00  0.00    -0.166 NA
ATOM      4  N   UNL     1      35.345 -19.637 -21.766  0.00  0.00    -0.268 N 
ATOM      5  C   UNL     1      34.704 -16.643 -23.534  0.00  0.00    +0.045 C 
ATOM      6  C   UNL     1      35.253 -17.266 -22.441  0.00  0.00    +0.048 C 
ATOM      7  C   UNL     1      34.966 -18.618 -22.649  0.00  0.00    +0.152 C 
ATOM      8  C   UNL     1      36.048 -19.496 -20.572  0.00  0.00    +0.232 C 
ATOM      9  H   UNL     1      33.680 -17.464 -25.138  0.00  0.00    +0.174 HD
ATOM     10  H   UNL     1      35.085 -20.554 -22.016  0.00  0.00    +0.156 HD
ENDROOT
BRANCH   5  11
ATOM     11  C   UNL     1      34.709 -15.153 -23.848  0.00  0.00    +0.037 C 
ATOM     12  C   UNL     1      33.411 -14.386 -23.794  0.00  0.00    +0.006 C 
ATOM     13  C   UNL     1      34.453 -14.166 -22.736  0.00  0.00    +0.006 C 
ENDBRANCH   5  11
BRANCH   8  14
ATOM     14  C   UNL     1      36.259 -20.852 -19.904  0.00  0.00    +0.112 C 
BRANCH  14  15
ATOM     15  C   UNL     1      35.089 -21.322 -19.105  0.00  0.00    -0.013 C 
ATOM     16  C   UNL     1      34.202 -22.459 -17.146  0.00  0.00    -0.000 C 
ATOM     17  C   UNL     1      35.293 -22.010 -17.909  0.00  0.00    -0.004 C 
ATOM     18  C   UNL     1      32.887 -22.204 -17.601  0.00  0.00    -0.000 C 
ATOM     19  C   UNL     1      33.795 -21.071 -19.553  0.00  0.00    -0.004 C 
ATOM     20  C   UNL     1      32.701 -21.508 -18.807  0.00  0.00    -0.000 C 
ATOM     21  C   UNL     1      34.389 -23.155 -15.940  0.00  0.00    -0.000 C 
ATOM     22  C   UNL     1      31.796 -22.652 -16.838  0.00  0.00    -0.000 C 
ATOM     23  C   UNL     1      33.294 -23.593 -15.195  0.00  0.00    -0.000 C 
ATOM     24  C   UNL     1      32.000 -23.342 -15.642  0.00  0.00    -0.000 C 
ENDBRANCH  14  15
ENDBRANCH   8  14
TORSDOF 3
ENDMDL
MODEL 5
REMARK VINA RESULT:     -10.5      2.713      8.460
REMARK  Name = 449087
REMARK  3 active torsions:
REMARK  status: ('A' for Active; 'I' for Inactive)
REMARK    1  A    between atoms: C_5  and  C_11
REMARK    2  A    between atoms: C_8  and  C_14
REMARK    3  A    between atoms: C_14  and  C_15
REMARK                            x       y       z     vdW  Elec       q    Type
REMARK                         _______ _______ _______ _____ _____    ______ ____
ROOT
ATOM      1  O   UNL     1      34.154 -19.675 -21.773  0.00  0.00    -0.274 OA
ATOM      2  N   UNL     1      35.694 -21.974 -17.751  0.00  0.00    -0.239 N 
ATOM      3  N   UNL     1      36.460 -21.107 -18.434  0.00  0.00    -0.166 NA
ATOM      4  N   UNL     1      36.056 -19.818 -20.402  0.00  0.00    -0.268 N 
ATOM      5  C   UNL     1      34.452 -22.152 -18.286  0.00  0.00    +0.045 C 
ATOM      6  C   UNL     1      34.400 -21.344 -19.394  0.00  0.00    +0.048 C 
ATOM      7  C   UNL     1      35.659 -20.738 -19.424  0.00  0.00    +0.152 C 
ATOM      8  C   UNL     1      35.302 -19.360 -21.480  0.00  0.00    +0.232 C 
ATOM      9  H   UNL     1      36.001 -22.440 -16.940  0.00  0.00    +0.174 HD
ATOM     10  H   UNL     1      36.968 -19.455 -20.319  0.00  0.00    +0.156 HD
ENDROOT
BRANCH   5  11
ATOM     11  C   UNL     1      33.352 -23.061 -17.753  0.00  0.00    +0.037 C 
ATOM     12  C   UNL     1      33.169 -23.199 -16.262  0.00  0.00    +0.006 C 
ATOM     13  C   UNL     1      32.155 -22.447 -17.073  0.00  0.00    +0.006 C 
ENDBRANCH   5  11
BRANCH   8  14
ATOM     14  C   UNL     1      36.099 -18.360 -22.314  0.00  0.00    +0.112 C 
BRANCH  14  15
ATOM     15  C   UNL     1      35.348 -17.113 -22.644  0.00  0.00    -0.013 C 
ATOM     16  C   UNL     1      34.366 -15.003 -21.939  0.00  0.00    -0.000 C 
ATOM     17  C   UNL     1      35.071 -16.181 -21.644  0.00  0.00    -0.004 C 
ATOM     18  C   UNL     1      33.938 -14.766 -23.266  0.00  0.00    -0.000 C 
ATOM     19  C   UNL     1      34.928 -16.880 -23.950  0.00  0.00    -0.004 C 
ATOM     20  C   UNL     1      34.227 -15.715 -24.260  0.00  0.00    -0.000 C 
ATOM     21  C   UNL     1      34.076 -14.054 -20.944  0.00  0.00    -0.000 C 
ATOM     22  C   UNL     1      33.233 -13.587 -23.561  0.00  0.00    -0.000 C 
ATOM     23  C   UNL     1      33.375 -12.889 -21.254  0.00  0.00    -0.000 C 
ATOM     24  C   UNL     1      32.954 -12.656 -22.560  0.00  0.00    -0.000 C 
ENDBRANCH  14  15
ENDBRANCH   8  14
TORSDOF 3
ENDMDL
MODEL 6
REMARK VINA RESULT:     -10.3      3.756      8.917
REMARK  Name = 449087
REMARK  3 active torsions:
REMARK  status: ('A' for Active; 'I' for Inactive)
REMARK    1  A    between atoms: C_5  and  C_11
REMARK    2  A    between atoms: C_8  and  C_14
REMARK    3  A    between atoms: C_14  and  C_15
REMARK                            x       y       z     vdW  Elec       q    Type
REMARK                         _______ _______ _______ _____ _____    ______ ____
ROOT
ATOM      1  O   UNL     1      33.443 -20.673 -19.845  0.00  0.00    -0.274 OA
ATOM      2  N   UNL     1      33.782 -23.615 -15.963  0.00  0.00    -0.239 N 
ATOM      3  N   UNL     1      34.857 -23.121 -16.600  0.00  0.00    -0.166 NA
ATOM      4  N   UNL     1      35.078 -21.682 -18.492  0.00  0.00    -0.268 N 
ATOM      5  C   UNL     1      32.592 -23.220 -16.502  0.00  0.00    +0.045 C 
ATOM      6  C   UNL     1      32.911 -22.410 -17.564  0.00  0.00    +0.048 C 
ATOM      7  C   UNL     1      34.309 -22.395 -17.565  0.00  0.00    +0.152 C 
ATOM      8  C   UNL     1      34.610 -20.892 -19.540  0.00  0.00    +0.232 C 
ATOM      9  H   UNL     1      33.846 -24.208 -15.181  0.00  0.00    +0.174 HD
ATOM     10  H   UNL     1      36.055 -21.745 -18.393  0.00  0.00    +0.156 HD
ENDROOT
BRANCH   5  11
ATOM     11  C   UNL     1      31.201 -23.602 -16.017  0.00  0.00    +0.037 C 
ATOM     12  C   UNL     1      30.658 -22.962 -14.763  0.00  0.00    +0.006 C 
ATOM     13  C   UNL     1      30.088 -22.587 -16.100  0.00  0.00    +0.006 C 
ENDBRANCH   5  11
BRANCH   8  14
ATOM     14  C   UNL     1      35.773 -20.283 -20.320  0.00  0.00    +0.112 C 
BRANCH  14  15
ATOM     15  C   UNL     1      35.352 -19.339 -21.396  0.00  0.00    -0.013 C 
ATOM     16  C   UNL     1      34.994 -17.062 -22.172  0.00  0.00    -0.000 C 
ATOM     17  C   UNL     1      35.387 -17.963 -21.169  0.00  0.00    -0.004 C 
ATOM     18  C   UNL     1      34.561 -17.563 -23.422  0.00  0.00    -0.000 C 
ATOM     19  C   UNL     1      34.926 -19.832 -22.626  0.00  0.00    -0.004 C 
ATOM     20  C   UNL     1      34.533 -18.951 -23.633  0.00  0.00    -0.000 C 
ATOM     21  C   UNL     1      35.021 -15.673 -21.960  0.00  0.00    -0.000 C 
ATOM     22  C   UNL     1      34.168 -16.660 -24.425  0.00  0.00    -0.000 C 
ATOM     23  C   UNL     1      34.627 -14.792 -22.967  0.00  0.00    -0.000 C 
ATOM     24  C   UNL     1      34.201 -15.285 -24.197  0.00  0.00    -0.000 C 
ENDBRANCH  14  15
ENDBRANCH   8  14
TORSDOF 3
ENDMDL
MODEL 7
REMARK VINA RESULT:     -10.2      2.803      9.590
REMARK  Name = 449087
REMARK  3 active torsions:
REMARK  status: ('A' for Active; 'I' for Inactive)
REMARK    1  A    between atoms: C_5  and  C_11
REMARK    2  A    between atoms: C_8  and  C_14
REMARK    3  A    between atoms: C_14  and  C_15
REMARK                            x       y       z     vdW  Elec       q    Type
REMARK                         _______ _______ _______ _____ _____    ______ ____
ROOT
ATOM      1  O   UNL     1      34.669 -13.180 -22.498  0.00  0.00    -0.274 OA
ATOM      2  N   UNL     1      34.397 -17.701 -24.321  0.00  0.00    -0.239 N 
ATOM      3  N   UNL     1      33.845 -16.636 -24.927  0.00  0.00    -0.166 NA
ATOM      4  N   UNL     1      33.775 -14.321 -24.347  0.00  0.00    -0.268 N 
ATOM      5  C   UNL     1      35.037 -17.402 -23.154  0.00  0.00    +0.045 C 
ATOM      6  C   UNL     1      34.895 -16.046 -22.985  0.00  0.00    +0.048 C 
ATOM      7  C   UNL     1      34.157 -15.646 -24.102  0.00  0.00    +0.152 C 
ATOM      8  C   UNL     1      34.047 -13.209 -23.554  0.00  0.00    +0.232 C 
ATOM      9  H   UNL     1      34.344 -18.614 -24.686  0.00  0.00    +0.174 HD
ATOM     10  H   UNL     1      33.258 -14.158 -25.169  0.00  0.00    +0.156 HD
ENDROOT
BRANCH   5  11
ATOM     11  C   UNL     1      35.760 -18.377 -22.235  0.00  0.00    +0.037 C 
ATOM     12  C   UNL     1      35.478 -18.339 -20.754  0.00  0.00    +0.006 C 
ATOM     13  C   UNL     1      34.979 -19.488 -21.581  0.00  0.00    +0.006 C 
ENDBRANCH   5  11
BRANCH   8  14
ATOM     14  C   UNL     1      33.455 -11.945 -24.173  0.00  0.00    +0.112 C 
BRANCH  14  15
ATOM     15  C   UNL     1      33.054 -10.912 -23.173  0.00  0.00    -0.013 C 
ATOM     16  C   UNL     1      33.147  -8.618 -22.369  0.00  0.00    -0.000 C 
ATOM     17  C   UNL     1      33.516  -9.602 -23.302  0.00  0.00    -0.004 C 
ATOM     18  C   UNL     1      32.297  -8.968 -21.293  0.00  0.00    -0.000 C 
ATOM     19  C   UNL     1      32.218 -11.256 -22.115  0.00  0.00    -0.004 C 
ATOM     20  C   UNL     1      31.842 -10.292 -21.181  0.00  0.00    -0.000 C 
ATOM     21  C   UNL     1      33.604  -7.294 -22.482  0.00  0.00    -0.000 C 
ATOM     22  C   UNL     1      31.929  -7.984 -20.361  0.00  0.00    -0.000 C 
ATOM     23  C   UNL     1      33.227  -6.330 -21.547  0.00  0.00    -0.000 C 
ATOM     24  C   UNL     1      32.392  -6.674 -20.488  0.00  0.00    -0.000 C 
ENDBRANCH  14  15
ENDBRANCH   8  14
TORSDOF 3
ENDMDL
MODEL 8
REMARK VINA RESULT:     -10.2      2.206      8.087
REMARK  Name = 449087
REMARK  3 active torsions:
REMARK  status: ('A' for Active; 'I' for Inactive)
REMARK    1  A    between atoms: C_5  and  C_11
REMARK    2  A    between atoms: C_8  and  C_14
REMARK    3  A    between atoms: C_14  and  C_15
REMARK                            x       y       z     vdW  Elec       q    Type
REMARK                         _______ _______ _______ _____ _____    ______ ____
ROOT
ATOM      1  O   UNL     1      34.097 -18.152 -23.275  0.00  0.00    -0.274 OA
ATOM      2  N   UNL     1      36.670 -19.893 -19.508  0.00  0.00    -0.239 N 
ATOM      3  N   UNL     1      36.993 -18.756 -20.149  0.00  0.00    -0.166 NA
ATOM      4  N   UNL     1      35.992 -17.617 -21.992  0.00  0.00    -0.268 N 
ATOM      5  C   UNL     1      35.562 -20.512 -20.008  0.00  0.00    +0.045 C 
ATOM      6  C   UNL     1      35.128 -19.725 -21.046  0.00  0.00    +0.048 C 
ATOM      7  C   UNL     1      36.048 -18.673 -21.075  0.00  0.00    +0.152 C 
ATOM      8  C   UNL     1      35.050 -17.430 -23.001  0.00  0.00    +0.232 C 
ATOM      9  H   UNL     1      37.186 -20.246 -18.748  0.00  0.00    +0.174 HD
ATOM     10  H   UNL     1      36.694 -16.931 -21.915  0.00  0.00    +0.156 HD
ENDROOT
BRANCH   5  11
ATOM     11  C   UNL     1      34.939 -21.808 -19.508  0.00  0.00    +0.037 C 
ATOM     12  C   UNL     1      34.755 -22.011 -18.024  0.00  0.00    +0.006 C 
ATOM     13  C   UNL     1      33.559 -21.775 -18.900  0.00  0.00    +0.006 C 
ENDBRANCH   5  11
BRANCH   8  14
ATOM     14  C   UNL     1      35.339 -16.151 -23.783  0.00  0.00    +0.112 C 
BRANCH  14  15
ATOM     15  C   UNL     1      34.482 -14.994 -23.390  0.00  0.00    -0.013 C 
ATOM     16  C   UNL     1      33.350 -13.708 -21.664  0.00  0.00    -0.000 C 
ATOM     17  C   UNL     1      34.155 -14.792 -22.049  0.00  0.00    -0.004 C 
ATOM     18  C   UNL     1      32.870 -12.816 -22.652  0.00  0.00    -0.000 C 
ATOM     19  C   UNL     1      34.010 -14.117 -24.362  0.00  0.00    -0.004 C 
ATOM     20  C   UNL     1      33.210 -13.035 -23.997  0.00  0.00    -0.000 C 
ATOM     21  C   UNL     1      33.010 -13.490 -20.318  0.00  0.00    -0.000 C 
ATOM     22  C   UNL     1      32.064 -11.732 -22.266  0.00  0.00    -0.000 C 
ATOM     23  C   UNL     1      32.208 -12.408 -19.953  0.00  0.00    -0.000 C 
ATOM     24  C   UNL     1      31.737 -11.531 -20.925  0.00  0.00    -0.000 C 
ENDBRANCH  14  15
ENDBRANCH   8  14
TORSDOF 3
ENDMDL
MODEL 9
REMARK VINA RESULT:      -9.9      5.735     10.410
REMARK  Name = 449087
REMARK  3 active torsions:
REMARK  status: ('A' for Active; 'I' for Inactive)
REMARK    1  A    between atoms: C_5  and  C_11
REMARK    2  A    between atoms: C_8  and  C_14
REMARK    3  A    between atoms: C_14  and  C_15
REMARK                            x       y       z     vdW  Elec       q    Type
REMARK                         _______ _______ _______ _____ _____    ______ ____
ROOT
ATOM      1  O   UNL     1      35.715 -22.620 -16.835  0.00  0.00    -0.274 OA
ATOM      2  N   UNL     1      34.630 -23.853 -12.237  0.00  0.00    -0.239 N 
ATOM      3  N   UNL     1      33.708 -23.789 -13.212  0.00  0.00    -0.166 NA
ATOM      4  N   UNL     1      33.862 -23.237 -15.530  0.00  0.00    -0.268 N 
ATOM      5  C   UNL     1      35.892 -23.540 -12.651  0.00  0.00    +0.045 C 
ATOM      6  C   UNL     1      35.789 -23.254 -13.990  0.00  0.00    +0.048 C 
ATOM      7  C   UNL     1      34.429 -23.426 -14.263  0.00  0.00    +0.152 C 
ATOM      8  C   UNL     1      34.520 -22.858 -16.697  0.00  0.00    +0.232 C 
ATOM      9  H   UNL     1      34.415 -24.101 -11.309  0.00  0.00    +0.174 HD
ATOM     10  H   UNL     1      32.891 -23.388 -15.603  0.00  0.00    +0.156 HD
ENDROOT
BRANCH   5  11
ATOM     11  C   UNL     1      37.152 -23.519 -11.796  0.00  0.00    +0.037 C 
ATOM     12  C   UNL     1      37.481 -24.717 -10.941  0.00  0.00    +0.006 C 
ATOM     13  C   UNL     1      38.304 -24.421 -12.161  0.00  0.00    +0.006 C 
ENDBRANCH   5  11
BRANCH   8  14
ATOM     14  C   UNL     1      33.542 -22.764 -17.865  0.00  0.00    +0.112 C 
BRANCH  14  15
ATOM     15  C   UNL     1      33.879 -21.698 -18.854  0.00  0.00    -0.013 C 
ATOM     16  C   UNL     1      35.540 -20.304 -19.955  0.00  0.00    -0.000 C 
ATOM     17  C   UNL     1      35.206 -21.306 -19.029  0.00  0.00    -0.004 C 
ATOM     18  C   UNL     1      34.514 -19.694 -20.715  0.00  0.00    -0.000 C 
ATOM     19  C   UNL     1      32.870 -21.099 -19.601  0.00  0.00    -0.004 C 
ATOM     20  C   UNL     1      33.184 -20.103 -20.526  0.00  0.00    -0.000 C 
ATOM     21  C   UNL     1      36.870 -19.895 -20.144  0.00  0.00    -0.000 C 
ATOM     22  C   UNL     1      34.848 -18.692 -21.642  0.00  0.00    -0.000 C 
ATOM     23  C   UNL     1      37.184 -18.898 -21.069  0.00  0.00    -0.000 C 
ATOM     24  C   UNL     1      36.175 -18.298 -21.816  0.00  0.00    -0.000 C 
ENDBRANCH  14  15
ENDBRANCH   8  14
TORSDOF 3
ENDMDL
