MODEL 1
REMARK VINA RESULT:     -11.6      0.000      0.000
REMARK  Name = 24748573
REMARK  3 active torsions:
REMARK  status: ('A' for Active; 'I' for Inactive)
REMARK    1  A    between atoms: N_2  and  C_18
REMARK    2  A    between atoms: C_13  and  C_25
REMARK    3  A    between atoms: C_25  and  O_26
REMARK                            x       y       z     vdW  Elec       q    Type
REMARK                         _______ _______ _______ _____ _____    ______ ____
ROOT
ATOM      1  N   UNL     1      34.391 -22.988 -16.560  0.00  0.00    -0.391 NA
ATOM      2  N   UNL     1      32.683 -22.367 -18.048  0.00  0.00    -0.288 N 
ATOM      3  N   UNL     1      30.143 -23.761 -13.914  0.00  0.00    -0.243 NA
ATOM      4  C   UNL     1      33.908 -23.780 -14.327  0.00  0.00    +0.098 C 
ATOM      5  C   UNL     1      32.506 -23.624 -14.580  0.00  0.00    +0.011 C 
ATOM      6  C   UNL     1      32.085 -23.148 -15.834  0.00  0.00    +0.044 C 
ATOM      7  C   UNL     1      34.805 -23.441 -15.367  0.00  0.00    +0.119 C 
ATOM      8  C   UNL     1      33.064 -22.851 -16.771  0.00  0.00    +0.183 C 
ATOM      9  C   UNL     1      34.448 -24.250 -13.105  0.00  0.00    -0.015 C 
ATOM     10  C   UNL     1      36.174 -23.582 -15.155  0.00  0.00    +0.035 C 
ATOM     11  C   UNL     1      30.722 -22.982 -16.118  0.00  0.00    +0.024 C 
ATOM     12  C   UNL     1      31.468 -23.909 -13.671  0.00  0.00    +0.095 C 
ATOM     13  C   UNL     1      36.687 -24.046 -13.945  0.00  0.00    +0.077 C 
ATOM     14  C   UNL     1      35.822 -24.381 -12.917  0.00  0.00    +0.003 C 
ATOM     15  C   UNL     1      29.805 -23.301 -15.134  0.00  0.00    +0.099 C 
ATOM     16  H   UNL     1      31.806 -22.696 -18.352  0.00  0.00    +0.155 HD
ENDROOT
BRANCH   2  18
ATOM     17 CL   UNL     1      37.047 -20.393 -19.870  0.00  0.00    -0.082 Cl
ATOM     18  C   UNL     1      33.315 -21.511 -18.963  0.00  0.00    +0.051 C 
ATOM     19  C   UNL     1      34.705 -21.389 -18.960  0.00  0.00    +0.026 C 
ATOM     20  C   UNL     1      32.553 -20.784 -19.878  0.00  0.00    +0.015 C 
ATOM     21  C   UNL     1      35.332 -20.542 -19.872  0.00  0.00    +0.059 C 
ATOM     22  C   UNL     1      33.181 -19.936 -20.790  0.00  0.00    +0.002 C 
ATOM     23  C   UNL     1      34.571 -19.815 -20.787  0.00  0.00    +0.011 C 
ENDBRANCH   2  18
BRANCH  13  25
ATOM     24  O   UNL     1      38.692 -24.407 -12.691  0.00  0.00    -0.245 OA
ATOM     25  C   UNL     1      38.124 -24.177 -13.763  0.00  0.00    +0.338 C 
BRANCH  25  26
ATOM     26  O   UNL     1      38.813 -24.017 -14.927  0.00  0.00    -0.477 OA
ATOM     27  H   UNL     1      38.349 -23.912 -15.735  0.00  0.00    +0.295 HD
ENDBRANCH  25  26
ENDBRANCH  13  25
TORSDOF 3
ENDMDL
MODEL 2
REMARK VINA RESULT:     -11.4      1.262      1.804
REMARK  Name = 24748573
REMARK  3 active torsions:
REMARK  status: ('A' for Active; 'I' for Inactive)
REMARK    1  A    between atoms: N_2  and  C_18
REMARK    2  A    between atoms: C_13  and  C_25
REMARK    3  A    between atoms: C_25  and  O_26
REMARK                            x       y       z     vdW  Elec       q    Type
REMARK                         _______ _______ _______ _____ _____    ______ ____
ROOT
ATOM      1  N   UNL     1      35.083 -23.128 -15.727  0.00  0.00    -0.391 NA
ATOM      2  N   UNL     1      33.691 -22.690 -17.566  0.00  0.00    -0.288 N 
ATOM      3  N   UNL     1      30.414 -23.843 -13.904  0.00  0.00    -0.243 NA
ATOM      4  C   UNL     1      34.186 -23.757 -13.572  0.00  0.00    +0.098 C 
ATOM      5  C   UNL     1      32.859 -23.674 -14.105  0.00  0.00    +0.011 C 
ATOM      6  C   UNL     1      32.683 -23.314 -15.454  0.00  0.00    +0.044 C 
ATOM      7  C   UNL     1      35.263 -23.470 -14.442  0.00  0.00    +0.119 C 
ATOM      8  C   UNL     1      33.822 -23.057 -16.203  0.00  0.00    +0.183 C 
ATOM      9  C   UNL     1      34.483 -24.109 -12.232  0.00  0.00    -0.015 C 
ATOM     10  C   UNL     1      36.566 -23.543 -13.956  0.00  0.00    +0.035 C 
ATOM     11  C   UNL     1      31.401 -23.221 -16.010  0.00  0.00    +0.024 C 
ATOM     12  C   UNL     1      31.668 -23.923 -13.396  0.00  0.00    +0.095 C 
ATOM     13  C   UNL     1      36.840 -23.891 -12.634  0.00  0.00    +0.077 C 
ATOM     14  C   UNL     1      35.796 -24.175 -11.770  0.00  0.00    +0.003 C 
ATOM     15  C   UNL     1      30.314 -23.494 -15.201  0.00  0.00    +0.099 C 
ATOM     16  H   UNL     1      32.898 -23.073 -18.006  0.00  0.00    +0.155 HD
ENDROOT
BRANCH   2  18
ATOM     17 CL   UNL     1      33.911 -19.508 -21.577  0.00  0.00    -0.082 Cl
ATOM     18  C   UNL     1      34.473 -21.887 -18.410  0.00  0.00    +0.051 C 
ATOM     19  C   UNL     1      33.873 -21.181 -19.454  0.00  0.00    +0.026 C 
ATOM     20  C   UNL     1      35.849 -21.790 -18.203  0.00  0.00    +0.015 C 
ATOM     21  C   UNL     1      34.650 -20.379 -20.290  0.00  0.00    +0.059 C 
ATOM     22  C   UNL     1      36.626 -20.989 -19.040  0.00  0.00    +0.002 C 
ATOM     23  C   UNL     1      36.026 -20.283 -20.083  0.00  0.00    +0.011 C 
ENDBRANCH   2  18
BRANCH  13  25
ATOM     24  O   UNL     1      39.099 -24.677 -12.636  0.00  0.00    -0.245 OA
ATOM     25  C   UNL     1      38.215 -23.954 -12.166  0.00  0.00    +0.338 C 
BRANCH  25  26
ATOM     26  O   UNL     1      38.449 -23.111 -11.123  0.00  0.00    -0.477 OA
ATOM     27  H   UNL     1      38.101 -23.306 -10.275  0.00  0.00    +0.295 HD
ENDBRANCH  25  26
ENDBRANCH  13  25
TORSDOF 3
ENDMDL
MODEL 3
REMARK VINA RESULT:     -10.8      3.047      6.232
REMARK  Name = 24748573
REMARK  3 active torsions:
REMARK  status: ('A' for Active; 'I' for Inactive)
REMARK    1  A    between atoms: N_2  and  C_18
REMARK    2  A    between atoms: C_13  and  C_25
REMARK    3  A    between atoms: C_25  and  O_26
REMARK                            x       y       z     vdW  Elec       q    Type
REMARK                         _______ _______ _______ _____ _____    ______ ____
ROOT
ATOM      1  N   UNL     1      35.096 -23.484 -15.623  0.00  0.00    -0.391 NA
ATOM      2  N   UNL     1      35.216 -24.716 -13.627  0.00  0.00    -0.288 N 
ATOM      3  N   UNL     1      30.247 -24.184 -14.341  0.00  0.00    -0.243 NA
ATOM      4  C   UNL     1      32.978 -22.844 -16.598  0.00  0.00    +0.098 C 
ATOM      5  C   UNL     1      32.291 -23.495 -15.522  0.00  0.00    +0.011 C 
ATOM      6  C   UNL     1      33.040 -24.129 -14.515  0.00  0.00    +0.044 C 
ATOM      7  C   UNL     1      34.392 -22.875 -16.589  0.00  0.00    +0.119 C 
ATOM      8  C   UNL     1      34.423 -24.088 -14.621  0.00  0.00    +0.183 C 
ATOM      9  C   UNL     1      32.330 -22.175 -17.665  0.00  0.00    -0.015 C 
ATOM     10  C   UNL     1      35.091 -22.252 -17.620  0.00  0.00    +0.035 C 
ATOM     11  C   UNL     1      32.403 -24.775 -13.447  0.00  0.00    +0.024 C 
ATOM     12  C   UNL     1      30.894 -23.568 -15.361  0.00  0.00    +0.095 C 
ATOM     13  C   UNL     1      34.436 -21.598 -18.662  0.00  0.00    +0.077 C 
ATOM     14  C   UNL     1      33.052 -21.559 -18.685  0.00  0.00    +0.003 C 
ATOM     15  C   UNL     1      31.022 -24.772 -13.409  0.00  0.00    +0.099 C 
ATOM     16  H   UNL     1      34.799 -24.729 -12.735  0.00  0.00    +0.155 HD
ENDROOT
BRANCH   2  18
ATOM     17 CL   UNL     1      38.285 -28.257 -15.700  0.00  0.00    -0.082 Cl
ATOM     18  C   UNL     1      36.481 -25.321 -13.669  0.00  0.00    +0.051 C 
ATOM     19  C   UNL     1      36.725 -26.368 -14.558  0.00  0.00    +0.026 C 
ATOM     20  C   UNL     1      37.497 -24.874 -12.823  0.00  0.00    +0.015 C 
ATOM     21  C   UNL     1      37.984 -26.967 -14.603  0.00  0.00    +0.059 C 
ATOM     22  C   UNL     1      38.756 -25.473 -12.868  0.00  0.00    +0.002 C 
ATOM     23  C   UNL     1      38.999 -26.519 -13.758  0.00  0.00    +0.011 C 
ENDBRANCH   2  18
BRANCH  13  25
ATOM     24  O   UNL     1      34.746 -20.194 -20.575  0.00  0.00    -0.245 OA
ATOM     25  C   UNL     1      35.203 -20.961 -19.720  0.00  0.00    +0.338 C 
BRANCH  25  26
ATOM     26  O   UNL     1      36.522 -21.297 -19.682  0.00  0.00    -0.477 OA
ATOM     27  H   UNL     1      37.106 -20.836 -19.113  0.00  0.00    +0.295 HD
ENDBRANCH  25  26
ENDBRANCH  13  25
TORSDOF 3
ENDMDL
MODEL 4
REMARK VINA RESULT:     -10.3      3.698      6.982
REMARK  Name = 24748573
REMARK  3 active torsions:
REMARK  status: ('A' for Active; 'I' for Inactive)
REMARK    1  A    between atoms: N_2  and  C_18
REMARK    2  A    between atoms: C_13  and  C_25
REMARK    3  A    between atoms: C_25  and  O_26
REMARK                            x       y       z     vdW  Elec       q    Type
REMARK                         _______ _______ _______ _____ _____    ______ ____
ROOT
ATOM      1  N   UNL     1      33.731 -22.712 -16.981  0.00  0.00    -0.391 NA
ATOM      2  N   UNL     1      33.564 -24.014 -15.034  0.00  0.00    -0.288 N 
ATOM      3  N   UNL     1      38.474 -22.857 -15.214  0.00  0.00    -0.243 NA
ATOM      4  C   UNL     1      35.839 -21.786 -17.716  0.00  0.00    +0.098 C 
ATOM      5  C   UNL     1      36.490 -22.383 -16.587  0.00  0.00    +0.011 C 
ATOM      6  C   UNL     1      35.728 -23.137 -15.677  0.00  0.00    +0.044 C 
ATOM      7  C   UNL     1      34.447 -21.990 -17.856  0.00  0.00    +0.119 C 
ATOM      8  C   UNL     1      34.369 -23.263 -15.927  0.00  0.00    +0.183 C 
ATOM      9  C   UNL     1      36.503 -21.008 -18.696  0.00  0.00    -0.015 C 
ATOM     10  C   UNL     1      33.784 -21.425 -18.943  0.00  0.00    +0.035 C 
ATOM     11  C   UNL     1      36.329 -23.736 -14.562  0.00  0.00    +0.024 C 
ATOM     12  C   UNL     1      37.862 -22.291 -16.283  0.00  0.00    +0.095 C 
ATOM     13  C   UNL     1      34.454 -20.662 -19.897  0.00  0.00    +0.077 C 
ATOM     14  C   UNL     1      35.817 -20.452 -19.774  0.00  0.00    +0.003 C 
ATOM     15  C   UNL     1      37.689 -23.566 -14.380  0.00  0.00    +0.099 C 
ATOM     16  H   UNL     1      34.045 -24.748 -14.587  0.00  0.00    +0.155 HD
ENDROOT
BRANCH   2  18
ATOM     17 CL   UNL     1      28.811 -22.541 -16.255  0.00  0.00    -0.082 Cl
ATOM     18  C   UNL     1      32.214 -23.914 -14.664  0.00  0.00    +0.051 C 
ATOM     19  C   UNL     1      31.291 -23.341 -15.540  0.00  0.00    +0.026 C 
ATOM     20  C   UNL     1      31.793 -24.391 -13.422  0.00  0.00    +0.015 C 
ATOM     21  C   UNL     1      29.949 -23.246 -15.175  0.00  0.00    +0.059 C 
ATOM     22  C   UNL     1      30.451 -24.295 -13.057  0.00  0.00    +0.002 C 
ATOM     23  C   UNL     1      29.529 -23.723 -13.933  0.00  0.00    +0.011 C 
ENDBRANCH   2  18
BRANCH  13  25
ATOM     24  O   UNL     1      34.235 -19.565 -22.012  0.00  0.00    -0.245 OA
ATOM     25  C   UNL     1      33.724 -20.087 -21.016  0.00  0.00    +0.338 C 
BRANCH  25  26
ATOM     26  O   UNL     1      32.375 -20.182 -20.861  0.00  0.00    -0.477 OA
ATOM     27  H   UNL     1      31.948 -19.711 -20.172  0.00  0.00    +0.295 HD
ENDBRANCH  25  26
ENDBRANCH  13  25
TORSDOF 3
ENDMDL
MODEL 5
REMARK VINA RESULT:     -10.1      3.324      5.784
REMARK  Name = 24748573
REMARK  3 active torsions:
REMARK  status: ('A' for Active; 'I' for Inactive)
REMARK    1  A    between atoms: N_2  and  C_18
REMARK    2  A    between atoms: C_13  and  C_25
REMARK    3  A    between atoms: C_25  and  O_26
REMARK                            x       y       z     vdW  Elec       q    Type
REMARK                         _______ _______ _______ _____ _____    ______ ____
ROOT
ATOM      1  N   UNL     1      35.811 -25.497 -14.374  0.00  0.00    -0.391 NA
ATOM      2  N   UNL     1      34.426 -23.817 -13.494  0.00  0.00    -0.288 N 
ATOM      3  N   UNL     1      38.718 -23.236 -10.899  0.00  0.00    -0.243 NA
ATOM      4  C   UNL     1      38.074 -25.823 -13.590  0.00  0.00    +0.098 C 
ATOM      5  C   UNL     1      37.907 -24.737 -12.670  0.00  0.00    +0.011 C 
ATOM      6  C   UNL     1      36.678 -24.054 -12.632  0.00  0.00    +0.044 C 
ATOM      7  C   UNL     1      36.979 -26.156 -14.420  0.00  0.00    +0.119 C 
ATOM      8  C   UNL     1      35.681 -24.478 -13.499  0.00  0.00    +0.183 C 
ATOM      9  C   UNL     1      39.264 -26.582 -13.716  0.00  0.00    -0.015 C 
ATOM     10  C   UNL     1      37.107 -27.207 -15.324  0.00  0.00    +0.035 C 
ATOM     11  C   UNL     1      36.477 -22.987 -11.746  0.00  0.00    +0.024 C 
ATOM     12  C   UNL     1      38.879 -24.263 -11.768  0.00  0.00    +0.095 C 
ATOM     13  C   UNL     1      38.286 -27.942 -15.435  0.00  0.00    +0.077 C 
ATOM     14  C   UNL     1      39.368 -27.629 -14.629  0.00  0.00    +0.003 C 
ATOM     15  C   UNL     1      37.518 -22.624 -10.912  0.00  0.00    +0.099 C 
ATOM     16  H   UNL     1      34.179 -23.440 -12.618  0.00  0.00    +0.155 HD
ENDROOT
BRANCH   2  18
ATOM     17 CL   UNL     1      33.413 -22.447 -18.326  0.00  0.00    -0.082 Cl
ATOM     18  C   UNL     1      33.469 -23.596 -14.495  0.00  0.00    +0.051 C 
ATOM     19  C   UNL     1      33.870 -23.177 -15.764  0.00  0.00    +0.026 C 
ATOM     20  C   UNL     1      32.115 -23.798 -14.223  0.00  0.00    +0.015 C 
ATOM     21  C   UNL     1      32.919 -22.962 -16.760  0.00  0.00    +0.059 C 
ATOM     22  C   UNL     1      31.164 -23.582 -15.220  0.00  0.00    +0.002 C 
ATOM     23  C   UNL     1      31.566 -23.164 -16.488  0.00  0.00    +0.011 C 
ENDBRANCH   2  18
BRANCH  13  25
ATOM     24  O   UNL     1      37.521 -29.902 -16.574  0.00  0.00    -0.245 OA
ATOM     25  C   UNL     1      38.380 -29.032 -16.393  0.00  0.00    +0.338 C 
BRANCH  25  26
ATOM     26  O   UNL     1      39.542 -29.004 -17.101  0.00  0.00    -0.477 OA
ATOM     27  H   UNL     1      39.679 -28.342 -17.750  0.00  0.00    +0.295 HD
ENDBRANCH  25  26
ENDBRANCH  13  25
TORSDOF 3
ENDMDL
MODEL 6
REMARK VINA RESULT:      -9.8      3.269      6.093
REMARK  Name = 24748573
REMARK  3 active torsions:
REMARK  status: ('A' for Active; 'I' for Inactive)
REMARK    1  A    between atoms: N_2  and  C_18
REMARK    2  A    between atoms: C_13  and  C_25
REMARK    3  A    between atoms: C_25  and  O_26
REMARK                            x       y       z     vdW  Elec       q    Type
REMARK                         _______ _______ _______ _____ _____    ______ ____
ROOT
ATOM      1  N   UNL     1      33.996 -23.529 -15.380  0.00  0.00    -0.391 NA
ATOM      2  N   UNL     1      32.818 -24.685 -13.709  0.00  0.00    -0.288 N 
ATOM      3  N   UNL     1      37.143 -23.456 -11.413  0.00  0.00    -0.243 NA
ATOM      4  C   UNL     1      36.202 -22.622 -14.987  0.00  0.00    +0.098 C 
ATOM      5  C   UNL     1      36.163 -23.121 -13.644  0.00  0.00    +0.011 C 
ATOM      6  C   UNL     1      35.024 -23.819 -13.205  0.00  0.00    +0.044 C 
ATOM      7  C   UNL     1      35.077 -22.861 -15.810  0.00  0.00    +0.119 C 
ATOM      8  C   UNL     1      33.986 -23.988 -14.111  0.00  0.00    +0.183 C 
ATOM      9  C   UNL     1      37.294 -21.907 -15.537  0.00  0.00    -0.015 C 
ATOM     10  C   UNL     1      35.083 -22.390 -17.120  0.00  0.00    +0.035 C 
ATOM     11  C   UNL     1      34.949 -24.322 -11.900  0.00  0.00    +0.024 C 
ATOM     12  C   UNL     1      37.183 -22.982 -12.683  0.00  0.00    +0.095 C 
ATOM     13  C   UNL     1      36.167 -21.688 -17.645  0.00  0.00    +0.077 C 
ATOM     14  C   UNL     1      37.276 -21.445 -16.852  0.00  0.00    +0.003 C 
ATOM     15  C   UNL     1      36.024 -24.115 -11.055  0.00  0.00    +0.099 C 
ATOM     16  H   UNL     1      32.982 -25.375 -13.026  0.00  0.00    +0.155 HD
ENDROOT
BRANCH   2  18
ATOM     17 CL   UNL     1      29.254 -22.239 -16.460  0.00  0.00    -0.082 Cl
ATOM     18  C   UNL     1      31.474 -24.582 -14.098  0.00  0.00    +0.051 C 
ATOM     19  C   UNL     1      31.078 -23.577 -14.981  0.00  0.00    +0.026 C 
ATOM     20  C   UNL     1      30.534 -25.487 -13.604  0.00  0.00    +0.015 C 
ATOM     21  C   UNL     1      29.742 -23.478 -15.371  0.00  0.00    +0.059 C 
ATOM     22  C   UNL     1      29.198 -25.387 -13.994  0.00  0.00    +0.002 C 
ATOM     23  C   UNL     1      28.803 -24.382 -14.877  0.00  0.00    +0.011 C 
ENDBRANCH   2  18
BRANCH  13  25
ATOM     24  O   UNL     1      36.650 -20.167 -19.427  0.00  0.00    -0.245 OA
ATOM     25  C   UNL     1      36.132 -21.212 -19.018  0.00  0.00    +0.338 C 
BRANCH  25  26
ATOM     26  O   UNL     1      35.453 -22.054 -19.845  0.00  0.00    -0.477 OA
ATOM     27  H   UNL     1      34.711 -21.742 -20.324  0.00  0.00    +0.295 HD
ENDBRANCH  25  26
ENDBRANCH  13  25
TORSDOF 3
ENDMDL
MODEL 7
REMARK VINA RESULT:      -9.6      3.548      6.884
REMARK  Name = 24748573
REMARK  3 active torsions:
REMARK  status: ('A' for Active; 'I' for Inactive)
REMARK    1  A    between atoms: N_2  and  C_18
REMARK    2  A    between atoms: C_13  and  C_25
REMARK    3  A    between atoms: C_25  and  O_26
REMARK                            x       y       z     vdW  Elec       q    Type
REMARK                         _______ _______ _______ _____ _____    ______ ____
ROOT
ATOM      1  N   UNL     1      34.483 -23.942 -15.015  0.00  0.00    -0.391 NA
ATOM      2  N   UNL     1      36.772 -23.635 -15.443  0.00  0.00    -0.288 N 
ATOM      3  N   UNL     1      34.557 -21.063 -19.180  0.00  0.00    -0.243 NA
ATOM      4  C   UNL     1      32.782 -22.970 -16.430  0.00  0.00    +0.098 C 
ATOM      5  C   UNL     1      33.803 -22.396 -17.256  0.00  0.00    +0.011 C 
ATOM      6  C   UNL     1      35.153 -22.616 -16.929  0.00  0.00    +0.044 C 
ATOM      7  C   UNL     1      33.192 -23.739 -15.317  0.00  0.00    +0.119 C 
ATOM      8  C   UNL     1      35.425 -23.389 -15.809  0.00  0.00    +0.183 C 
ATOM      9  C   UNL     1      31.393 -22.817 -16.662  0.00  0.00    -0.015 C 
ATOM     10  C   UNL     1      32.225 -24.312 -14.495  0.00  0.00    +0.035 C 
ATOM     11  C   UNL     1      36.179 -22.070 -17.712  0.00  0.00    +0.024 C 
ATOM     12  C   UNL     1      33.589 -21.605 -18.401  0.00  0.00    +0.095 C 
ATOM     13  C   UNL     1      30.862 -24.150 -14.738  0.00  0.00    +0.077 C 
ATOM     14  C   UNL     1      30.445 -23.400 -15.824  0.00  0.00    +0.003 C 
ATOM     15  C   UNL     1      35.829 -21.311 -18.813  0.00  0.00    +0.099 C 
ATOM     16  H   UNL     1      37.394 -23.651 -16.206  0.00  0.00    +0.155 HD
ENDROOT
BRANCH   2  18
ATOM     17 CL   UNL     1      37.009 -22.571 -10.436  0.00  0.00    -0.082 Cl
ATOM     18  C   UNL     1      37.390 -23.860 -14.204  0.00  0.00    +0.051 C 
ATOM     19  C   UNL     1      36.946 -23.181 -13.069  0.00  0.00    +0.026 C 
ATOM     20  C   UNL     1      38.447 -24.766 -14.106  0.00  0.00    +0.015 C 
ATOM     21  C   UNL     1      37.558 -23.408 -11.836  0.00  0.00    +0.059 C 
ATOM     22  C   UNL     1      39.059 -24.992 -12.873  0.00  0.00    +0.002 C 
ATOM     23  C   UNL     1      38.614 -24.313 -11.738  0.00  0.00    +0.011 C 
ENDBRANCH   2  18
BRANCH  13  25
ATOM     24  O   UNL     1      28.738 -25.094 -14.173  0.00  0.00    -0.245 OA
ATOM     25  C   UNL     1      29.885 -24.764 -13.854  0.00  0.00    +0.338 C 
BRANCH  25  26
ATOM     26  O   UNL     1      30.367 -24.953 -12.595  0.00  0.00    -0.477 OA
ATOM     27  H   UNL     1      29.795 -24.872 -11.857  0.00  0.00    +0.295 HD
ENDBRANCH  25  26
ENDBRANCH  13  25
TORSDOF 3
ENDMDL
MODEL 8
REMARK VINA RESULT:      -9.2     12.931     15.739
REMARK  Name = 24748573
REMARK  3 active torsions:
REMARK  status: ('A' for Active; 'I' for Inactive)
REMARK    1  A    between atoms: N_2  and  C_18
REMARK    2  A    between atoms: C_13  and  C_25
REMARK    3  A    between atoms: C_25  and  O_26
REMARK                            x       y       z     vdW  Elec       q    Type
REMARK                         _______ _______ _______ _____ _____    ______ ____
ROOT
ATOM      1  N   UNL     1      32.784  -9.284 -23.530  0.00  0.00    -0.391 NA
ATOM      2  N   UNL     1      32.376  -7.119 -22.715  0.00  0.00    -0.288 N 
ATOM      3  N   UNL     1      31.688 -10.020 -18.641  0.00  0.00    -0.243 NA
ATOM      4  C   UNL     1      32.635 -11.230 -22.104  0.00  0.00    +0.098 C 
ATOM      5  C   UNL     1      32.287 -10.388 -20.998  0.00  0.00    +0.011 C 
ATOM      6  C   UNL     1      32.198  -8.998 -21.197  0.00  0.00    +0.044 C 
ATOM      7  C   UNL     1      32.872 -10.611 -23.353  0.00  0.00    +0.119 C 
ATOM      8  C   UNL     1      32.455  -8.514 -22.471  0.00  0.00    +0.183 C 
ATOM      9  C   UNL     1      32.754 -12.639 -22.022  0.00  0.00    -0.015 C 
ATOM     10  C   UNL     1      33.211 -11.401 -24.448  0.00  0.00    +0.035 C 
ATOM     11  C   UNL     1      31.861  -8.143 -20.139  0.00  0.00    +0.024 C 
ATOM     12  C   UNL     1      32.016 -10.820 -19.685  0.00  0.00    +0.095 C 
ATOM     13  C   UNL     1      33.324 -12.787 -24.349  0.00  0.00    +0.077 C 
ATOM     14  C   UNL     1      33.095 -13.408 -23.133  0.00  0.00    +0.003 C 
ATOM     15  C   UNL     1      31.618  -8.699 -18.898  0.00  0.00    +0.099 C 
ATOM     16  H   UNL     1      31.728  -6.651 -22.140  0.00  0.00    +0.155 HD
ENDROOT
BRANCH   2  18
ATOM     17 CL   UNL     1      32.086  -3.430 -26.259  0.00  0.00    -0.082 Cl
ATOM     18  C   UNL     1      33.043  -6.278 -23.618  0.00  0.00    +0.051 C 
ATOM     19  C   UNL     1      32.317  -5.379 -24.401  0.00  0.00    +0.026 C 
ATOM     20  C   UNL     1      34.433  -6.336 -23.731  0.00  0.00    +0.015 C 
ATOM     21  C   UNL     1      32.980  -4.539 -25.295  0.00  0.00    +0.059 C 
ATOM     22  C   UNL     1      35.095  -5.497 -24.626  0.00  0.00    +0.002 C 
ATOM     23  C   UNL     1      34.369  -4.598 -25.407  0.00  0.00    +0.011 C 
ENDBRANCH   2  18
BRANCH  13  25
ATOM     24  O   UNL     1      33.823 -14.803 -25.537  0.00  0.00    -0.245 OA
ATOM     25  C   UNL     1      33.682 -13.575 -25.517  0.00  0.00    +0.338 C 
BRANCH  25  26
ATOM     26  O   UNL     1      33.852 -12.810 -26.630  0.00  0.00    -0.477 OA
ATOM     27  H   UNL     1      33.938 -13.217 -27.470  0.00  0.00    +0.295 HD
ENDBRANCH  25  26
ENDBRANCH  13  25
TORSDOF 3
ENDMDL
MODEL 9
REMARK VINA RESULT:      -9.0      3.284      5.103
REMARK  Name = 24748573
REMARK  3 active torsions:
REMARK  status: ('A' for Active; 'I' for Inactive)
REMARK    1  A    between atoms: N_2  and  C_18
REMARK    2  A    between atoms: C_13  and  C_25
REMARK    3  A    between atoms: C_25  and  O_26
REMARK                            x       y       z     vdW  Elec       q    Type
REMARK                         _______ _______ _______ _____ _____    ______ ____
ROOT
ATOM      1  N   UNL     1      33.956 -22.737 -15.891  0.00  0.00    -0.391 NA
ATOM      2  N   UNL     1      36.025 -22.004 -16.727  0.00  0.00    -0.288 N 
ATOM      3  N   UNL     1      37.347 -25.315 -13.153  0.00  0.00    -0.243 NA
ATOM      4  C   UNL     1      33.807 -24.370 -14.115  0.00  0.00    +0.098 C 
ATOM      5  C   UNL     1      35.237 -24.440 -14.065  0.00  0.00    +0.011 C 
ATOM      6  C   UNL     1      35.993 -23.644 -14.944  0.00  0.00    +0.044 C 
ATOM      7  C   UNL     1      33.224 -23.492 -15.057  0.00  0.00    +0.119 C 
ATOM      8  C   UNL     1      35.301 -22.822 -15.823  0.00  0.00    +0.183 C 
ATOM      9  C   UNL     1      32.945 -25.123 -13.280  0.00  0.00    -0.015 C 
ATOM     10  C   UNL     1      31.837 -23.399 -15.131  0.00  0.00    +0.035 C 
ATOM     11  C   UNL     1      37.394 -23.686 -14.925  0.00  0.00    +0.024 C 
ATOM     12  C   UNL     1      35.993 -25.252 -13.197  0.00  0.00    +0.095 C 
ATOM     13  C   UNL     1      31.004 -24.148 -14.301  0.00  0.00    +0.077 C 
ATOM     14  C   UNL     1      31.559 -25.013 -13.373  0.00  0.00    +0.003 C 
ATOM     15  C   UNL     1      38.012 -24.528 -14.020  0.00  0.00    +0.099 C 
ATOM     16  H   UNL     1      36.904 -21.719 -16.388  0.00  0.00    +0.155 HD
ENDROOT
BRANCH   2  18
ATOM     17 CL   UNL     1      32.471 -20.818 -20.222  0.00  0.00    -0.082 Cl
ATOM     18  C   UNL     1      35.729 -21.520 -18.010  0.00  0.00    +0.051 C 
ATOM     19  C   UNL     1      34.402 -21.423 -18.430  0.00  0.00    +0.026 C 
ATOM     20  C   UNL     1      36.761 -21.132 -18.865  0.00  0.00    +0.015 C 
ATOM     21  C   UNL     1      34.107 -20.938 -19.704  0.00  0.00    +0.059 C 
ATOM     22  C   UNL     1      36.466 -20.648 -20.139  0.00  0.00    +0.002 C 
ATOM     23  C   UNL     1      35.139 -20.551 -20.558  0.00  0.00    +0.011 C 
ENDBRANCH   2  18
BRANCH  13  25
ATOM     24  O   UNL     1      28.954 -23.005 -14.765  0.00  0.00    -0.245 OA
ATOM     25  C   UNL     1      29.560 -24.023 -14.412  0.00  0.00    +0.338 C 
BRANCH  25  26
ATOM     26  O   UNL     1      28.910 -25.172 -14.079  0.00  0.00    -0.477 OA
ATOM     27  H   UNL     1      29.400 -25.936 -13.844  0.00  0.00    +0.295 HD
ENDBRANCH  25  26
ENDBRANCH  13  25
TORSDOF 3
ENDMDL
