MODEL 1
REMARK VINA RESULT:     -10.9      0.000      0.000
REMARK  Name = 5496659
REMARK  9 active torsions:
REMARK  status: ('A' for Active; 'I' for Inactive)
REMARK    1  A    between atoms: C_1  and  N_4
REMARK    2  A    between atoms: C_1  and  C_20
REMARK    3  A    between atoms: C_5  and  C_7
REMARK    4  A    between atoms: C_10  and  C_15
REMARK    5  A    between atoms: C_20  and  C_22
REMARK    6  A    between atoms: C_20  and  C_25
REMARK    7  A    between atoms: C_22  and  O_23
REMARK    8  A    between atoms: C_25  and  C_26
REMARK    9  A    between atoms: C_29  and  C_34
REMARK                            x       y       z     vdW  Elec       q    Type
REMARK                         _______ _______ _______ _____ _____    ______ ____
ROOT
ATOM      1  C   UNL     1      33.384 -23.513 -15.512  0.00  0.00    +0.083 C 
ATOM      2  C   UNL     1      32.127 -23.140 -14.729  0.00  0.00    +0.022 C 
ENDROOT
BRANCH   1   4
ATOM      3  O   UNL     1      33.431 -24.145 -18.312  0.00  0.00    -0.270 OA
ATOM      4  N   UNL     1      33.586 -22.588 -16.602  0.00  0.00    -0.302 N 
ATOM      5  C   UNL     1      33.592 -22.990 -17.929  0.00  0.00    +0.246 C 
ATOM      6  H   UNL     1      33.725 -21.635 -16.395  0.00  0.00    +0.150 HD
BRANCH   5   7
ATOM      7  C   UNL     1      33.838 -21.921 -18.930  0.00  0.00    +0.053 C 
ATOM      8  C   UNL     1      32.764 -21.230 -19.491  0.00  0.00    +0.005 C 
ATOM      9  C   UNL     1      35.142 -21.607 -19.309  0.00  0.00    +0.005 C 
ATOM     10  C   UNL     1      34.300 -19.913 -20.811  0.00  0.00    +0.000 C 
ATOM     11  C   UNL     1      32.994 -20.226 -20.432  0.00  0.00    +0.000 C 
ATOM     12  C   UNL     1      35.374 -20.604 -20.250  0.00  0.00    +0.000 C 
BRANCH  10  15
ATOM     13  O   UNL     1      35.222 -15.956 -24.530  0.00  0.00    -0.163 OA
ATOM     14  N   UNL     1      35.008 -16.870 -23.670  0.00  0.00    -0.127 N 
ATOM     15  C   UNL     1      34.541 -18.873 -21.788  0.00  0.00    +0.003 C 
ATOM     16  C   UNL     1      35.171 -17.693 -21.407  0.00  0.00    +0.022 C 
ATOM     17  C   UNL     1      34.144 -19.053 -23.108  0.00  0.00    +0.022 C 
ATOM     18  C   UNL     1      35.398 -16.702 -22.355  0.00  0.00    +0.121 C 
ATOM     19  C   UNL     1      34.383 -18.046 -24.038  0.00  0.00    +0.121 C 
ENDBRANCH  10  15
ENDBRANCH   5   7
ENDBRANCH   1   4
BRANCH   1  20
ATOM     20  C   UNL     1      34.627 -23.638 -14.601  0.00  0.00    +0.121 C 
BRANCH  20  22
ATOM     21  O   UNL     1      35.939 -21.606 -14.289  0.00  0.00    -0.250 OA
ATOM     22  C   UNL     1      35.685 -22.599 -14.961  0.00  0.00    +0.319 C 
BRANCH  22  23
ATOM     23  O   UNL     1      36.291 -22.947 -16.133  0.00  0.00    -0.444 OA
ATOM     24  C   UNL     1      37.362 -22.093 -16.549  0.00  0.00    +0.256 C 
ENDBRANCH  22  23
ENDBRANCH  20  22
BRANCH  20  25
ATOM     25  C   UNL     1      35.243 -25.052 -14.651  0.00  0.00    +0.039 C 
BRANCH  25  26
ATOM     26  C   UNL     1      36.461 -25.192 -13.768  0.00  0.00    -0.021 C 
ATOM     27  C   UNL     1      37.708 -25.454 -14.337  0.00  0.00    -0.002 C 
ATOM     28  C   UNL     1      36.339 -25.061 -12.385  0.00  0.00    -0.004 C 
ATOM     29  C   UNL     1      38.832 -25.586 -13.522  0.00  0.00    +0.030 C 
ATOM     30  C   UNL     1      37.463 -25.191 -11.571  0.00  0.00    -0.000 C 
ATOM     31  C   UNL     1      38.710 -25.455 -12.138  0.00  0.00    +0.003 C 
BRANCH  29  34
ATOM     32  N   UNL     1      40.532 -27.164 -14.408  0.00  0.00    -0.343 N 
ATOM     33  N   UNL     1      40.958 -24.866 -14.380  0.00  0.00    -0.285 NA
ATOM     34  C   UNL     1      40.131 -25.862 -14.114  0.00  0.00    +0.117 C 
ATOM     35  H   UNL     1      41.416 -27.328 -14.808  0.00  0.00    +0.144 HD
ATOM     36  H   UNL     1      39.931 -27.919 -14.214  0.00  0.00    +0.144 HD
ATOM     37  H   UNL     1      41.839 -25.052 -14.781  0.00  0.00    +0.188 HD
ENDBRANCH  29  34
ENDBRANCH  25  26
ENDBRANCH  20  25
ENDBRANCH   1  20
TORSDOF 9
ENDMDL
MODEL 2
REMARK VINA RESULT:     -10.5      1.393      1.796
REMARK  Name = 5496659
REMARK  9 active torsions:
REMARK  status: ('A' for Active; 'I' for Inactive)
REMARK    1  A    between atoms: C_1  and  N_4
REMARK    2  A    between atoms: C_1  and  C_20
REMARK    3  A    between atoms: C_5  and  C_7
REMARK    4  A    between atoms: C_10  and  C_15
REMARK    5  A    between atoms: C_20  and  C_22
REMARK    6  A    between atoms: C_20  and  C_25
REMARK    7  A    between atoms: C_22  and  O_23
REMARK    8  A    between atoms: C_25  and  C_26
REMARK    9  A    between atoms: C_29  and  C_34
REMARK                            x       y       z     vdW  Elec       q    Type
REMARK                         _______ _______ _______ _____ _____    ______ ____
ROOT
ATOM      1  C   UNL     1      33.181 -23.417 -15.597  0.00  0.00    +0.083 C 
ATOM      2  C   UNL     1      32.101 -22.873 -14.663  0.00  0.00    +0.022 C 
ENDROOT
BRANCH   1   4
ATOM      3  O   UNL     1      33.564 -24.101 -18.358  0.00  0.00    -0.270 OA
ATOM      4  N   UNL     1      33.402 -22.499 -16.690  0.00  0.00    -0.302 N 
ATOM      5  C   UNL     1      33.577 -22.928 -17.997  0.00  0.00    +0.246 C 
ATOM      6  H   UNL     1      33.430 -21.533 -16.500  0.00  0.00    +0.150 HD
BRANCH   5   7
ATOM      7  C   UNL     1      33.819 -21.862 -19.002  0.00  0.00    +0.053 C 
ATOM      8  C   UNL     1      32.742 -21.196 -19.586  0.00  0.00    +0.005 C 
ATOM      9  C   UNL     1      35.124 -21.526 -19.362  0.00  0.00    +0.005 C 
ATOM     10  C   UNL     1      34.275 -19.859 -20.890  0.00  0.00    +0.000 C 
ATOM     11  C   UNL     1      32.970 -20.195 -20.531  0.00  0.00    +0.000 C 
ATOM     12  C   UNL     1      35.353 -20.526 -20.306  0.00  0.00    +0.000 C 
BRANCH  10  15
ATOM     13  O   UNL     1      35.185 -15.913 -24.624  0.00  0.00    -0.163 OA
ATOM     14  N   UNL     1      34.974 -16.825 -23.761  0.00  0.00    -0.127 N 
ATOM     15  C   UNL     1      34.513 -18.822 -21.871  0.00  0.00    +0.003 C 
ATOM     16  C   UNL     1      35.105 -17.624 -21.487  0.00  0.00    +0.022 C 
ATOM     17  C   UNL     1      34.152 -19.023 -23.199  0.00  0.00    +0.022 C 
ATOM     18  C   UNL     1      35.329 -16.636 -22.439  0.00  0.00    +0.121 C 
ATOM     19  C   UNL     1      34.387 -18.019 -24.132  0.00  0.00    +0.121 C 
ENDBRANCH  10  15
ENDBRANCH   5   7
ENDBRANCH   1   4
BRANCH   1  20
ATOM     20  C   UNL     1      34.484 -23.768 -14.844  0.00  0.00    +0.121 C 
BRANCH  20  22
ATOM     21  O   UNL     1      35.773 -21.769 -14.310  0.00  0.00    -0.250 OA
ATOM     22  C   UNL     1      35.557 -22.707 -15.067  0.00  0.00    +0.319 C 
BRANCH  22  23
ATOM     23  O   UNL     1      36.227 -22.967 -16.228  0.00  0.00    -0.444 OA
ATOM     24  C   UNL     1      37.285 -22.057 -16.545  0.00  0.00    +0.256 C 
ENDBRANCH  22  23
ENDBRANCH  20  22
BRANCH  20  25
ATOM     25  C   UNL     1      35.028 -25.156 -15.244  0.00  0.00    +0.039 C 
BRANCH  25  26
ATOM     26  C   UNL     1      36.110 -25.652 -14.313  0.00  0.00    -0.021 C 
ATOM     27  C   UNL     1      36.397 -24.951 -13.141  0.00  0.00    -0.002 C 
ATOM     28  C   UNL     1      36.824 -26.809 -14.626  0.00  0.00    -0.004 C 
ATOM     29  C   UNL     1      37.397 -25.407 -12.284  0.00  0.00    +0.030 C 
ATOM     30  C   UNL     1      37.823 -27.265 -13.768  0.00  0.00    -0.000 C 
ATOM     31  C   UNL     1      38.111 -26.564 -12.597  0.00  0.00    +0.003 C 
BRANCH  29  34
ATOM     32  N   UNL     1      38.691 -23.697 -11.031  0.00  0.00    -0.343 N 
ATOM     33  N   UNL     1      37.027 -24.937  -9.957  0.00  0.00    -0.285 NA
ATOM     34  C   UNL     1      37.698 -24.675 -11.063  0.00  0.00    +0.117 C 
ATOM     35  H   UNL     1      38.878 -23.214 -10.194  0.00  0.00    +0.144 HD
ATOM     36  H   UNL     1      39.205 -23.490 -11.845  0.00  0.00    +0.144 HD
ATOM     37  H   UNL     1      37.229 -24.443  -9.129  0.00  0.00    +0.188 HD
ENDBRANCH  29  34
ENDBRANCH  25  26
ENDBRANCH  20  25
ENDBRANCH   1  20
TORSDOF 9
ENDMDL
MODEL 3
REMARK VINA RESULT:     -10.4      7.303     14.902
REMARK  Name = 5496659
REMARK  9 active torsions:
REMARK  status: ('A' for Active; 'I' for Inactive)
REMARK    1  A    between atoms: C_1  and  N_4
REMARK    2  A    between atoms: C_1  and  C_20
REMARK    3  A    between atoms: C_5  and  C_7
REMARK    4  A    between atoms: C_10  and  C_15
REMARK    5  A    between atoms: C_20  and  C_22
REMARK    6  A    between atoms: C_20  and  C_25
REMARK    7  A    between atoms: C_22  and  O_23
REMARK    8  A    between atoms: C_25  and  C_26
REMARK    9  A    between atoms: C_29  and  C_34
REMARK                            x       y       z     vdW  Elec       q    Type
REMARK                         _______ _______ _______ _____ _____    ______ ____
ROOT
ATOM      1  C   UNL     1      33.471 -11.039 -23.768  0.00  0.00    +0.083 C 
ATOM      2  C   UNL     1      34.624 -10.409 -24.547  0.00  0.00    +0.022 C 
ENDROOT
BRANCH   1   4
ATOM      3  O   UNL     1      33.415 -13.575 -25.112  0.00  0.00    -0.270 OA
ATOM      4  N   UNL     1      33.875 -12.313 -23.222  0.00  0.00    -0.302 N 
ATOM      5  C   UNL     1      33.811 -13.490 -23.952  0.00  0.00    +0.246 C 
ATOM      6  H   UNL     1      34.209 -12.348 -22.296  0.00  0.00    +0.150 HD
BRANCH   5   7
ATOM      7  C   UNL     1      34.240 -14.720 -23.240  0.00  0.00    +0.053 C 
ATOM      8  C   UNL     1      34.462 -14.687 -21.863  0.00  0.00    +0.005 C 
ATOM      9  C   UNL     1      34.421 -15.908 -23.946  0.00  0.00    +0.005 C 
ATOM     10  C   UNL     1      35.047 -17.031 -21.901  0.00  0.00    +0.000 C 
ATOM     11  C   UNL     1      34.866 -15.842 -21.193  0.00  0.00    +0.000 C 
ATOM     12  C   UNL     1      34.825 -17.064 -23.278  0.00  0.00    +0.000 C 
BRANCH  10  15
ATOM     13  O   UNL     1      36.646 -21.598 -19.268  0.00  0.00    -0.163 OA
ATOM     14  N   UNL     1      36.276 -20.542 -19.876  0.00  0.00    -0.127 N 
ATOM     15  C   UNL     1      35.467 -18.230 -21.209  0.00  0.00    +0.003 C 
ATOM     16  C   UNL     1      34.546 -19.236 -20.938  0.00  0.00    +0.022 C 
ATOM     17  C   UNL     1      36.792 -18.378 -20.814  0.00  0.00    +0.022 C 
ATOM     18  C   UNL     1      34.962 -20.384 -20.273  0.00  0.00    +0.121 C 
ATOM     19  C   UNL     1      37.183 -19.536 -20.150  0.00  0.00    +0.121 C 
ENDBRANCH  10  15
ENDBRANCH   5   7
ENDBRANCH   1   4
BRANCH   1  20
ATOM     20  C   UNL     1      32.900 -10.086 -22.692  0.00  0.00    +0.121 C 
BRANCH  20  22
ATOM     21  O   UNL     1      30.708 -10.722 -21.835  0.00  0.00    -0.250 OA
ATOM     22  C   UNL     1      31.928 -10.812 -21.767  0.00  0.00    +0.319 C 
BRANCH  22  23
ATOM     23  O   UNL     1      32.624 -11.565 -20.866  0.00  0.00    -0.444 OA
ATOM     24  C   UNL     1      31.911 -12.674 -20.309  0.00  0.00    +0.256 C 
ENDBRANCH  22  23
ENDBRANCH  20  22
BRANCH  20  25
ATOM     25  C   UNL     1      32.211  -8.855 -23.316  0.00  0.00    +0.039 C 
BRANCH  25  26
ATOM     26  C   UNL     1      32.191  -7.662 -22.387  0.00  0.00    -0.021 C 
ATOM     27  C   UNL     1      31.670  -6.445 -22.826  0.00  0.00    -0.002 C 
ATOM     28  C   UNL     1      32.697  -7.778 -21.092  0.00  0.00    -0.004 C 
ATOM     29  C   UNL     1      31.654  -5.344 -21.970  0.00  0.00    +0.030 C 
ATOM     30  C   UNL     1      32.680  -6.677 -20.236  0.00  0.00    -0.000 C 
ATOM     31  C   UNL     1      32.160  -5.460 -20.675  0.00  0.00    +0.003 C 
BRANCH  29  34
ATOM     32  N   UNL     1      31.009  -3.778 -23.787  0.00  0.00    -0.343 N 
ATOM     33  N   UNL     1      30.710  -3.175 -21.548  0.00  0.00    -0.285 NA
ATOM     34  C   UNL     1      31.112  -4.075 -22.428  0.00  0.00    +0.117 C 
ATOM     35  H   UNL     1      30.639  -2.913 -24.074  0.00  0.00    +0.144 HD
ATOM     36  H   UNL     1      31.306  -4.435 -24.457  0.00  0.00    +0.144 HD
ATOM     37  H   UNL     1      30.343  -2.315 -21.857  0.00  0.00    +0.188 HD
ENDBRANCH  29  34
ENDBRANCH  25  26
ENDBRANCH  20  25
ENDBRANCH   1  20
TORSDOF 9
ENDMDL
MODEL 4
REMARK VINA RESULT:     -10.4      4.032     11.146
REMARK  Name = 5496659
REMARK  9 active torsions:
REMARK  status: ('A' for Active; 'I' for Inactive)
REMARK    1  A    between atoms: C_1  and  N_4
REMARK    2  A    between atoms: C_1  and  C_20
REMARK    3  A    between atoms: C_5  and  C_7
REMARK    4  A    between atoms: C_10  and  C_15
REMARK    5  A    between atoms: C_20  and  C_22
REMARK    6  A    between atoms: C_20  and  C_25
REMARK    7  A    between atoms: C_22  and  O_23
REMARK    8  A    between atoms: C_25  and  C_26
REMARK    9  A    between atoms: C_29  and  C_34
REMARK                            x       y       z     vdW  Elec       q    Type
REMARK                         _______ _______ _______ _____ _____    ______ ____
ROOT
ATOM      1  C   UNL     1      35.997 -19.230 -21.314  0.00  0.00    +0.083 C 
ATOM      2  C   UNL     1      37.220 -18.493 -20.771  0.00  0.00    +0.022 C 
ENDROOT
BRANCH   1   4
ATOM      3  O   UNL     1      36.822 -21.648 -20.005  0.00  0.00    -0.270 OA
ATOM      4  N   UNL     1      35.307 -19.909 -20.242  0.00  0.00    -0.302 N 
ATOM      5  C   UNL     1      35.787 -21.077 -19.671  0.00  0.00    +0.246 C 
ATOM      6  H   UNL     1      34.464 -19.527 -19.905  0.00  0.00    +0.150 HD
BRANCH   5   7
ATOM      7  C   UNL     1      34.947 -21.666 -18.597  0.00  0.00    +0.053 C 
ATOM      8  C   UNL     1      33.564 -21.740 -18.754  0.00  0.00    +0.005 C 
ATOM      9  C   UNL     1      35.543 -22.143 -17.429  0.00  0.00    +0.005 C 
ATOM     10  C   UNL     1      33.371 -22.770 -16.577  0.00  0.00    +0.000 C 
ATOM     11  C   UNL     1      32.775 -22.292 -17.744  0.00  0.00    +0.000 C 
ATOM     12  C   UNL     1      34.755 -22.695 -16.420  0.00  0.00    +0.000 C 
BRANCH  10  15
ATOM     13  O   UNL     1      30.262 -24.947 -12.584  0.00  0.00    -0.163 OA
ATOM     14  N   UNL     1      30.981 -24.443 -13.507  0.00  0.00    -0.127 N 
ATOM     15  C   UNL     1      32.555 -23.341 -15.528  0.00  0.00    +0.003 C 
ATOM     16  C   UNL     1      31.174 -23.410 -15.680  0.00  0.00    +0.022 C 
ATOM     17  C   UNL     1      33.149 -23.823 -14.367  0.00  0.00    +0.022 C 
ATOM     18  C   UNL     1      30.400 -23.961 -14.665  0.00  0.00    +0.121 C 
ATOM     19  C   UNL     1      32.353 -24.370 -13.366  0.00  0.00    +0.121 C 
ENDBRANCH  10  15
ENDBRANCH   5   7
ENDBRANCH   1   4
BRANCH   1  20
ATOM     20  C   UNL     1      35.066 -18.301 -22.126  0.00  0.00    +0.121 C 
BRANCH  20  22
ATOM     21  O   UNL     1      34.846 -20.109 -23.746  0.00  0.00    -0.250 OA
ATOM     22  C   UNL     1      34.450 -19.034 -23.315  0.00  0.00    +0.319 C 
BRANCH  22  23
ATOM     23  O   UNL     1      33.407 -18.308 -23.812  0.00  0.00    -0.444 OA
ATOM     24  C   UNL     1      32.665 -18.937 -24.862  0.00  0.00    +0.256 C 
ENDBRANCH  22  23
ENDBRANCH  20  22
BRANCH  20  25
ATOM     25  C   UNL     1      35.795 -17.031 -22.613  0.00  0.00    +0.039 C 
BRANCH  25  26
ATOM     26  C   UNL     1      35.012 -15.767 -22.344  0.00  0.00    -0.021 C 
ATOM     27  C   UNL     1      34.615 -14.954 -23.406  0.00  0.00    -0.002 C 
ATOM     28  C   UNL     1      34.689 -15.412 -21.034  0.00  0.00    -0.004 C 
ATOM     29  C   UNL     1      33.894 -13.786 -23.157  0.00  0.00    +0.030 C 
ATOM     30  C   UNL     1      33.968 -14.244 -20.786  0.00  0.00    -0.000 C 
ATOM     31  C   UNL     1      33.571 -13.431 -21.847  0.00  0.00    +0.003 C 
BRANCH  29  34
ATOM     32  N   UNL     1      33.577 -11.548 -24.187  0.00  0.00    -0.343 N 
ATOM     33  N   UNL     1      33.001 -13.481 -25.367  0.00  0.00    -0.285 NA
ATOM     34  C   UNL     1      33.481 -12.937 -24.264  0.00  0.00    +0.117 C 
ATOM     35  H   UNL     1      33.291 -10.993 -24.947  0.00  0.00    +0.144 HD
ATOM     36  H   UNL     1      33.929 -11.124 -23.371  0.00  0.00    +0.144 HD
ATOM     37  H   UNL     1      32.721 -12.907 -26.117  0.00  0.00    +0.188 HD
ENDBRANCH  29  34
ENDBRANCH  25  26
ENDBRANCH  20  25
ENDBRANCH   1  20
TORSDOF 9
ENDMDL
MODEL 5
REMARK VINA RESULT:     -10.4      1.853      2.979
REMARK  Name = 5496659
REMARK  9 active torsions:
REMARK  status: ('A' for Active; 'I' for Inactive)
REMARK    1  A    between atoms: C_1  and  N_4
REMARK    2  A    between atoms: C_1  and  C_20
REMARK    3  A    between atoms: C_5  and  C_7
REMARK    4  A    between atoms: C_10  and  C_15
REMARK    5  A    between atoms: C_20  and  C_22
REMARK    6  A    between atoms: C_20  and  C_25
REMARK    7  A    between atoms: C_22  and  O_23
REMARK    8  A    between atoms: C_25  and  C_26
REMARK    9  A    between atoms: C_29  and  C_34
REMARK                            x       y       z     vdW  Elec       q    Type
REMARK                         _______ _______ _______ _____ _____    ______ ____
ROOT
ATOM      1  C   UNL     1      31.739 -23.516 -15.714  0.00  0.00    +0.083 C 
ATOM      2  C   UNL     1      30.436 -23.012 -15.096  0.00  0.00    +0.022 C 
ENDROOT
BRANCH   1   4
ATOM      3  O   UNL     1      33.585 -24.114 -17.830  0.00  0.00    -0.270 OA
ATOM      4  N   UNL     1      32.177 -22.617 -16.756  0.00  0.00    -0.302 N 
ATOM      5  C   UNL     1      33.076 -23.000 -17.739  0.00  0.00    +0.246 C 
ATOM      6  H   UNL     1      31.824 -21.698 -16.768  0.00  0.00    +0.150 HD
BRANCH   5   7
ATOM      7  C   UNL     1      33.445 -21.951 -18.724  0.00  0.00    +0.053 C 
ATOM      8  C   UNL     1      34.789 -21.684 -18.988  0.00  0.00    +0.005 C 
ATOM      9  C   UNL     1      32.449 -21.234 -19.385  0.00  0.00    +0.005 C 
ATOM     10  C   UNL     1      34.139 -19.981 -20.574  0.00  0.00    +0.000 C 
ATOM     11  C   UNL     1      35.136 -20.698 -19.912  0.00  0.00    +0.000 C 
ATOM     12  C   UNL     1      32.795 -20.249 -20.309  0.00  0.00    +0.000 C 
BRANCH  10  15
ATOM     13  O   UNL     1      35.505 -16.085 -24.220  0.00  0.00    -0.163 OA
ATOM     14  N   UNL     1      35.188 -16.985 -23.377  0.00  0.00    -0.127 N 
ATOM     15  C   UNL     1      34.496 -18.957 -21.531  0.00  0.00    +0.003 C 
ATOM     16  C   UNL     1      35.177 -17.819 -21.112  0.00  0.00    +0.022 C 
ATOM     17  C   UNL     1      34.161 -19.110 -22.872  0.00  0.00    +0.022 C 
ATOM     18  C   UNL     1      35.517 -16.843 -22.042  0.00  0.00    +0.121 C 
ATOM     19  C   UNL     1      34.512 -18.119 -23.783  0.00  0.00    +0.121 C 
ENDBRANCH  10  15
ENDBRANCH   5   7
ENDBRANCH   1   4
BRANCH   1  20
ATOM     20  C   UNL     1      32.832 -23.770 -14.650  0.00  0.00    +0.121 C 
BRANCH  20  22
ATOM     21  O   UNL     1      32.311 -23.031 -12.386  0.00  0.00    -0.250 OA
ATOM     22  C   UNL     1      32.230 -23.891 -13.254  0.00  0.00    +0.319 C 
BRANCH  22  23
ATOM     23  O   UNL     1      31.598 -25.095 -13.129  0.00  0.00    -0.444 OA
ATOM     24  C   UNL     1      30.296 -25.047 -12.536  0.00  0.00    +0.256 C 
ENDBRANCH  22  23
ENDBRANCH  20  22
BRANCH  20  25
ATOM     25  C   UNL     1      33.916 -22.671 -14.660  0.00  0.00    +0.039 C 
BRANCH  25  26
ATOM     26  C   UNL     1      35.316 -23.231 -14.758  0.00  0.00    -0.021 C 
ATOM     27  C   UNL     1      35.529 -24.604 -14.631  0.00  0.00    -0.002 C 
ATOM     28  C   UNL     1      36.397 -22.375 -14.974  0.00  0.00    -0.004 C 
ATOM     29  C   UNL     1      36.821 -25.120 -14.719  0.00  0.00    +0.030 C 
ATOM     30  C   UNL     1      37.689 -22.892 -15.062  0.00  0.00    -0.000 C 
ATOM     31  C   UNL     1      37.902 -24.264 -14.934  0.00  0.00    +0.003 C 
BRANCH  29  34
ATOM     32  N   UNL     1      36.897 -27.195 -13.356  0.00  0.00    -0.343 N 
ATOM     33  N   UNL     1      37.395 -27.265 -15.639  0.00  0.00    -0.285 NA
ATOM     34  C   UNL     1      37.043 -26.552 -14.584  0.00  0.00    +0.117 C 
ATOM     35  H   UNL     1      37.053 -28.165 -13.288  0.00  0.00    +0.144 HD
ATOM     36  H   UNL     1      36.638 -26.680 -12.558  0.00  0.00    +0.144 HD
ATOM     37  H   UNL     1      37.546 -28.234 -15.549  0.00  0.00    +0.188 HD
ENDBRANCH  29  34
ENDBRANCH  25  26
ENDBRANCH  20  25
ENDBRANCH   1  20
TORSDOF 9
ENDMDL
MODEL 6
REMARK VINA RESULT:     -10.3      1.621      1.977
REMARK  Name = 5496659
REMARK  9 active torsions:
REMARK  status: ('A' for Active; 'I' for Inactive)
REMARK    1  A    between atoms: C_1  and  N_4
REMARK    2  A    between atoms: C_1  and  C_20
REMARK    3  A    between atoms: C_5  and  C_7
REMARK    4  A    between atoms: C_10  and  C_15
REMARK    5  A    between atoms: C_20  and  C_22
REMARK    6  A    between atoms: C_20  and  C_25
REMARK    7  A    between atoms: C_22  and  O_23
REMARK    8  A    between atoms: C_25  and  C_26
REMARK    9  A    between atoms: C_29  and  C_34
REMARK                            x       y       z     vdW  Elec       q    Type
REMARK                         _______ _______ _______ _____ _____    ______ ____
ROOT
ATOM      1  C   UNL     1      33.902 -23.814 -14.888  0.00  0.00    +0.083 C 
ATOM      2  C   UNL     1      32.986 -23.207 -13.826  0.00  0.00    +0.022 C 
ENDROOT
BRANCH   1   4
ATOM      3  O   UNL     1      33.216 -24.292 -17.634  0.00  0.00    -0.270 OA
ATOM      4  N   UNL     1      34.063 -22.894 -15.990  0.00  0.00    -0.302 N 
ATOM      5  C   UNL     1      33.701 -23.218 -17.288  0.00  0.00    +0.246 C 
ATOM      6  H   UNL     1      34.446 -22.004 -15.813  0.00  0.00    +0.150 HD
BRANCH   5   7
ATOM      7  C   UNL     1      33.954 -22.173 -18.312  0.00  0.00    +0.053 C 
ATOM      8  C   UNL     1      32.884 -21.505 -18.907  0.00  0.00    +0.005 C 
ATOM      9  C   UNL     1      35.262 -21.859 -18.680  0.00  0.00    +0.005 C 
ATOM     10  C   UNL     1      34.431 -20.209 -20.236  0.00  0.00    +0.000 C 
ATOM     11  C   UNL     1      33.122 -20.523 -19.869  0.00  0.00    +0.000 C 
ATOM     12  C   UNL     1      35.501 -20.878 -19.641  0.00  0.00    +0.000 C 
BRANCH  10  15
ATOM     13  O   UNL     1      35.382 -16.341 -24.041  0.00  0.00    -0.163 OA
ATOM     14  N   UNL     1      35.161 -17.235 -23.161  0.00  0.00    -0.127 N 
ATOM     15  C   UNL     1      34.680 -19.193 -21.235  0.00  0.00    +0.003 C 
ATOM     16  C   UNL     1      35.352 -18.026 -20.888  0.00  0.00    +0.022 C 
ATOM     17  C   UNL     1      34.248 -19.382 -22.544  0.00  0.00    +0.022 C 
ATOM     18  C   UNL     1      35.586 -17.057 -21.858  0.00  0.00    +0.121 C 
ATOM     19  C   UNL     1      34.495 -18.398 -23.495  0.00  0.00    +0.121 C 
ENDBRANCH  10  15
ENDBRANCH   5   7
ENDBRANCH   1   4
BRANCH   1  20
ATOM     20  C   UNL     1      35.254 -24.280 -14.300  0.00  0.00    +0.121 C 
BRANCH  20  22
ATOM     21  O   UNL     1      36.726 -22.390 -14.754  0.00  0.00    -0.250 OA
ATOM     22  C   UNL     1      36.140 -23.092 -13.939  0.00  0.00    +0.319 C 
BRANCH  22  23
ATOM     23  O   UNL     1      36.176 -22.940 -12.583  0.00  0.00    -0.444 OA
ATOM     24  C   UNL     1      37.481 -22.962 -11.995  0.00  0.00    +0.256 C 
ENDBRANCH  22  23
ENDBRANCH  20  22
BRANCH  20  25
ATOM     25  C   UNL     1      36.007 -25.224 -15.260  0.00  0.00    +0.039 C 
BRANCH  25  26
ATOM     26  C   UNL     1      36.821 -26.270 -14.532  0.00  0.00    -0.021 C 
ATOM     27  C   UNL     1      37.571 -27.198 -15.256  0.00  0.00    -0.002 C 
ATOM     28  C   UNL     1      36.819 -26.310 -13.138  0.00  0.00    -0.004 C 
ATOM     29  C   UNL     1      38.319 -28.164 -14.584  0.00  0.00    +0.030 C 
ATOM     30  C   UNL     1      37.568 -27.276 -12.467  0.00  0.00    -0.000 C 
ATOM     31  C   UNL     1      38.317 -28.204 -13.190  0.00  0.00    +0.003 C 
BRANCH  29  34
ATOM     32  N   UNL     1      40.126 -29.861 -14.738  0.00  0.00    -0.343 N 
ATOM     33  N   UNL     1      38.843 -29.331 -16.618  0.00  0.00    -0.285 NA
ATOM     34  C   UNL     1      39.100 -29.133 -15.338  0.00  0.00    +0.117 C 
ATOM     35  H   UNL     1      40.641 -30.512 -15.268  0.00  0.00    +0.144 HD
ATOM     36  H   UNL     1      40.334 -29.726 -13.786  0.00  0.00    +0.144 HD
ATOM     37  H   UNL     1      39.371 -29.987 -17.131  0.00  0.00    +0.188 HD
ENDBRANCH  29  34
ENDBRANCH  25  26
ENDBRANCH  20  25
ENDBRANCH   1  20
TORSDOF 9
ENDMDL
MODEL 7
REMARK VINA RESULT:     -10.2      2.356      5.272
REMARK  Name = 5496659
REMARK  9 active torsions:
REMARK  status: ('A' for Active; 'I' for Inactive)
REMARK    1  A    between atoms: C_1  and  N_4
REMARK    2  A    between atoms: C_1  and  C_20
REMARK    3  A    between atoms: C_5  and  C_7
REMARK    4  A    between atoms: C_10  and  C_15
REMARK    5  A    between atoms: C_20  and  C_22
REMARK    6  A    between atoms: C_20  and  C_25
REMARK    7  A    between atoms: C_22  and  O_23
REMARK    8  A    between atoms: C_25  and  C_26
REMARK    9  A    between atoms: C_29  and  C_34
REMARK                            x       y       z     vdW  Elec       q    Type
REMARK                         _______ _______ _______ _____ _____    ______ ____
ROOT
ATOM      1  C   UNL     1      35.957 -23.937 -14.657  0.00  0.00    +0.083 C 
ATOM      2  C   UNL     1      35.715 -25.385 -15.079  0.00  0.00    +0.022 C 
ENDROOT
BRANCH   1   4
ATOM      3  O   UNL     1      33.833 -23.910 -16.588  0.00  0.00    -0.270 OA
ATOM      4  N   UNL     1      35.839 -23.059 -15.797  0.00  0.00    -0.302 N 
ATOM      5  C   UNL     1      34.770 -23.122 -16.678  0.00  0.00    +0.246 C 
ATOM      6  H   UNL     1      36.545 -22.390 -15.956  0.00  0.00    +0.150 HD
BRANCH   5   7
ATOM      7  C   UNL     1      34.809 -22.167 -17.815  0.00  0.00    +0.053 C 
ATOM      8  C   UNL     1      36.030 -21.655 -18.254  0.00  0.00    +0.005 C 
ATOM      9  C   UNL     1      33.625 -21.783 -18.443  0.00  0.00    +0.005 C 
ATOM     10  C   UNL     1      34.882 -20.373 -19.950  0.00  0.00    +0.000 C 
ATOM     11  C   UNL     1      36.066 -20.758 -19.321  0.00  0.00    +0.000 C 
ATOM     12  C   UNL     1      33.661 -20.886 -19.510  0.00  0.00    +0.000 C 
BRANCH  10  15
ATOM     13  O   UNL     1      35.015 -16.824 -24.161  0.00  0.00    -0.163 OA
ATOM     14  N   UNL     1      34.985 -17.645 -23.188  0.00  0.00    -0.127 N 
ATOM     15  C   UNL     1      34.918 -19.442 -21.056  0.00  0.00    +0.003 C 
ATOM     16  C   UNL     1      34.196 -19.709 -22.215  0.00  0.00    +0.022 C 
ATOM     17  C   UNL     1      35.672 -18.278 -20.962  0.00  0.00    +0.022 C 
ATOM     18  C   UNL     1      34.238 -18.805 -23.271  0.00  0.00    +0.121 C 
ATOM     19  C   UNL     1      35.697 -17.389 -22.033  0.00  0.00    +0.121 C 
ENDBRANCH  10  15
ENDBRANCH   5   7
ENDBRANCH   1   4
BRANCH   1  20
ATOM     20  C   UNL     1      35.047 -23.509 -13.481  0.00  0.00    +0.121 C 
BRANCH  20  22
ATOM     21  O   UNL     1      36.963 -22.898 -12.102  0.00  0.00    -0.250 OA
ATOM     22  C   UNL     1      35.841 -23.382 -12.184  0.00  0.00    +0.319 C 
BRANCH  22  23
ATOM     23  O   UNL     1      35.110 -23.887 -11.148  0.00  0.00    -0.444 OA
ATOM     24  C   UNL     1      35.869 -24.525 -10.115  0.00  0.00    +0.256 C 
ENDBRANCH  22  23
ENDBRANCH  20  22
BRANCH  20  25
ATOM     25  C   UNL     1      33.865 -24.481 -13.281  0.00  0.00    +0.039 C 
BRANCH  25  26
ATOM     26  C   UNL     1      32.536 -23.871 -13.660  0.00  0.00    -0.021 C 
ATOM     27  C   UNL     1      31.479 -24.692 -14.054  0.00  0.00    -0.002 C 
ATOM     28  C   UNL     1      32.366 -22.487 -13.619  0.00  0.00    -0.004 C 
ATOM     29  C   UNL     1      30.253 -24.128 -14.406  0.00  0.00    +0.030 C 
ATOM     30  C   UNL     1      31.140 -21.924 -13.970  0.00  0.00    -0.000 C 
ATOM     31  C   UNL     1      30.083 -22.744 -14.365  0.00  0.00    +0.003 C 
BRANCH  29  34
ATOM     32  N   UNL     1      28.827 -26.141 -14.111  0.00  0.00    -0.343 N 
ATOM     33  N   UNL     1      28.440 -24.671 -15.887  0.00  0.00    -0.285 NA
ATOM     34  C   UNL     1      29.151 -24.984 -14.819  0.00  0.00    +0.117 C 
ATOM     35  H   UNL     1      28.078 -26.705 -14.409  0.00  0.00    +0.144 HD
ATOM     36  H   UNL     1      29.348 -26.392 -13.314  0.00  0.00    +0.144 HD
ATOM     37  H   UNL     1      27.693 -25.250 -16.168  0.00  0.00    +0.188 HD
ENDBRANCH  29  34
ENDBRANCH  25  26
ENDBRANCH  20  25
ENDBRANCH   1  20
TORSDOF 9
ENDMDL
MODEL 8
REMARK VINA RESULT:     -10.1      1.982      2.967
REMARK  Name = 5496659
REMARK  9 active torsions:
REMARK  status: ('A' for Active; 'I' for Inactive)
REMARK    1  A    between atoms: C_1  and  N_4
REMARK    2  A    between atoms: C_1  and  C_20
REMARK    3  A    between atoms: C_5  and  C_7
REMARK    4  A    between atoms: C_10  and  C_15
REMARK    5  A    between atoms: C_20  and  C_22
REMARK    6  A    between atoms: C_20  and  C_25
REMARK    7  A    between atoms: C_22  and  O_23
REMARK    8  A    between atoms: C_25  and  C_26
REMARK    9  A    between atoms: C_29  and  C_34
REMARK                            x       y       z     vdW  Elec       q    Type
REMARK                         _______ _______ _______ _____ _____    ______ ____
ROOT
ATOM      1  C   UNL     1      31.761 -23.734 -15.855  0.00  0.00    +0.083 C 
ATOM      2  C   UNL     1      30.256 -23.596 -15.630  0.00  0.00    +0.022 C 
ENDROOT
BRANCH   1   4
ATOM      3  O   UNL     1      33.644 -24.221 -17.967  0.00  0.00    -0.270 OA
ATOM      4  N   UNL     1      32.204 -22.786 -16.851  0.00  0.00    -0.302 N 
ATOM      5  C   UNL     1      33.122 -23.117 -17.836  0.00  0.00    +0.246 C 
ATOM      6  H   UNL     1      31.842 -21.871 -16.829  0.00  0.00    +0.150 HD
BRANCH   5   7
ATOM      7  C   UNL     1      33.494 -22.023 -18.769  0.00  0.00    +0.053 C 
ATOM      8  C   UNL     1      32.500 -21.261 -19.383  0.00  0.00    +0.005 C 
ATOM      9  C   UNL     1      34.838 -21.758 -19.033  0.00  0.00    +0.005 C 
ATOM     10  C   UNL     1      34.194 -19.968 -20.522  0.00  0.00    +0.000 C 
ATOM     11  C   UNL     1      32.850 -20.233 -20.259  0.00  0.00    +0.000 C 
ATOM     12  C   UNL     1      35.188 -20.732 -19.909  0.00  0.00    +0.000 C 
BRANCH  10  15
ATOM     13  O   UNL     1      35.578 -15.918 -23.989  0.00  0.00    -0.163 OA
ATOM     14  N   UNL     1      35.259 -16.854 -23.188  0.00  0.00    -0.127 N 
ATOM     15  C   UNL     1      34.558 -18.905 -21.433  0.00  0.00    +0.003 C 
ATOM     16  C   UNL     1      34.261 -19.016 -22.787  0.00  0.00    +0.022 C 
ATOM     17  C   UNL     1      35.205 -17.770 -20.955  0.00  0.00    +0.022 C 
ATOM     18  C   UNL     1      34.615 -17.986 -23.652  0.00  0.00    +0.121 C 
ATOM     19  C   UNL     1      35.549 -16.754 -21.841  0.00  0.00    +0.121 C 
ENDBRANCH  10  15
ENDBRANCH   5   7
ENDBRANCH   1   4
BRANCH   1  20
ATOM     20  C   UNL     1      32.563 -23.630 -14.538  0.00  0.00    +0.121 C 
BRANCH  20  22
ATOM     21  O   UNL     1      31.605 -21.690 -13.414  0.00  0.00    -0.250 OA
ATOM     22  C   UNL     1      31.766 -22.903 -13.459  0.00  0.00    +0.319 C 
BRANCH  22  23
ATOM     23  O   UNL     1      31.271 -23.809 -12.565  0.00  0.00    -0.444 OA
ATOM     24  C   UNL     1      31.738 -25.152 -12.727  0.00  0.00    +0.256 C 
ENDBRANCH  22  23
ENDBRANCH  20  22
BRANCH  20  25
ATOM     25  C   UNL     1      33.925 -22.933 -14.743  0.00  0.00    +0.039 C 
BRANCH  25  26
ATOM     26  C   UNL     1      35.080 -23.730 -14.182  0.00  0.00    -0.021 C 
ATOM     27  C   UNL     1      35.844 -23.210 -13.136  0.00  0.00    -0.002 C 
ATOM     28  C   UNL     1      35.384 -24.985 -14.711  0.00  0.00    -0.004 C 
ATOM     29  C   UNL     1      36.911 -23.945 -12.621  0.00  0.00    +0.030 C 
ATOM     30  C   UNL     1      36.451 -25.719 -14.194  0.00  0.00    -0.000 C 
ATOM     31  C   UNL     1      37.215 -25.199 -13.150  0.00  0.00    +0.003 C 
BRANCH  29  34
ATOM     32  N   UNL     1      38.958 -23.933 -11.214  0.00  0.00    -0.343 N 
ATOM     33  N   UNL     1      37.248 -22.388 -10.821  0.00  0.00    -0.285 NA
ATOM     34  C   UNL     1      37.709 -23.402 -11.532  0.00  0.00    +0.117 C 
ATOM     35  H   UNL     1      39.481 -23.550 -10.473  0.00  0.00    +0.144 HD
ATOM     36  H   UNL     1      39.317 -24.690 -11.731  0.00  0.00    +0.144 HD
ATOM     37  H   UNL     1      37.787 -22.019 -10.083  0.00  0.00    +0.188 HD
ENDBRANCH  29  34
ENDBRANCH  25  26
ENDBRANCH  20  25
ENDBRANCH   1  20
TORSDOF 9
ENDMDL
MODEL 9
REMARK VINA RESULT:     -10.1      8.369     16.202
REMARK  Name = 5496659
REMARK  9 active torsions:
REMARK  status: ('A' for Active; 'I' for Inactive)
REMARK    1  A    between atoms: C_1  and  N_4
REMARK    2  A    between atoms: C_1  and  C_20
REMARK    3  A    between atoms: C_5  and  C_7
REMARK    4  A    between atoms: C_10  and  C_15
REMARK    5  A    between atoms: C_20  and  C_22
REMARK    6  A    between atoms: C_20  and  C_25
REMARK    7  A    between atoms: C_22  and  O_23
REMARK    8  A    between atoms: C_25  and  C_26
REMARK    9  A    between atoms: C_29  and  C_34
REMARK                            x       y       z     vdW  Elec       q    Type
REMARK                         _______ _______ _______ _____ _____    ______ ____
ROOT
ATOM      1  C   UNL     1      33.206  -9.075 -23.294  0.00  0.00    +0.083 C 
ATOM      2  C   UNL     1      34.484  -8.241 -23.368  0.00  0.00    +0.022 C 
ENDROOT
BRANCH   1   4
ATOM      3  O   UNL     1      33.463 -11.181 -25.228  0.00  0.00    -0.270 OA
ATOM      4  N   UNL     1      33.528 -10.458 -23.027  0.00  0.00    -0.302 N 
ATOM      5  C   UNL     1      33.630 -11.406 -24.033  0.00  0.00    +0.246 C 
ATOM      6  H   UNL     1      33.680 -10.737 -22.094  0.00  0.00    +0.150 HD
BRANCH   5   7
ATOM      7  C   UNL     1      33.943 -12.789 -23.591  0.00  0.00    +0.053 C 
ATOM      8  C   UNL     1      34.251 -13.042 -22.255  0.00  0.00    +0.005 C 
ATOM      9  C   UNL     1      33.929 -13.835 -24.513  0.00  0.00    +0.005 C 
ATOM     10  C   UNL     1      34.531 -15.387 -22.762  0.00  0.00    +0.000 C 
ATOM     11  C   UNL     1      34.545 -14.341 -21.840  0.00  0.00    +0.000 C 
ATOM     12  C   UNL     1      34.223 -15.134 -24.099  0.00  0.00    +0.000 C 
BRANCH  10  15
ATOM     13  O   UNL     1      35.702 -20.518 -21.135  0.00  0.00    -0.163 OA
ATOM     14  N   UNL     1      35.431 -19.332 -21.511  0.00  0.00    -0.127 N 
ATOM     15  C   UNL     1      34.838 -16.735 -22.334  0.00  0.00    +0.003 C 
ATOM     16  C   UNL     1      34.664 -17.800 -23.212  0.00  0.00    +0.022 C 
ATOM     17  C   UNL     1      35.307 -16.967 -21.046  0.00  0.00    +0.022 C 
ATOM     18  C   UNL     1      34.964 -19.090 -22.789  0.00  0.00    +0.121 C 
ATOM     19  C   UNL     1      35.599 -18.267 -20.648  0.00  0.00    +0.121 C 
ENDBRANCH  10  15
ENDBRANCH   5   7
ENDBRANCH   1   4
BRANCH   1  20
ATOM     20  C   UNL     1      32.186  -8.497 -22.286  0.00  0.00    +0.121 C 
BRANCH  20  22
ATOM     21  O   UNL     1      30.814 -10.441 -21.753  0.00  0.00    -0.250 OA
ATOM     22  C   UNL     1      31.615  -9.590 -21.387  0.00  0.00    +0.319 C 
BRANCH  22  23
ATOM     23  O   UNL     1      32.131  -9.466 -20.129  0.00  0.00    -0.444 OA
ATOM     24  C   UNL     1      32.329  -8.123 -19.674  0.00  0.00    +0.256 C 
ENDBRANCH  22  23
ENDBRANCH  20  22
BRANCH  20  25
ATOM     25  C   UNL     1      31.038  -7.745 -22.991  0.00  0.00    +0.039 C 
BRANCH  25  26
ATOM     26  C   UNL     1      31.332  -6.274 -23.180  0.00  0.00    -0.021 C 
ATOM     27  C   UNL     1      31.690  -5.791 -24.439  0.00  0.00    -0.002 C 
ATOM     28  C   UNL     1      31.248  -5.401 -22.096  0.00  0.00    -0.004 C 
ATOM     29  C   UNL     1      31.963  -4.435 -24.613  0.00  0.00    +0.030 C 
ATOM     30  C   UNL     1      31.521  -4.045 -22.271  0.00  0.00    -0.000 C 
ATOM     31  C   UNL     1      31.879  -3.562 -23.529  0.00  0.00    +0.003 C 
BRANCH  29  34
ATOM     32  N   UNL     1      31.838  -2.722 -26.408  0.00  0.00    -0.343 N 
ATOM     33  N   UNL     1      33.164  -4.627 -26.686  0.00  0.00    -0.285 NA
ATOM     34  C   UNL     1      32.338  -3.931 -25.926  0.00  0.00    +0.117 C 
ATOM     35  H   UNL     1      32.105  -2.401 -27.299  0.00  0.00    +0.144 HD
ATOM     36  H   UNL     1      31.219  -2.191 -25.857  0.00  0.00    +0.144 HD
ATOM     37  H   UNL     1      33.418  -4.288 -27.575  0.00  0.00    +0.188 HD
ENDBRANCH  29  34
ENDBRANCH  25  26
ENDBRANCH  20  25
ENDBRANCH   1  20
TORSDOF 9
ENDMDL
