MODEL 1
REMARK VINA RESULT:     -12.2      0.000      0.000
REMARK  Name = 71360
REMARK  8 active torsions:
REMARK  status: ('A' for Active; 'I' for Inactive)
REMARK    1  A    between atoms: N_1  and  C_18
REMARK    2  A    between atoms: C_2  and  C_11
REMARK    3  A    between atoms: C_18  and  C_19
REMARK    4  A    between atoms: C_19  and  C_20
REMARK    5  A    between atoms: C_20  and  O_21
REMARK    6  A    between atoms: O_21  and  C_22
REMARK    7  A    between atoms: C_23  and  O_31
REMARK    8  A    between atoms: C_27  and  C_29
REMARK                            x       y       z     vdW  Elec       q    Type
REMARK                         _______ _______ _______ _____ _____    ______ ____
ROOT
ATOM      1  N   UNL     1      35.374 -19.664 -20.439  0.00  0.00    +0.387 N 
ATOM      2  C   UNL     1      35.244 -17.937 -22.807  0.00  0.00    +0.039 C 
ATOM      3  C   UNL     1      35.934 -17.501 -21.505  0.00  0.00    -0.017 C 
ATOM      4  C   UNL     1      34.177 -19.000 -22.501  0.00  0.00    -0.017 C 
ATOM      5  C   UNL     1      36.455 -18.709 -20.721  0.00  0.00    -0.077 C 
ATOM      6  C   UNL     1      34.761 -20.154 -21.682  0.00  0.00    -0.077 C 
ATOM      7  H   UNL     1      34.655 -19.177 -19.904  0.00  0.00    -0.080 HD
ENDROOT
BRANCH   2  11
ATOM      8  F   UNL     1      33.269 -11.512 -23.025  0.00  0.00    -0.204 F 
ATOM      9  O   UNL     1      33.943 -15.692 -25.307  0.00  0.00    -0.354 OA
ATOM     10  N   UNL     1      34.418 -16.928 -24.887  0.00  0.00    -0.081 NA
ATOM     11  C   UNL     1      34.695 -16.769 -23.596  0.00  0.00    +0.100 A 
ATOM     12  C   UNL     1      34.425 -15.473 -23.131  0.00  0.00    +0.054 A 
ATOM     13  C   UNL     1      33.947 -14.825 -24.257  0.00  0.00    +0.179 A 
ATOM     14  C   UNL     1      34.516 -14.764 -21.924  0.00  0.00    +0.007 C 
ATOM     15  C   UNL     1      33.544 -13.494 -24.284  0.00  0.00    +0.070 C 
ATOM     16  C   UNL     1      34.117 -13.419 -21.915  0.00  0.00    +0.030 C 
ATOM     17  C   UNL     1      33.640 -12.798 -23.074  0.00  0.00    +0.143 C 
ENDBRANCH   2  11
BRANCH   1  18
ATOM     18  C   UNL     1      35.876 -20.783 -19.641  0.00  0.00    -0.074 C 
BRANCH  18  19
ATOM     19  C   UNL     1      34.793 -21.844 -19.478  0.00  0.00    +0.025 C 
BRANCH  19  20
ATOM     20  C   UNL     1      33.543 -21.271 -18.826  0.00  0.00    +0.203 C 
BRANCH  20  21
ATOM     21  O   UNL     1      32.682 -22.341 -18.462  0.00  0.00    -0.472 OA
BRANCH  21  22
ATOM     22  C   UNL     1      32.765 -22.791 -17.171  0.00  0.00    +0.172 C 
ATOM     23  C   UNL     1      31.627 -22.834 -16.371  0.00  0.00    +0.172 C 
ATOM     24  C   UNL     1      33.996 -23.200 -16.672  0.00  0.00    +0.040 C 
ATOM     25  C   UNL     1      31.724 -23.293 -15.057  0.00  0.00    +0.043 C 
ATOM     26  C   UNL     1      34.093 -23.659 -15.358  0.00  0.00    +0.006 C 
ATOM     27  C   UNL     1      32.957 -23.705 -14.551  0.00  0.00    +0.038 C 
BRANCH  27  29
ATOM     28  O   UNL     1      32.097 -24.746 -12.616  0.00  0.00    -0.291 OA
ATOM     29  C   UNL     1      33.058 -24.185 -13.181  0.00  0.00    +0.174 C 
ATOM     30  C   UNL     1      34.355 -24.010 -12.399  0.00  0.00    +0.077 C 
ENDBRANCH  27  29
BRANCH  23  31
ATOM     31  O   UNL     1      30.418 -22.435 -16.853  0.00  0.00    -0.468 OA
ATOM     32  C   UNL     1      29.267 -22.788 -16.090  0.00  0.00    +0.253 C 
ENDBRANCH  23  31
ENDBRANCH  21  22
ENDBRANCH  20  21
ENDBRANCH  19  20
ENDBRANCH  18  19
ENDBRANCH   1  18
TORSDOF 8
ENDMDL
MODEL 2
REMARK VINA RESULT:     -12.2      1.249      2.176
REMARK  Name = 71360
REMARK  8 active torsions:
REMARK  status: ('A' for Active; 'I' for Inactive)
REMARK    1  A    between atoms: N_1  and  C_18
REMARK    2  A    between atoms: C_2  and  C_11
REMARK    3  A    between atoms: C_18  and  C_19
REMARK    4  A    between atoms: C_19  and  C_20
REMARK    5  A    between atoms: C_20  and  O_21
REMARK    6  A    between atoms: O_21  and  C_22
REMARK    7  A    between atoms: C_23  and  O_31
REMARK    8  A    between atoms: C_27  and  C_29
REMARK                            x       y       z     vdW  Elec       q    Type
REMARK                         _______ _______ _______ _____ _____    ______ ____
ROOT
ATOM      1  N   UNL     1      35.600 -19.654 -20.289  0.00  0.00    +0.387 N 
ATOM      2  C   UNL     1      35.351 -18.027 -22.718  0.00  0.00    +0.039 C 
ATOM      3  C   UNL     1      36.090 -17.531 -21.465  0.00  0.00    -0.017 C 
ATOM      4  C   UNL     1      34.310 -19.088 -22.324  0.00  0.00    -0.017 C 
ATOM      5  C   UNL     1      36.657 -18.701 -20.655  0.00  0.00    -0.077 C 
ATOM      6  C   UNL     1      34.942 -20.201 -21.485  0.00  0.00    -0.077 C 
ATOM      7  H   UNL     1      34.898 -19.153 -19.745  0.00  0.00    -0.080 HD
ENDROOT
BRANCH   2  11
ATOM      8  F   UNL     1      33.184 -11.671 -23.081  0.00  0.00    -0.204 F 
ATOM      9  O   UNL     1      33.947 -15.892 -25.258  0.00  0.00    -0.354 OA
ATOM     10  N   UNL     1      34.465 -17.101 -24.812  0.00  0.00    -0.081 NA
ATOM     11  C   UNL     1      34.756 -16.898 -23.530  0.00  0.00    +0.100 A 
ATOM     12  C   UNL     1      34.456 -15.598 -23.097  0.00  0.00    +0.054 A 
ATOM     13  C   UNL     1      33.942 -14.996 -24.232  0.00  0.00    +0.179 A 
ATOM     14  C   UNL     1      34.544 -14.854 -21.911  0.00  0.00    +0.007 C 
ATOM     15  C   UNL     1      33.499 -13.679 -24.289  0.00  0.00    +0.070 C 
ATOM     16  C   UNL     1      34.106 -13.521 -21.932  0.00  0.00    +0.030 C 
ATOM     17  C   UNL     1      33.593 -12.947 -23.100  0.00  0.00    +0.143 C 
ENDBRANCH   2  11
BRANCH   1  18
ATOM     18  C   UNL     1      36.148 -20.735 -19.469  0.00  0.00    -0.074 C 
BRANCH  18  19
ATOM     19  C   UNL     1      35.283 -21.984 -19.594  0.00  0.00    +0.025 C 
BRANCH  19  20
ATOM     20  C   UNL     1      34.203 -22.026 -18.521  0.00  0.00    +0.203 C 
BRANCH  20  21
ATOM     21  O   UNL     1      34.684 -22.774 -17.413  0.00  0.00    -0.472 OA
BRANCH  21  22
ATOM     22  C   UNL     1      33.765 -23.125 -16.459  0.00  0.00    +0.172 C 
ATOM     23  C   UNL     1      34.178 -23.750 -15.287  0.00  0.00    +0.172 C 
ATOM     24  C   UNL     1      32.420 -22.850 -16.678  0.00  0.00    +0.040 C 
ATOM     25  C   UNL     1      33.234 -24.103 -14.322  0.00  0.00    +0.043 C 
ATOM     26  C   UNL     1      31.475 -23.203 -15.714  0.00  0.00    +0.006 C 
ATOM     27  C   UNL     1      31.882 -23.830 -14.536  0.00  0.00    +0.038 C 
BRANCH  27  29
ATOM     28  O   UNL     1      30.972 -23.771 -12.360  0.00  0.00    -0.291 OA
ATOM     29  C   UNL     1      30.898 -24.198 -13.530  0.00  0.00    +0.174 C 
ATOM     30  C   UNL     1      29.740 -25.122 -13.891  0.00  0.00    +0.077 C 
ENDBRANCH  27  29
BRANCH  23  31
ATOM     31  O   UNL     1      35.495 -24.021 -15.066  0.00  0.00    -0.468 OA
ATOM     32  C   UNL     1      35.816 -25.324 -14.584  0.00  0.00    +0.253 C 
ENDBRANCH  23  31
ENDBRANCH  21  22
ENDBRANCH  20  21
ENDBRANCH  19  20
ENDBRANCH  18  19
ENDBRANCH   1  18
TORSDOF 8
ENDMDL
MODEL 3
REMARK VINA RESULT:     -11.9      4.387     11.940
REMARK  Name = 71360
REMARK  8 active torsions:
REMARK  status: ('A' for Active; 'I' for Inactive)
REMARK    1  A    between atoms: N_1  and  C_18
REMARK    2  A    between atoms: C_2  and  C_11
REMARK    3  A    between atoms: C_18  and  C_19
REMARK    4  A    between atoms: C_19  and  C_20
REMARK    5  A    between atoms: C_20  and  O_21
REMARK    6  A    between atoms: O_21  and  C_22
REMARK    7  A    between atoms: C_23  and  O_31
REMARK    8  A    between atoms: C_27  and  C_29
REMARK                            x       y       z     vdW  Elec       q    Type
REMARK                         _______ _______ _______ _____ _____    ______ ____
ROOT
ATOM      1  N   UNL     1      34.108 -15.964 -23.606  0.00  0.00    +0.387 N 
ATOM      2  C   UNL     1      35.677 -17.858 -22.006  0.00  0.00    +0.039 C 
ATOM      3  C   UNL     1      34.833 -18.298 -23.213  0.00  0.00    -0.017 C 
ATOM      4  C   UNL     1      35.110 -16.554 -21.421  0.00  0.00    -0.017 C 
ATOM      5  C   UNL     1      34.684 -17.163 -24.230  0.00  0.00    -0.077 C 
ATOM      6  C   UNL     1      34.952 -15.482 -22.502  0.00  0.00    -0.077 C 
ATOM      7  H   UNL     1      33.198 -16.216 -23.220  0.00  0.00    -0.080 HD
ENDROOT
BRANCH   2  11
ATOM      8  F   UNL     1      32.893 -22.685 -18.241  0.00  0.00    -0.204 F 
ATOM      9  O   UNL     1      36.819 -20.234 -19.550  0.00  0.00    -0.354 OA
ATOM     10  N   UNL     1      37.025 -19.198 -20.452  0.00  0.00    -0.081 NA
ATOM     11  C   UNL     1      35.824 -18.948 -20.968  0.00  0.00    +0.100 A 
ATOM     12  C   UNL     1      34.819 -19.777 -20.449  0.00  0.00    +0.054 A 
ATOM     13  C   UNL     1      35.501 -20.577 -19.549  0.00  0.00    +0.179 A 
ATOM     14  C   UNL     1      33.438 -19.959 -20.612  0.00  0.00    +0.007 C 
ATOM     15  C   UNL     1      34.909 -21.573 -18.779  0.00  0.00    +0.070 C 
ATOM     16  C   UNL     1      32.807 -20.954 -19.850  0.00  0.00    +0.030 C 
ATOM     17  C   UNL     1      33.531 -21.745 -18.951  0.00  0.00    +0.143 C 
ENDBRANCH   2  11
BRANCH   1  18
ATOM     18  C   UNL     1      33.920 -14.909 -24.603  0.00  0.00    -0.074 C 
BRANCH  18  19
ATOM     19  C   UNL     1      33.063 -13.786 -24.028  0.00  0.00    +0.025 C 
BRANCH  19  20
ATOM     20  C   UNL     1      33.817 -12.464 -24.006  0.00  0.00    +0.203 C 
BRANCH  20  21
ATOM     21  O   UNL     1      33.360 -11.693 -22.903  0.00  0.00    -0.472 OA
BRANCH  21  22
ATOM     22  C   UNL     1      33.447 -10.330 -23.023  0.00  0.00    +0.172 C 
ATOM     23  C   UNL     1      32.465  -9.516 -22.469  0.00  0.00    +0.172 C 
ATOM     24  C   UNL     1      34.525  -9.776 -23.704  0.00  0.00    +0.040 C 
ATOM     25  C   UNL     1      32.564  -8.130 -22.597  0.00  0.00    +0.043 C 
ATOM     26  C   UNL     1      34.624  -8.391 -23.832  0.00  0.00    +0.006 C 
ATOM     27  C   UNL     1      33.644  -7.568 -23.279  0.00  0.00    +0.038 C 
BRANCH  27  29
ATOM     28  O   UNL     1      33.076  -5.353 -22.695  0.00  0.00    -0.291 OA
ATOM     29  C   UNL     1      33.747  -6.123 -23.412  0.00  0.00    +0.174 C 
ATOM     30  C   UNL     1      34.691  -5.512 -24.442  0.00  0.00    +0.077 C 
ENDBRANCH  27  29
BRANCH  23  31
ATOM     31  O   UNL     1      31.407 -10.052 -21.800  0.00  0.00    -0.468 OA
ATOM     32  C   UNL     1      31.502 -10.114 -20.378  0.00  0.00    +0.253 C 
ENDBRANCH  23  31
ENDBRANCH  21  22
ENDBRANCH  20  21
ENDBRANCH  19  20
ENDBRANCH  18  19
ENDBRANCH   1  18
TORSDOF 8
ENDMDL
MODEL 4
REMARK VINA RESULT:     -11.8      4.277     11.720
REMARK  Name = 71360
REMARK  8 active torsions:
REMARK  status: ('A' for Active; 'I' for Inactive)
REMARK    1  A    between atoms: N_1  and  C_18
REMARK    2  A    between atoms: C_2  and  C_11
REMARK    3  A    between atoms: C_18  and  C_19
REMARK    4  A    between atoms: C_19  and  C_20
REMARK    5  A    between atoms: C_20  and  O_21
REMARK    6  A    between atoms: O_21  and  C_22
REMARK    7  A    between atoms: C_23  and  O_31
REMARK    8  A    between atoms: C_27  and  C_29
REMARK                            x       y       z     vdW  Elec       q    Type
REMARK                         _______ _______ _______ _____ _____    ______ ____
ROOT
ATOM      1  N   UNL     1      35.024 -16.218 -23.851  0.00  0.00    +0.387 N 
ATOM      2  C   UNL     1      34.758 -18.150 -21.659  0.00  0.00    +0.039 C 
ATOM      3  C   UNL     1      35.451 -16.791 -21.481  0.00  0.00    -0.017 C 
ATOM      4  C   UNL     1      34.822 -18.579 -23.135  0.00  0.00    -0.017 C 
ATOM      5  C   UNL     1      34.900 -15.753 -22.463  0.00  0.00    -0.077 C 
ATOM      6  C   UNL     1      34.293 -17.477 -24.056  0.00  0.00    -0.077 C 
ATOM      7  H   UNL     1      36.012 -16.394 -24.037  0.00  0.00    -0.080 HD
ENDROOT
BRANCH   2  11
ATOM      8  F   UNL     1      33.646 -23.379 -17.579  0.00  0.00    -0.204 F 
ATOM      9  O   UNL     1      36.763 -20.324 -19.600  0.00  0.00    -0.354 OA
ATOM     10  N   UNL     1      36.603 -19.264 -20.484  0.00  0.00    -0.081 NA
ATOM     11  C   UNL     1      35.295 -19.208 -20.721  0.00  0.00    +0.100 A 
ATOM     12  C   UNL     1      34.569 -20.189 -20.031  0.00  0.00    +0.054 A 
ATOM     13  C   UNL     1      35.547 -20.874 -19.331  0.00  0.00    +0.179 A 
ATOM     14  C   UNL     1      33.231 -20.590 -19.902  0.00  0.00    +0.007 C 
ATOM     15  C   UNL     1      35.298 -21.955 -18.491  0.00  0.00    +0.070 C 
ATOM     16  C   UNL     1      32.944 -21.677 -19.062  0.00  0.00    +0.030 C 
ATOM     17  C   UNL     1      33.960 -22.345 -18.371  0.00  0.00    +0.143 C 
ENDBRANCH   2  11
BRANCH   1  18
ATOM     18  C   UNL     1      34.546 -15.193 -24.779  0.00  0.00    -0.074 C 
BRANCH  18  19
ATOM     19  C   UNL     1      33.467 -14.343 -24.118  0.00  0.00    +0.025 C 
BRANCH  19  20
ATOM     20  C   UNL     1      33.784 -12.857 -24.222  0.00  0.00    +0.203 C 
BRANCH  20  21
ATOM     21  O   UNL     1      33.172 -12.179 -23.133  0.00  0.00    -0.472 OA
BRANCH  21  22
ATOM     22  C   UNL     1      33.313 -10.817 -23.095  0.00  0.00    +0.172 C 
ATOM     23  C   UNL     1      32.406 -10.039 -22.384  0.00  0.00    +0.172 C 
ATOM     24  C   UNL     1      34.372 -10.225 -23.776  0.00  0.00    +0.040 C 
ATOM     25  C   UNL     1      32.560  -8.652 -22.352  0.00  0.00    +0.043 C 
ATOM     26  C   UNL     1      34.526  -8.839 -23.744  0.00  0.00    +0.006 C 
ATOM     27  C   UNL     1      33.620  -8.053 -23.033  0.00  0.00    +0.038 C 
BRANCH  27  29
ATOM     28  O   UNL     1      33.216  -5.909 -22.134  0.00  0.00    -0.291 OA
ATOM     29  C   UNL     1      33.781  -6.607 -23.000  0.00  0.00    +0.174 C 
ATOM     30  C   UNL     1      34.655  -5.908 -24.035  0.00  0.00    +0.077 C 
ENDBRANCH  27  29
BRANCH  23  31
ATOM     31  O   UNL     1      31.367 -10.612 -21.715  0.00  0.00    -0.468 OA
ATOM     32  C   UNL     1      31.327 -10.430 -20.301  0.00  0.00    +0.253 C 
ENDBRANCH  23  31
ENDBRANCH  21  22
ENDBRANCH  20  21
ENDBRANCH  19  20
ENDBRANCH  18  19
ENDBRANCH   1  18
TORSDOF 8
ENDMDL
MODEL 5
REMARK VINA RESULT:     -11.5      2.952      5.632
REMARK  Name = 71360
REMARK  8 active torsions:
REMARK  status: ('A' for Active; 'I' for Inactive)
REMARK    1  A    between atoms: N_1  and  C_18
REMARK    2  A    between atoms: C_2  and  C_11
REMARK    3  A    between atoms: C_18  and  C_19
REMARK    4  A    between atoms: C_19  and  C_20
REMARK    5  A    between atoms: C_20  and  O_21
REMARK    6  A    between atoms: O_21  and  C_22
REMARK    7  A    between atoms: C_23  and  O_31
REMARK    8  A    between atoms: C_27  and  C_29
REMARK                            x       y       z     vdW  Elec       q    Type
REMARK                         _______ _______ _______ _____ _____    ______ ____
ROOT
ATOM      1  N   UNL     1      34.931 -15.554 -23.446  0.00  0.00    +0.387 N 
ATOM      2  C   UNL     1      33.133 -13.359 -22.698  0.00  0.00    +0.039 C 
ATOM      3  C   UNL     1      33.440 -13.712 -24.162  0.00  0.00    -0.017 C 
ATOM      4  C   UNL     1      34.289 -13.824 -21.797  0.00  0.00    -0.017 C 
ATOM      5  C   UNL     1      33.801 -15.193 -24.313  0.00  0.00    -0.077 C 
ATOM      6  C   UNL     1      34.618 -15.300 -22.032  0.00  0.00    -0.077 C 
ATOM      7  H   UNL     1      35.725 -14.967 -23.703  0.00  0.00    -0.080 HD
ENDROOT
BRANCH   2  11
ATOM      8  F   UNL     1      34.496  -6.893 -23.945  0.00  0.00    -0.204 F 
ATOM      9  O   UNL     1      31.716 -10.173 -21.790  0.00  0.00    -0.354 OA
ATOM     10  N   UNL     1      31.749 -11.562 -21.760  0.00  0.00    -0.081 NA
ATOM     11  C   UNL     1      32.796 -11.897 -22.509  0.00  0.00    +0.100 A 
ATOM     12  C   UNL     1      33.468 -10.788 -23.043  0.00  0.00    +0.054 A 
ATOM     13  C   UNL     1      32.743  -9.713 -22.556  0.00  0.00    +0.179 A 
ATOM     14  C   UNL     1      34.581 -10.544 -23.862  0.00  0.00    +0.007 C 
ATOM     15  C   UNL     1      33.039  -8.381 -22.826  0.00  0.00    +0.070 C 
ATOM     16  C   UNL     1      34.908  -9.212 -24.154  0.00  0.00    +0.030 C 
ATOM     17  C   UNL     1      34.151  -8.152 -23.644  0.00  0.00    +0.143 C 
ENDBRANCH   2  11
BRANCH   1  18
ATOM     18  C   UNL     1      35.300 -16.956 -23.644  0.00  0.00    -0.074 C 
BRANCH  18  19
ATOM     19  C   UNL     1      34.052 -17.807 -23.849  0.00  0.00    +0.025 C 
BRANCH  19  20
ATOM     20  C   UNL     1      34.136 -19.118 -23.080  0.00  0.00    +0.203 C 
BRANCH  20  21
ATOM     21  O   UNL     1      34.774 -18.879 -21.833  0.00  0.00    -0.472 OA
BRANCH  21  22
ATOM     22  C   UNL     1      34.503 -19.762 -20.820  0.00  0.00    +0.172 C 
ATOM     23  C   UNL     1      35.541 -20.315 -20.077  0.00  0.00    +0.172 C 
ATOM     24  C   UNL     1      33.182 -20.097 -20.547  0.00  0.00    +0.040 C 
ATOM     25  C   UNL     1      35.253 -21.213 -19.049  0.00  0.00    +0.043 C 
ATOM     26  C   UNL     1      32.893 -20.994 -19.519  0.00  0.00    +0.006 C 
ATOM     27  C   UNL     1      33.929 -21.553 -18.770  0.00  0.00    +0.038 C 
BRANCH  27  29
ATOM     28  O   UNL     1      34.509 -23.228 -17.214  0.00  0.00    -0.291 OA
ATOM     29  C   UNL     1      33.629 -22.488 -17.698  0.00  0.00    +0.174 C 
ATOM     30  C   UNL     1      32.215 -22.584 -17.136  0.00  0.00    +0.077 C 
ENDBRANCH  27  29
BRANCH  23  31
ATOM     31  O   UNL     1      36.838 -19.991 -20.339  0.00  0.00    -0.468 OA
ATOM     32  C   UNL     1      37.138 -18.607 -20.511  0.00  0.00    +0.253 C 
ENDBRANCH  23  31
ENDBRANCH  21  22
ENDBRANCH  20  21
ENDBRANCH  19  20
ENDBRANCH  18  19
ENDBRANCH   1  18
TORSDOF 8
ENDMDL
MODEL 6
REMARK VINA RESULT:     -11.4      1.419      1.933
REMARK  Name = 71360
REMARK  8 active torsions:
REMARK  status: ('A' for Active; 'I' for Inactive)
REMARK    1  A    between atoms: N_1  and  C_18
REMARK    2  A    between atoms: C_2  and  C_11
REMARK    3  A    between atoms: C_18  and  C_19
REMARK    4  A    between atoms: C_19  and  C_20
REMARK    5  A    between atoms: C_20  and  O_21
REMARK    6  A    between atoms: O_21  and  C_22
REMARK    7  A    between atoms: C_23  and  O_31
REMARK    8  A    between atoms: C_27  and  C_29
REMARK                            x       y       z     vdW  Elec       q    Type
REMARK                         _______ _______ _______ _____ _____    ______ ____
ROOT
ATOM      1  N   UNL     1      35.857 -19.657 -20.324  0.00  0.00    +0.387 N 
ATOM      2  C   UNL     1      35.395 -18.082 -22.755  0.00  0.00    +0.039 C 
ATOM      3  C   UNL     1      36.314 -17.600 -21.622  0.00  0.00    -0.017 C 
ATOM      4  C   UNL     1      34.354 -19.067 -22.199  0.00  0.00    -0.017 C 
ATOM      5  C   UNL     1      36.911 -18.780 -20.850  0.00  0.00    -0.077 C 
ATOM      6  C   UNL     1      35.022 -20.194 -21.408  0.00  0.00    -0.077 C 
ATOM      7  H   UNL     1      35.260 -19.100 -19.713  0.00  0.00    -0.080 HD
ENDROOT
BRANCH   2  11
ATOM      8  F   UNL     1      33.168 -11.738 -22.911  0.00  0.00    -0.204 F 
ATOM      9  O   UNL     1      33.898 -15.903 -25.204  0.00  0.00    -0.354 OA
ATOM     10  N   UNL     1      34.439 -17.118 -24.801  0.00  0.00    -0.081 NA
ATOM     11  C   UNL     1      34.767 -16.941 -23.523  0.00  0.00    +0.100 A 
ATOM     12  C   UNL     1      34.469 -15.653 -23.053  0.00  0.00    +0.054 A 
ATOM     13  C   UNL     1      33.917 -15.031 -24.158  0.00  0.00    +0.179 A 
ATOM     14  C   UNL     1      34.587 -14.934 -21.854  0.00  0.00    +0.007 C 
ATOM     15  C   UNL     1      33.462 -13.716 -24.173  0.00  0.00    +0.070 C 
ATOM     16  C   UNL     1      34.138 -13.606 -21.832  0.00  0.00    +0.030 C 
ATOM     17  C   UNL     1      33.586 -13.010 -22.971  0.00  0.00    +0.143 C 
ENDBRANCH   2  11
BRANCH   1  18
ATOM     18  C   UNL     1      36.442 -20.747 -19.542  0.00  0.00    -0.074 C 
BRANCH  18  19
ATOM     19  C   UNL     1      35.347 -21.542 -18.841  0.00  0.00    +0.025 C 
BRANCH  19  20
ATOM     20  C   UNL     1      35.828 -22.104 -17.510  0.00  0.00    +0.203 C 
BRANCH  20  21
ATOM     21  O   UNL     1      34.705 -22.566 -16.773  0.00  0.00    -0.472 OA
BRANCH  21  22
ATOM     22  C   UNL     1      34.933 -22.963 -15.481  0.00  0.00    +0.172 C 
ATOM     23  C   UNL     1      33.908 -23.529 -14.731  0.00  0.00    +0.172 C 
ATOM     24  C   UNL     1      36.199 -22.790 -14.932  0.00  0.00    +0.040 C 
ATOM     25  C   UNL     1      34.153 -23.928 -13.417  0.00  0.00    +0.043 C 
ATOM     26  C   UNL     1      36.444 -23.189 -13.618  0.00  0.00    +0.006 C 
ATOM     27  C   UNL     1      35.421 -23.758 -12.860  0.00  0.00    +0.038 C 
BRANCH  27  29
ATOM     28  O   UNL     1      34.879 -24.912 -10.875  0.00  0.00    -0.291 OA
ATOM     29  C   UNL     1      35.676 -24.175 -11.490  0.00  0.00    +0.174 C 
ATOM     30  C   UNL     1      36.938 -23.713 -10.769  0.00  0.00    +0.077 C 
ENDBRANCH  27  29
BRANCH  23  31
ATOM     31  O   UNL     1      32.666 -23.701 -15.263  0.00  0.00    -0.468 OA
ATOM     32  C   UNL     1      31.556 -23.541 -14.383  0.00  0.00    +0.253 C 
ENDBRANCH  23  31
ENDBRANCH  21  22
ENDBRANCH  20  21
ENDBRANCH  19  20
ENDBRANCH  18  19
ENDBRANCH   1  18
TORSDOF 8
ENDMDL
MODEL 7
REMARK VINA RESULT:     -11.4      6.041     13.388
REMARK  Name = 71360
REMARK  8 active torsions:
REMARK  status: ('A' for Active; 'I' for Inactive)
REMARK    1  A    between atoms: N_1  and  C_18
REMARK    2  A    between atoms: C_2  and  C_11
REMARK    3  A    between atoms: C_18  and  C_19
REMARK    4  A    between atoms: C_19  and  C_20
REMARK    5  A    between atoms: C_20  and  O_21
REMARK    6  A    between atoms: O_21  and  C_22
REMARK    7  A    between atoms: C_23  and  O_31
REMARK    8  A    between atoms: C_27  and  C_29
REMARK                            x       y       z     vdW  Elec       q    Type
REMARK                         _______ _______ _______ _____ _____    ______ ____
ROOT
ATOM      1  N   UNL     1      33.320 -11.881 -23.633  0.00  0.00    +0.387 N 
ATOM      2  C   UNL     1      34.458 -14.569 -23.934  0.00  0.00    +0.039 C 
ATOM      3  C   UNL     1      33.588 -13.914 -25.019  0.00  0.00    -0.017 C 
ATOM      4  C   UNL     1      34.122 -13.963 -22.562  0.00  0.00    -0.017 C 
ATOM      5  C   UNL     1      33.685 -12.387 -24.963  0.00  0.00    -0.077 C 
ATOM      6  C   UNL     1      34.200 -12.435 -22.594  0.00  0.00    -0.077 C 
ATOM      7  H   UNL     1      32.367 -12.184 -23.432  0.00  0.00    -0.080 HD
ENDROOT
BRANCH   2  11
ATOM      8  F   UNL     1      35.536 -20.457 -20.870  0.00  0.00    -0.204 F 
ATOM      9  O   UNL     1      33.903 -18.046 -24.698  0.00  0.00    -0.354 OA
ATOM     10  N   UNL     1      33.840 -16.692 -25.002  0.00  0.00    -0.081 NA
ATOM     11  C   UNL     1      34.367 -16.078 -23.945  0.00  0.00    +0.100 A 
ATOM     12  C   UNL     1      34.779 -16.968 -22.942  0.00  0.00    +0.054 A 
ATOM     13  C   UNL     1      34.464 -18.208 -23.468  0.00  0.00    +0.179 A 
ATOM     14  C   UNL     1      35.373 -16.897 -21.673  0.00  0.00    +0.007 C 
ATOM     15  C   UNL     1      34.693 -19.417 -22.819  0.00  0.00    +0.070 C 
ATOM     16  C   UNL     1      35.619 -18.097 -20.989  0.00  0.00    +0.030 C 
ATOM     17  C   UNL     1      35.285 -19.333 -21.554  0.00  0.00    +0.143 C 
ENDBRANCH   2  11
BRANCH   1  18
ATOM     18  C   UNL     1      33.363 -10.419 -23.612  0.00  0.00    -0.074 C 
BRANCH  18  19
ATOM     19  C   UNL     1      34.747  -9.925 -24.017  0.00  0.00    +0.025 C 
BRANCH  19  20
ATOM     20  C   UNL     1      34.791  -8.406 -24.117  0.00  0.00    +0.203 C 
BRANCH  20  21
ATOM     21  O   UNL     1      34.623  -7.855 -22.818  0.00  0.00    -0.472 OA
BRANCH  21  22
ATOM     22  C   UNL     1      33.848  -6.728 -22.719  0.00  0.00    +0.172 C 
ATOM     23  C   UNL     1      33.090  -6.498 -21.576  0.00  0.00    +0.172 C 
ATOM     24  C   UNL     1      33.831  -5.823 -23.775  0.00  0.00    +0.040 C 
ATOM     25  C   UNL     1      32.305  -5.348 -21.488  0.00  0.00    +0.043 C 
ATOM     26  C   UNL     1      33.047  -4.673 -23.686  0.00  0.00    +0.006 C 
ATOM     27  C   UNL     1      32.284  -4.435 -22.543  0.00  0.00    +0.038 C 
BRANCH  27  29
ATOM     28  O   UNL     1      30.400  -3.223 -21.803  0.00  0.00    -0.291 OA
ATOM     29  C   UNL     1      31.466  -3.236 -22.451  0.00  0.00    +0.174 C 
ATOM     30  C   UNL     1      31.902  -1.953 -23.151  0.00  0.00    +0.077 C 
ENDBRANCH  27  29
BRANCH  23  31
ATOM     31  O   UNL     1      33.103  -7.381 -20.539  0.00  0.00    -0.468 OA
ATOM     32  C   UNL     1      32.085  -8.380 -20.525  0.00  0.00    +0.253 C 
ENDBRANCH  23  31
ENDBRANCH  21  22
ENDBRANCH  20  21
ENDBRANCH  19  20
ENDBRANCH  18  19
ENDBRANCH   1  18
TORSDOF 8
ENDMDL
MODEL 8
REMARK VINA RESULT:     -11.4      5.031      8.877
REMARK  Name = 71360
REMARK  8 active torsions:
REMARK  status: ('A' for Active; 'I' for Inactive)
REMARK    1  A    between atoms: N_1  and  C_18
REMARK    2  A    between atoms: C_2  and  C_11
REMARK    3  A    between atoms: C_18  and  C_19
REMARK    4  A    between atoms: C_19  and  C_20
REMARK    5  A    between atoms: C_20  and  O_21
REMARK    6  A    between atoms: O_21  and  C_22
REMARK    7  A    between atoms: C_23  and  O_31
REMARK    8  A    between atoms: C_27  and  C_29
REMARK                            x       y       z     vdW  Elec       q    Type
REMARK                         _______ _______ _______ _____ _____    ______ ____
ROOT
ATOM      1  N   UNL     1      33.061 -12.302 -22.008  0.00  0.00    +0.387 N 
ATOM      2  C   UNL     1      31.892  -9.614 -22.124  0.00  0.00    +0.039 C 
ATOM      3  C   UNL     1      33.195  -9.979 -22.853  0.00  0.00    -0.017 C 
ATOM      4  C   UNL     1      31.684 -10.554 -20.925  0.00  0.00    -0.017 C 
ATOM      5  C   UNL     1      33.235 -11.469 -23.205  0.00  0.00    -0.077 C 
ATOM      6  C   UNL     1      31.778 -12.022 -21.347  0.00  0.00    -0.077 C 
ATOM      7  H   UNL     1      33.809 -12.072 -21.353  0.00  0.00    -0.080 HD
ENDROOT
BRANCH   2  11
ATOM      8  F   UNL     1      31.181  -3.173 -23.923  0.00  0.00    -0.204 F 
ATOM      9  O   UNL     1      31.856  -6.426 -20.444  0.00  0.00    -0.354 OA
ATOM     10  N   UNL     1      31.959  -7.811 -20.458  0.00  0.00    -0.081 NA
ATOM     11  C   UNL     1      31.830  -8.153 -21.737  0.00  0.00    +0.100 A 
ATOM     12  C   UNL     1      31.641  -7.051 -22.584  0.00  0.00    +0.054 A 
ATOM     13  C   UNL     1      31.667  -5.974 -21.715  0.00  0.00    +0.179 A 
ATOM     14  C   UNL     1      31.456  -6.816 -23.955  0.00  0.00    +0.007 C 
ATOM     15  C   UNL     1      31.516  -4.647 -22.105  0.00  0.00    +0.070 C 
ATOM     16  C   UNL     1      31.302  -5.489 -24.384  0.00  0.00    +0.030 C 
ATOM     17  C   UNL     1      31.332  -4.426 -23.475  0.00  0.00    +0.143 C 
ENDBRANCH   2  11
BRANCH   1  18
ATOM     18  C   UNL     1      33.159 -13.720 -22.353  0.00  0.00    -0.074 C 
BRANCH  18  19
ATOM     19  C   UNL     1      34.146 -13.920 -23.497  0.00  0.00    +0.025 C 
BRANCH  19  20
ATOM     20  C   UNL     1      33.897 -15.231 -24.230  0.00  0.00    +0.203 C 
BRANCH  20  21
ATOM     21  O   UNL     1      35.053 -16.049 -24.115  0.00  0.00    -0.472 OA
BRANCH  21  22
ATOM     22  C   UNL     1      35.021 -17.036 -23.165  0.00  0.00    +0.172 C 
ATOM     23  C   UNL     1      34.508 -18.291 -23.478  0.00  0.00    +0.172 C 
ATOM     24  C   UNL     1      35.505 -16.767 -21.890  0.00  0.00    +0.040 C 
ATOM     25  C   UNL     1      34.480 -19.288 -22.503  0.00  0.00    +0.043 C 
ATOM     26  C   UNL     1      35.478 -17.764 -20.915  0.00  0.00    +0.006 C 
ATOM     27  C   UNL     1      34.965 -19.025 -21.221  0.00  0.00    +0.038 C 
BRANCH  27  29
ATOM     28  O   UNL     1      35.976 -20.431 -19.620  0.00  0.00    -0.291 OA
ATOM     29  C   UNL     1      34.937 -20.065 -20.204  0.00  0.00    +0.174 C 
ATOM     30  C   UNL     1      33.620 -20.735 -19.828  0.00  0.00    +0.077 C 
ENDBRANCH  27  29
BRANCH  23  31
ATOM     31  O   UNL     1      34.033 -18.561 -24.725  0.00  0.00    -0.468 OA
ATOM     32  C   UNL     1      32.635 -18.819 -24.845  0.00  0.00    +0.253 C 
ENDBRANCH  23  31
ENDBRANCH  21  22
ENDBRANCH  20  21
ENDBRANCH  19  20
ENDBRANCH  18  19
ENDBRANCH   1  18
TORSDOF 8
ENDMDL
MODEL 9
REMARK VINA RESULT:     -11.3      7.265     14.245
REMARK  Name = 71360
REMARK  8 active torsions:
REMARK  status: ('A' for Active; 'I' for Inactive)
REMARK    1  A    between atoms: N_1  and  C_18
REMARK    2  A    between atoms: C_2  and  C_11
REMARK    3  A    between atoms: C_18  and  C_19
REMARK    4  A    between atoms: C_19  and  C_20
REMARK    5  A    between atoms: C_20  and  O_21
REMARK    6  A    between atoms: O_21  and  C_22
REMARK    7  A    between atoms: C_23  and  O_31
REMARK    8  A    between atoms: C_27  and  C_29
REMARK                            x       y       z     vdW  Elec       q    Type
REMARK                         _______ _______ _______ _____ _____    ______ ____
ROOT
ATOM      1  N   UNL     1      31.881 -10.026 -22.516  0.00  0.00    +0.387 N 
ATOM      2  C   UNL     1      33.477 -12.434 -23.028  0.00  0.00    +0.039 C 
ATOM      3  C   UNL     1      33.434 -11.250 -24.006  0.00  0.00    -0.017 C 
ATOM      4  C   UNL     1      32.193 -12.458 -22.181  0.00  0.00    -0.017 C 
ATOM      5  C   UNL     1      33.135  -9.937 -23.277  0.00  0.00    -0.077 C 
ATOM      6  C   UNL     1      31.941 -11.103 -21.517  0.00  0.00    -0.077 C 
ATOM      7  H   UNL     1      31.131 -10.246 -23.171  0.00  0.00    -0.080 HD
ENDROOT
BRANCH   2  11
ATOM      8  F   UNL     1      35.744 -18.760 -22.757  0.00  0.00    -0.204 F 
ATOM      9  O   UNL     1      33.799 -15.189 -25.328  0.00  0.00    -0.354 OA
ATOM     10  N   UNL     1      33.436 -13.888 -25.006  0.00  0.00    -0.081 NA
ATOM     11  C   UNL     1      33.745 -13.752 -23.719  0.00  0.00    +0.100 A 
ATOM     12  C   UNL     1      34.300 -14.914 -23.162  0.00  0.00    +0.054 A 
ATOM     13  C   UNL     1      34.315 -15.800 -24.225  0.00  0.00    +0.179 A 
ATOM     14  C   UNL     1      34.790 -15.335 -21.917  0.00  0.00    +0.007 C 
ATOM     15  C   UNL     1      34.787 -17.106 -24.150  0.00  0.00    +0.070 C 
ATOM     16  C   UNL     1      35.275 -16.646 -21.805  0.00  0.00    +0.030 C 
ATOM     17  C   UNL     1      35.272 -17.514 -22.903  0.00  0.00    +0.143 C 
ENDBRANCH   2  11
BRANCH   1  18
ATOM     18  C   UNL     1      31.582  -8.747 -21.872  0.00  0.00    -0.074 C 
BRANCH  18  19
ATOM     19  C   UNL     1      32.425  -8.579 -20.613  0.00  0.00    +0.025 C 
BRANCH  19  20
ATOM     20  C   UNL     1      33.334  -7.361 -20.706  0.00  0.00    +0.203 C 
BRANCH  20  21
ATOM     21  O   UNL     1      32.609  -6.290 -21.296  0.00  0.00    -0.472 OA
BRANCH  21  22
ATOM     22  C   UNL     1      33.066  -5.823 -22.500  0.00  0.00    +0.172 C 
ATOM     23  C   UNL     1      32.382  -4.808 -23.161  0.00  0.00    +0.172 C 
ATOM     24  C   UNL     1      34.217  -6.377 -23.050  0.00  0.00    +0.040 C 
ATOM     25  C   UNL     1      32.857  -4.340 -24.387  0.00  0.00    +0.043 C 
ATOM     26  C   UNL     1      34.691  -5.909 -24.276  0.00  0.00    +0.006 C 
ATOM     27  C   UNL     1      34.011  -4.892 -24.945  0.00  0.00    +0.038 C 
BRANCH  27  29
ATOM     28  O   UNL     1      33.727  -4.087 -27.144  0.00  0.00    -0.291 OA
ATOM     29  C   UNL     1      34.506  -4.404 -26.223  0.00  0.00    +0.174 C 
ATOM     30  C   UNL     1      36.005  -4.267 -26.464  0.00  0.00    +0.077 C 
ENDBRANCH  27  29
BRANCH  23  31
ATOM     31  O   UNL     1      31.255  -4.261 -22.627  0.00  0.00    -0.468 OA
ATOM     32  C   UNL     1      31.229  -2.843 -22.481  0.00  0.00    +0.253 C 
ENDBRANCH  23  31
ENDBRANCH  21  22
ENDBRANCH  20  21
ENDBRANCH  19  20
ENDBRANCH  18  19
ENDBRANCH   1  18
TORSDOF 8
ENDMDL
