MODEL 1
REMARK VINA RESULT:     -11.8      0.000      0.000
REMARK  Name = 25101874
REMARK  5 active torsions:
REMARK  status: ('A' for Active; 'I' for Inactive)
REMARK    1  A    between atoms: N_1  and  C_22
REMARK    2  A    between atoms: C_2  and  N_8
REMARK    3  A    between atoms: N_8  and  C_11
REMARK    4  A    between atoms: C_11  and  C_14
REMARK    5  A    between atoms: C_22  and  C_28
REMARK                            x       y       z     vdW  Elec       q    Type
REMARK                         _______ _______ _______ _____ _____    ______ ____
ROOT
ATOM      1  N   UNL     1      33.946 -22.410 -19.085  0.00  0.00    +0.388 N 
ATOM      2  C   UNL     1      34.993 -19.931 -20.233  0.00  0.00    -0.066 C 
ATOM      3  C   UNL     1      35.334 -22.000 -18.831  0.00  0.00    -0.079 C 
ATOM      4  C   UNL     1      33.070 -21.244 -19.261  0.00  0.00    -0.079 C 
ATOM      5  C   UNL     1      35.880 -21.153 -19.983  0.00  0.00    -0.044 C 
ATOM      6  C   UNL     1      33.540 -20.372 -20.429  0.00  0.00    -0.044 C 
ATOM      7  H   UNL     1      33.932 -22.947 -19.952  0.00  0.00    -0.080 HD
ENDROOT
BRANCH   2   8
ATOM      8  N   UNL     1      35.474 -19.188 -21.396  0.00  0.00    +0.389 N 
ATOM      9  H   UNL     1      34.800 -19.283 -22.156  0.00  0.00    -0.084 HD
ATOM     10  H   UNL     1      36.380 -19.566 -21.674  0.00  0.00    -0.084 HD
BRANCH   8  11
ATOM     11  C   UNL     1      35.637 -17.777 -21.076  0.00  0.00    -0.034 C 
BRANCH  11  14
ATOM     12  O   UNL     1      33.790 -14.639 -25.322  0.00  0.00    -0.474 OA
ATOM     13  N   UNL     1      35.009 -17.460 -23.404  0.00  0.00    -0.247 NA
ATOM     14  C   UNL     1      35.140 -16.889 -22.186  0.00  0.00    +0.037 C 
ATOM     15  C   UNL     1      34.850 -15.561 -21.914  0.00  0.00    +0.011 C 
ATOM     16  C   UNL     1      34.397 -14.756 -22.961  0.00  0.00    +0.015 C 
ATOM     17  C   UNL     1      34.071 -13.311 -22.717  0.00  0.00    +0.033 C 
ATOM     18  C   UNL     1      34.229 -15.324 -24.225  0.00  0.00    +0.154 C 
ATOM     19  C   UNL     1      33.989 -12.559 -24.040  0.00  0.00    +0.052 C 
ATOM     20  C   UNL     1      34.557 -16.661 -24.396  0.00  0.00    +0.135 C 
ATOM     21  C   UNL     1      33.177 -13.377 -25.033  0.00  0.00    +0.206 C 
ENDBRANCH  11  14
ENDBRANCH   8  11
ENDBRANCH   2   8
BRANCH   1  22
ATOM     22  C   UNL     1      33.456 -23.260 -18.000  0.00  0.00    -0.055 C 
BRANCH  22  28
ATOM     23  O   UNL     1      30.373 -22.442 -16.841  0.00  0.00    -0.273 OA
ATOM     24  O   UNL     1      36.279 -23.906 -13.543  0.00  0.00    -0.270 OA
ATOM     25  N   UNL     1      32.380 -22.988 -15.780  0.00  0.00    -0.261 N 
ATOM     26  N   UNL     1      34.291 -23.463 -14.654  0.00  0.00    -0.255 N 
ATOM     27  N   UNL     1      30.828 -24.094 -13.723  0.00  0.00    -0.262 NA
ATOM     28  C   UNL     1      33.450 -22.506 -16.676  0.00  0.00    +0.076 C 
ATOM     29  C   UNL     1      34.748 -22.759 -15.861  0.00  0.00    +0.113 C 
ATOM     30  C   UNL     1      32.931 -23.534 -14.666  0.00  0.00    +0.196 C 
ATOM     31  C   UNL     1      32.198 -24.063 -13.691  0.00  0.00    +0.092 C 
ATOM     32  C   UNL     1      31.019 -22.924 -15.924  0.00  0.00    +0.252 C 
ATOM     33  C   UNL     1      35.054 -23.953 -13.612  0.00  0.00    +0.251 C 
ATOM     34  C   UNL     1      32.906 -24.614 -12.557  0.00  0.00    +0.022 C 
ATOM     35  C   UNL     1      30.264 -23.559 -14.767  0.00  0.00    +0.210 C 
ATOM     36  C   UNL     1      34.251 -24.577 -12.499  0.00  0.00    +0.059 C 
ENDBRANCH  22  28
ENDBRANCH   1  22
TORSDOF 5
ENDMDL
MODEL 2
REMARK VINA RESULT:     -11.6      4.867     12.296
REMARK  Name = 25101874
REMARK  5 active torsions:
REMARK  status: ('A' for Active; 'I' for Inactive)
REMARK    1  A    between atoms: N_1  and  C_22
REMARK    2  A    between atoms: C_2  and  N_8
REMARK    3  A    between atoms: N_8  and  C_11
REMARK    4  A    between atoms: C_11  and  C_14
REMARK    5  A    between atoms: C_22  and  C_28
REMARK                            x       y       z     vdW  Elec       q    Type
REMARK                         _______ _______ _______ _____ _____    ______ ____
ROOT
ATOM      1  N   UNL     1      33.565 -12.355 -23.081  0.00  0.00    +0.388 N 
ATOM      2  C   UNL     1      34.359 -15.139 -23.505  0.00  0.00    -0.066 C 
ATOM      3  C   UNL     1      34.460 -13.027 -22.129  0.00  0.00    -0.079 C 
ATOM      4  C   UNL     1      33.746 -12.877 -24.442  0.00  0.00    -0.079 C 
ATOM      5  C   UNL     1      34.209 -14.537 -22.106  0.00  0.00    -0.044 C 
ATOM      6  C   UNL     1      33.471 -14.382 -24.497  0.00  0.00    -0.044 C 
ATOM      7  H   UNL     1      32.605 -12.546 -22.796  0.00  0.00    -0.080 HD
ENDROOT
BRANCH   2   8
ATOM      8  N   UNL     1      34.022 -16.561 -23.482  0.00  0.00    +0.389 N 
ATOM      9  H   UNL     1      33.402 -16.770 -24.264  0.00  0.00    -0.084 HD
ATOM     10  H   UNL     1      33.562 -16.773 -22.597  0.00  0.00    -0.084 HD
BRANCH   8  11
ATOM     11  C   UNL     1      35.221 -17.378 -23.591  0.00  0.00    -0.034 C 
BRANCH  11  14
ATOM     12  O   UNL     1      35.972 -20.805 -19.235  0.00  0.00    -0.474 OA
ATOM     13  N   UNL     1      36.618 -18.464 -21.923  0.00  0.00    -0.247 NA
ATOM     14  C   UNL     1      35.371 -18.314 -22.422  0.00  0.00    +0.037 C 
ATOM     15  C   UNL     1      34.251 -18.964 -21.925  0.00  0.00    +0.011 C 
ATOM     16  C   UNL     1      34.416 -19.832 -20.844  0.00  0.00    +0.015 C 
ATOM     17  C   UNL     1      33.235 -20.560 -20.271  0.00  0.00    +0.033 C 
ATOM     18  C   UNL     1      35.689 -19.988 -20.292  0.00  0.00    +0.154 C 
ATOM     19  C   UNL     1      33.702 -21.716 -19.396  0.00  0.00    +0.052 C 
ATOM     20  C   UNL     1      36.747 -19.300 -20.870  0.00  0.00    +0.135 C 
ATOM     21  C   UNL     1      34.827 -21.238 -18.490  0.00  0.00    +0.206 C 
ENDBRANCH  11  14
ENDBRANCH   8  11
ENDBRANCH   2   8
BRANCH   1  22
ATOM     22  C   UNL     1      33.782 -10.909 -23.054  0.00  0.00    -0.055 C 
BRANCH  22  28
ATOM     23  O   UNL     1      31.962 -12.056 -20.429  0.00  0.00    -0.273 OA
ATOM     24  O   UNL     1      32.581  -5.732 -23.173  0.00  0.00    -0.270 OA
ATOM     25  N   UNL     1      32.243  -9.936 -21.366  0.00  0.00    -0.261 N 
ATOM     26  N   UNL     1      32.415  -7.846 -22.229  0.00  0.00    -0.255 N 
ATOM     27  N   UNL     1      31.868  -8.901 -18.787  0.00  0.00    -0.262 NA
ATOM     28  C   UNL     1      32.476 -10.164 -22.806  0.00  0.00    +0.076 C 
ATOM     29  C   UNL     1      32.509  -8.729 -23.400  0.00  0.00    +0.113 C 
ATOM     30  C   UNL     1      32.241  -8.604 -21.111  0.00  0.00    +0.196 C 
ATOM     31  C   UNL     1      32.068  -8.109 -19.888  0.00  0.00    +0.092 C 
ATOM     32  C   UNL     1      32.022 -10.839 -20.359  0.00  0.00    +0.252 C 
ATOM     33  C   UNL     1      32.439  -6.465 -22.198  0.00  0.00    +0.251 C 
ATOM     34  C   UNL     1      32.087  -6.670 -19.748  0.00  0.00    +0.022 C 
ATOM     35  C   UNL     1      31.842 -10.185 -18.999  0.00  0.00    +0.210 C 
ATOM     36  C   UNL     1      32.264  -5.875 -20.820  0.00  0.00    +0.059 C 
ENDBRANCH  22  28
ENDBRANCH   1  22
TORSDOF 5
ENDMDL
MODEL 3
REMARK VINA RESULT:     -11.6      1.073      2.697
REMARK  Name = 25101874
REMARK  5 active torsions:
REMARK  status: ('A' for Active; 'I' for Inactive)
REMARK    1  A    between atoms: N_1  and  C_22
REMARK    2  A    between atoms: C_2  and  N_8
REMARK    3  A    between atoms: N_8  and  C_11
REMARK    4  A    between atoms: C_11  and  C_14
REMARK    5  A    between atoms: C_22  and  C_28
REMARK                            x       y       z     vdW  Elec       q    Type
REMARK                         _______ _______ _______ _____ _____    ______ ____
ROOT
ATOM      1  N   UNL     1      34.801 -21.825 -18.609  0.00  0.00    +0.388 N 
ATOM      2  C   UNL     1      34.662 -19.838 -20.752  0.00  0.00    -0.066 C 
ATOM      3  C   UNL     1      35.992 -21.051 -18.985  0.00  0.00    -0.079 C 
ATOM      4  C   UNL     1      33.572 -21.049 -18.825  0.00  0.00    -0.079 C 
ATOM      5  C   UNL     1      35.937 -20.631 -20.456  0.00  0.00    -0.044 C 
ATOM      6  C   UNL     1      33.435 -20.630 -20.291  0.00  0.00    -0.044 C 
ATOM      7  H   UNL     1      34.762 -22.649 -19.207  0.00  0.00    -0.080 HD
ENDROOT
BRANCH   2   8
ATOM      8  N   UNL     1      34.578 -19.529 -22.177  0.00  0.00    +0.389 N 
ATOM      9  H   UNL     1      33.665 -19.120 -22.378  0.00  0.00    -0.084 HD
ATOM     10  H   UNL     1      34.705 -20.392 -22.707  0.00  0.00    -0.084 HD
BRANCH   8  11
ATOM     11  C   UNL     1      35.617 -18.587 -22.564  0.00  0.00    -0.034 C 
BRANCH  11  14
ATOM     12  O   UNL     1      33.434 -13.823 -24.520  0.00  0.00    -0.474 OA
ATOM     13  N   UNL     1      34.622 -17.240 -24.327  0.00  0.00    -0.247 NA
ATOM     14  C   UNL     1      35.041 -17.280 -23.043  0.00  0.00    +0.037 C 
ATOM     15  C   UNL     1      34.972 -16.208 -22.168  0.00  0.00    +0.011 C 
ATOM     16  C   UNL     1      34.440 -15.005 -22.636  0.00  0.00    +0.015 C 
ATOM     17  C   UNL     1      34.345 -13.814 -21.727  0.00  0.00    +0.033 C 
ATOM     18  C   UNL     1      33.976 -14.940 -23.951  0.00  0.00    +0.154 C 
ATOM     19  C   UNL     1      34.118 -12.547 -22.541  0.00  0.00    +0.052 C 
ATOM     20  C   UNL     1      34.100 -16.067 -24.751  0.00  0.00    +0.135 C 
ATOM     21  C   UNL     1      33.044 -12.807 -23.587  0.00  0.00    +0.206 C 
ENDBRANCH  11  14
ENDBRANCH   8  11
ENDBRANCH   2   8
BRANCH   1  22
ATOM     22  C   UNL     1      34.894 -22.261 -17.216  0.00  0.00    -0.055 C 
BRANCH  22  28
ATOM     23  O   UNL     1      36.006 -24.509 -14.929  0.00  0.00    -0.273 OA
ATOM     24  O   UNL     1      29.617 -22.434 -16.598  0.00  0.00    -0.270 OA
ATOM     25  N   UNL     1      33.876 -23.739 -15.501  0.00  0.00    -0.261 N 
ATOM     26  N   UNL     1      31.765 -23.090 -16.011  0.00  0.00    -0.255 N 
ATOM     27  N   UNL     1      33.161 -24.154 -12.821  0.00  0.00    -0.262 NA
ATOM     28  C   UNL     1      33.941 -23.418 -16.940  0.00  0.00    +0.076 C 
ATOM     29  C   UNL     1      32.474 -23.055 -17.298  0.00  0.00    +0.113 C 
ATOM     30  C   UNL     1      32.621 -23.512 -15.040  0.00  0.00    +0.196 C 
ATOM     31  C   UNL     1      32.279 -23.703 -13.768  0.00  0.00    +0.092 C 
ATOM     32  C   UNL     1      34.849 -24.224 -14.664  0.00  0.00    +0.252 C 
ATOM     33  C   UNL     1      30.436 -22.806 -15.762  0.00  0.00    +0.251 C 
ATOM     34  C   UNL     1      30.908 -23.422 -13.403  0.00  0.00    +0.022 C 
ATOM     35  C   UNL     1      34.370 -24.405 -13.233  0.00  0.00    +0.210 C 
ATOM     36  C   UNL     1      30.023 -22.995 -14.323  0.00  0.00    +0.059 C 
ENDBRANCH  22  28
ENDBRANCH   1  22
TORSDOF 5
ENDMDL
MODEL 4
REMARK VINA RESULT:     -11.1      1.636      2.304
REMARK  Name = 25101874
REMARK  5 active torsions:
REMARK  status: ('A' for Active; 'I' for Inactive)
REMARK    1  A    between atoms: N_1  and  C_22
REMARK    2  A    between atoms: C_2  and  N_8
REMARK    3  A    between atoms: N_8  and  C_11
REMARK    4  A    between atoms: C_11  and  C_14
REMARK    5  A    between atoms: C_22  and  C_28
REMARK                            x       y       z     vdW  Elec       q    Type
REMARK                         _______ _______ _______ _____ _____    ______ ____
ROOT
ATOM      1  N   UNL     1      35.512 -21.853 -17.420  0.00  0.00    +0.388 N 
ATOM      2  C   UNL     1      34.978 -20.903 -20.135  0.00  0.00    -0.066 C 
ATOM      3  C   UNL     1      34.356 -22.359 -18.171  0.00  0.00    -0.079 C 
ATOM      4  C   UNL     1      36.623 -21.509 -18.319  0.00  0.00    -0.079 C 
ATOM      5  C   UNL     1      33.857 -21.323 -19.182  0.00  0.00    -0.044 C 
ATOM      6  C   UNL     1      36.200 -20.444 -19.334  0.00  0.00    -0.044 C 
ATOM      7  H   UNL     1      35.224 -21.003 -16.937  0.00  0.00    -0.080 HD
ENDROOT
BRANCH   2   8
ATOM      8  N   UNL     1      34.512 -19.846 -21.029  0.00  0.00    +0.389 N 
ATOM      9  H   UNL     1      33.719 -19.369 -20.599  0.00  0.00    -0.084 HD
ATOM     10  H   UNL     1      34.235 -20.267 -21.916  0.00  0.00    -0.084 HD
BRANCH   8  11
ATOM     11  C   UNL     1      35.570 -18.879 -21.283  0.00  0.00    -0.034 C 
BRANCH  11  14
ATOM     12  O   UNL     1      33.923 -15.033 -24.996  0.00  0.00    -0.474 OA
ATOM     13  N   UNL     1      34.938 -18.185 -23.526  0.00  0.00    -0.247 NA
ATOM     14  C   UNL     1      35.131 -17.806 -22.243  0.00  0.00    +0.037 C 
ATOM     15  C   UNL     1      34.953 -16.511 -21.780  0.00  0.00    +0.011 C 
ATOM     16  C   UNL     1      34.552 -15.532 -22.690  0.00  0.00    +0.015 C 
ATOM     17  C   UNL     1      34.347 -14.115 -22.238  0.00  0.00    +0.033 C 
ATOM     18  C   UNL     1      34.321 -15.900 -24.017  0.00  0.00    +0.154 C 
ATOM     19  C   UNL     1      34.308 -13.179 -23.438  0.00  0.00    +0.052 C 
ATOM     20  C   UNL     1      34.538 -17.220 -24.383  0.00  0.00    +0.135 C 
ATOM     21  C   UNL     1      33.418 -13.781 -24.516  0.00  0.00    +0.206 C 
ENDBRANCH  11  14
ENDBRANCH   8  11
ENDBRANCH   2   8
BRANCH   1  22
ATOM     22  C   UNL     1      35.945 -22.834 -16.425  0.00  0.00    -0.055 C 
BRANCH  22  28
ATOM     23  O   UNL     1      32.782 -22.584 -15.219  0.00  0.00    -0.273 OA
ATOM     24  O   UNL     1      38.835 -23.677 -12.044  0.00  0.00    -0.270 OA
ATOM     25  N   UNL     1      34.845 -22.996 -14.205  0.00  0.00    -0.261 N 
ATOM     26  N   UNL     1      36.803 -23.358 -13.120  0.00  0.00    -0.255 N 
ATOM     27  N   UNL     1      33.455 -24.554 -12.332  0.00  0.00    -0.262 NA
ATOM     28  C   UNL     1      35.841 -22.265 -15.015  0.00  0.00    +0.076 C 
ATOM     29  C   UNL     1      37.162 -22.450 -14.219  0.00  0.00    +0.113 C 
ATOM     30  C   UNL     1      35.465 -23.604 -13.163  0.00  0.00    +0.196 C 
ATOM     31  C   UNL     1      34.809 -24.347 -12.275  0.00  0.00    +0.092 C 
ATOM     32  C   UNL     1      33.487 -23.093 -14.362  0.00  0.00    +0.252 C 
ATOM     33  C   UNL     1      37.626 -23.874 -12.138  0.00  0.00    +0.251 C 
ATOM     34  C   UNL     1      35.586 -24.943 -11.210  0.00  0.00    +0.022 C 
ATOM     35  C   UNL     1      32.825 -23.965 -13.308  0.00  0.00    +0.210 C 
ATOM     36  C   UNL     1      36.914 -24.738 -11.127  0.00  0.00    +0.059 C 
ENDBRANCH  22  28
ENDBRANCH   1  22
TORSDOF 5
ENDMDL
MODEL 5
REMARK VINA RESULT:     -10.9      1.598      2.363
REMARK  Name = 25101874
REMARK  5 active torsions:
REMARK  status: ('A' for Active; 'I' for Inactive)
REMARK    1  A    between atoms: N_1  and  C_22
REMARK    2  A    between atoms: C_2  and  N_8
REMARK    3  A    between atoms: N_8  and  C_11
REMARK    4  A    between atoms: C_11  and  C_14
REMARK    5  A    between atoms: C_22  and  C_28
REMARK                            x       y       z     vdW  Elec       q    Type
REMARK                         _______ _______ _______ _____ _____    ______ ____
ROOT
ATOM      1  N   UNL     1      35.515 -21.202 -20.169  0.00  0.00    +0.388 N 
ATOM      2  C   UNL     1      35.683 -18.420 -21.059  0.00  0.00    -0.066 C 
ATOM      3  C   UNL     1      36.603 -20.334 -19.697  0.00  0.00    -0.079 C 
ATOM      4  C   UNL     1      34.293 -20.430 -20.431  0.00  0.00    -0.079 C 
ATOM      5  C   UNL     1      36.927 -19.246 -20.724  0.00  0.00    -0.044 C 
ATOM      6  C   UNL     1      34.540 -19.345 -21.483  0.00  0.00    -0.044 C 
ATOM      7  H   UNL     1      35.812 -21.626 -21.047  0.00  0.00    -0.080 HD
ENDROOT
BRANCH   2   8
ATOM      8  N   UNL     1      35.988 -17.451 -22.109  0.00  0.00    +0.389 N 
ATOM      9  H   UNL     1      36.741 -17.815 -22.692  0.00  0.00    -0.084 HD
ATOM     10  H   UNL     1      36.270 -16.573 -21.672  0.00  0.00    -0.084 HD
BRANCH   8  11
ATOM     11  C   UNL     1      34.819 -17.203 -22.939  0.00  0.00    -0.034 C 
BRANCH  11  14
ATOM     12  O   UNL     1      33.842 -11.709 -23.325  0.00  0.00    -0.474 OA
ATOM     13  N   UNL     1      34.635 -14.977 -21.978  0.00  0.00    -0.247 NA
ATOM     14  C   UNL     1      34.542 -15.731 -23.095  0.00  0.00    +0.037 C 
ATOM     15  C   UNL     1      34.212 -15.232 -24.346  0.00  0.00    +0.011 C 
ATOM     16  C   UNL     1      33.954 -13.865 -24.465  0.00  0.00    +0.015 C 
ATOM     17  C   UNL     1      33.591 -13.276 -25.797  0.00  0.00    +0.033 C 
ATOM     18  C   UNL     1      34.066 -13.057 -23.332  0.00  0.00    +0.154 C 
ATOM     19  C   UNL     1      32.980 -11.893 -25.613  0.00  0.00    +0.052 C 
ATOM     20  C   UNL     1      34.393 -13.656 -22.124  0.00  0.00    +0.135 C 
ATOM     21  C   UNL     1      33.820 -11.100 -24.622  0.00  0.00    +0.206 C 
ENDBRANCH  11  14
ENDBRANCH   8  11
ENDBRANCH   2   8
BRANCH   1  22
ATOM     22  C   UNL     1      35.252 -22.265 -19.200  0.00  0.00    -0.055 C 
BRANCH  22  28
ATOM     23  O   UNL     1      32.089 -21.931 -18.015  0.00  0.00    -0.273 OA
ATOM     24  O   UNL     1      38.082 -23.228 -14.805  0.00  0.00    -0.270 OA
ATOM     25  N   UNL     1      34.131 -22.411 -16.990  0.00  0.00    -0.261 N 
ATOM     26  N   UNL     1      36.069 -22.840 -15.894  0.00  0.00    -0.255 N 
ATOM     27  N   UNL     1      32.681 -23.941 -15.140  0.00  0.00    -0.262 NA
ATOM     28  C   UNL     1      35.154 -21.704 -17.786  0.00  0.00    +0.076 C 
ATOM     29  C   UNL     1      36.463 -21.935 -16.983  0.00  0.00    +0.113 C 
ATOM     30  C   UNL     1      34.724 -23.046 -15.948  0.00  0.00    +0.196 C 
ATOM     31  C   UNL     1      34.041 -23.776 -15.071  0.00  0.00    +0.092 C 
ATOM     32  C   UNL     1      32.772 -22.467 -17.158  0.00  0.00    +0.252 C 
ATOM     33  C   UNL     1      36.869 -23.388 -14.909  0.00  0.00    +0.251 C 
ATOM     34  C   UNL     1      34.791 -24.403 -14.005  0.00  0.00    +0.022 C 
ATOM     35  C   UNL     1      32.076 -23.327 -16.115  0.00  0.00    +0.210 C 
ATOM     36  C   UNL     1      36.124 -24.238 -13.911  0.00  0.00    +0.059 C 
ENDBRANCH  22  28
ENDBRANCH   1  22
TORSDOF 5
ENDMDL
MODEL 6
REMARK VINA RESULT:     -10.9      2.741      4.731
REMARK  Name = 25101874
REMARK  5 active torsions:
REMARK  status: ('A' for Active; 'I' for Inactive)
REMARK    1  A    between atoms: N_1  and  C_22
REMARK    2  A    between atoms: C_2  and  N_8
REMARK    3  A    between atoms: N_8  and  C_11
REMARK    4  A    between atoms: C_11  and  C_14
REMARK    5  A    between atoms: C_22  and  C_28
REMARK                            x       y       z     vdW  Elec       q    Type
REMARK                         _______ _______ _______ _____ _____    ______ ____
ROOT
ATOM      1  N   UNL     1      34.581 -23.076 -15.601  0.00  0.00    +0.388 N 
ATOM      2  C   UNL     1      34.591 -22.175 -18.385  0.00  0.00    -0.066 C 
ATOM      3  C   UNL     1      33.539 -23.529 -16.534  0.00  0.00    -0.079 C 
ATOM      4  C   UNL     1      35.851 -22.831 -16.299  0.00  0.00    -0.079 C 
ATOM      5  C   UNL     1      33.295 -22.493 -17.635  0.00  0.00    -0.044 C 
ATOM      6  C   UNL     1      35.684 -21.772 -17.392  0.00  0.00    -0.044 C 
ATOM      7  H   UNL     1      34.273 -22.195 -15.192  0.00  0.00    -0.080 HD
ENDROOT
BRANCH   2   8
ATOM      8  N   UNL     1      34.360 -21.117 -19.366  0.00  0.00    +0.389 N 
ATOM      9  H   UNL     1      33.960 -20.305 -18.895  0.00  0.00    -0.084 HD
ATOM     10  H   UNL     1      33.719 -21.466 -20.079  0.00  0.00    -0.084 HD
BRANCH   8  11
ATOM     11  C   UNL     1      35.606 -20.728 -20.010  0.00  0.00    -0.034 C 
BRANCH  11  14
ATOM     12  O   UNL     1      35.109 -15.986 -22.935  0.00  0.00    -0.474 OA
ATOM     13  N   UNL     1      35.893 -18.329 -20.286  0.00  0.00    -0.247 NA
ATOM     14  C   UNL     1      35.445 -19.479 -20.836  0.00  0.00    +0.037 C 
ATOM     15  C   UNL     1      34.858 -19.565 -22.089  0.00  0.00    +0.011 C 
ATOM     16  C   UNL     1      34.714 -18.393 -22.833  0.00  0.00    +0.015 C 
ATOM     17  C   UNL     1      34.084 -18.433 -24.195  0.00  0.00    +0.033 C 
ATOM     18  C   UNL     1      35.190 -17.193 -22.301  0.00  0.00    +0.154 C 
ATOM     19  C   UNL     1      33.679 -17.031 -24.630  0.00  0.00    +0.052 C 
ATOM     20  C   UNL     1      35.753 -17.212 -21.033  0.00  0.00    +0.135 C 
ATOM     21  C   UNL     1      34.817 -16.065 -24.336  0.00  0.00    +0.206 C 
ENDBRANCH  11  14
ENDBRANCH   8  11
ENDBRANCH   2   8
BRANCH   1  22
ATOM     22  C   UNL     1      34.766 -24.053 -14.529  0.00  0.00    -0.055 C 
BRANCH  22  28
ATOM     23  O   UNL     1      36.703 -22.524 -12.199  0.00  0.00    -0.273 OA
ATOM     24  O   UNL     1      36.871 -28.925 -14.826  0.00  0.00    -0.270 OA
ATOM     25  N   UNL     1      36.685 -24.684 -13.086  0.00  0.00    -0.261 N 
ATOM     26  N   UNL     1      36.779 -26.792 -13.915  0.00  0.00    -0.255 N 
ATOM     27  N   UNL     1      37.613 -25.564 -10.590  0.00  0.00    -0.262 NA
ATOM     28  C   UNL     1      36.209 -24.541 -14.476  0.00  0.00    +0.076 C 
ATOM     29  C   UNL     1      36.355 -25.972 -15.059  0.00  0.00    +0.113 C 
ATOM     30  C   UNL     1      36.970 -25.986 -12.834  0.00  0.00    +0.196 C 
ATOM     31  C   UNL     1      37.406 -26.408 -11.651  0.00  0.00    +0.092 C 
ATOM     32  C   UNL     1      36.879 -23.729 -12.122  0.00  0.00    +0.252 C 
ATOM     33  C   UNL     1      37.015 -28.153 -13.882  0.00  0.00    +0.251 C 
ATOM     34  C   UNL     1      37.672 -27.822 -11.510  0.00  0.00    +0.022 C 
ATOM     35  C   UNL     1      37.371 -24.303 -10.803  0.00  0.00    +0.210 C 
ATOM     36  C   UNL     1      37.492 -28.664 -12.546  0.00  0.00    +0.059 C 
ENDBRANCH  22  28
ENDBRANCH   1  22
TORSDOF 5
ENDMDL
MODEL 7
REMARK VINA RESULT:     -10.7      3.148     11.386
REMARK  Name = 25101874
REMARK  5 active torsions:
REMARK  status: ('A' for Active; 'I' for Inactive)
REMARK    1  A    between atoms: N_1  and  C_22
REMARK    2  A    between atoms: C_2  and  N_8
REMARK    3  A    between atoms: N_8  and  C_11
REMARK    4  A    between atoms: C_11  and  C_14
REMARK    5  A    between atoms: C_22  and  C_28
REMARK                            x       y       z     vdW  Elec       q    Type
REMARK                         _______ _______ _______ _____ _____    ______ ____
ROOT
ATOM      1  N   UNL     1      33.894 -15.397 -23.651  0.00  0.00    +0.388 N 
ATOM      2  C   UNL     1      35.133 -18.036 -23.398  0.00  0.00    -0.066 C 
ATOM      3  C   UNL     1      35.134 -15.567 -22.880  0.00  0.00    -0.079 C 
ATOM      4  C   UNL     1      33.817 -16.364 -24.755  0.00  0.00    -0.079 C 
ATOM      5  C   UNL     1      35.232 -16.978 -22.296  0.00  0.00    -0.044 C 
ATOM      6  C   UNL     1      33.871 -17.802 -24.234  0.00  0.00    -0.044 C 
ATOM      7  H   UNL     1      33.110 -15.573 -23.025  0.00  0.00    -0.080 HD
ENDROOT
BRANCH   2   8
ATOM      8  N   UNL     1      35.132 -19.375 -22.814  0.00  0.00    +0.389 N 
ATOM      9  H   UNL     1      35.688 -19.997 -23.402  0.00  0.00    -0.084 HD
ATOM     10  H   UNL     1      34.168 -19.707 -22.759  0.00  0.00    -0.084 HD
BRANCH   8  11
ATOM     11  C   UNL     1      35.695 -19.356 -21.473  0.00  0.00    -0.034 C 
BRANCH  11  14
ATOM     12  O   UNL     1      32.407 -22.208 -17.960  0.00  0.00    -0.474 OA
ATOM     13  N   UNL     1      33.515 -20.058 -20.657  0.00  0.00    -0.247 NA
ATOM     14  C   UNL     1      34.854 -20.139 -20.499  0.00  0.00    +0.037 C 
ATOM     15  C   UNL     1      35.478 -20.884 -19.511  0.00  0.00    +0.011 C 
ATOM     16  C   UNL     1      34.677 -21.596 -18.616  0.00  0.00    +0.015 C 
ATOM     17  C   UNL     1      35.305 -22.418 -17.527  0.00  0.00    +0.033 C 
ATOM     18  C   UNL     1      33.290 -21.552 -18.770  0.00  0.00    +0.154 C 
ATOM     19  C   UNL     1      34.269 -22.764 -16.466  0.00  0.00    +0.052 C 
ATOM     20  C   UNL     1      32.764 -20.767 -19.786  0.00  0.00    +0.135 C 
ATOM     21  C   UNL     1      32.990 -23.232 -17.145  0.00  0.00    +0.206 C 
ENDBRANCH  11  14
ENDBRANCH   8  11
ENDBRANCH   2   8
BRANCH   1  22
ATOM     22  C   UNL     1      33.792 -14.029 -24.160  0.00  0.00    -0.055 C 
BRANCH  22  28
ATOM     23  O   UNL     1      34.815 -11.037 -25.391  0.00  0.00    -0.273 OA
ATOM     24  O   UNL     1      31.747 -12.741 -19.426  0.00  0.00    -0.270 OA
ATOM     25  N   UNL     1      33.739 -11.662 -23.415  0.00  0.00    -0.261 N 
ATOM     26  N   UNL     1      32.732 -12.170 -21.448  0.00  0.00    -0.255 N 
ATOM     27  N   UNL     1      32.470  -9.162 -23.483  0.00  0.00    -0.262 NA
ATOM     28  C   UNL     1      34.230 -13.020 -23.105  0.00  0.00    +0.076 C 
ATOM     29  C   UNL     1      33.601 -13.325 -21.718  0.00  0.00    +0.113 C 
ATOM     30  C   UNL     1      32.883 -11.255 -22.445  0.00  0.00    +0.196 C 
ATOM     31  C   UNL     1      32.276 -10.072 -22.475  0.00  0.00    +0.092 C 
ATOM     32  C   UNL     1      34.048 -10.835 -24.464  0.00  0.00    +0.252 C 
ATOM     33  C   UNL     1      31.912 -11.958 -20.357  0.00  0.00    +0.251 C 
ATOM     34  C   UNL     1      31.385  -9.758 -21.381  0.00  0.00    +0.022 C 
ATOM     35  C   UNL     1      33.304  -9.510 -24.420  0.00  0.00    +0.210 C 
ATOM     36  C   UNL     1      31.194 -10.631 -20.374  0.00  0.00    +0.059 C 
ENDBRANCH  22  28
ENDBRANCH   1  22
TORSDOF 5
ENDMDL
MODEL 8
REMARK VINA RESULT:     -10.7      7.181     15.485
REMARK  Name = 25101874
REMARK  5 active torsions:
REMARK  status: ('A' for Active; 'I' for Inactive)
REMARK    1  A    between atoms: N_1  and  C_22
REMARK    2  A    between atoms: C_2  and  N_8
REMARK    3  A    between atoms: N_8  and  C_11
REMARK    4  A    between atoms: C_11  and  C_14
REMARK    5  A    between atoms: C_22  and  C_28
REMARK                            x       y       z     vdW  Elec       q    Type
REMARK                         _______ _______ _______ _____ _____    ______ ____
ROOT
ATOM      1  N   UNL     1      34.370  -8.484 -23.201  0.00  0.00    +0.388 N 
ATOM      2  C   UNL     1      33.688 -11.025 -24.483  0.00  0.00    -0.066 C 
ATOM      3  C   UNL     1      34.894  -8.810 -24.535  0.00  0.00    -0.079 C 
ATOM      4  C   UNL     1      33.053  -9.097 -22.982  0.00  0.00    -0.079 C 
ATOM      5  C   UNL     1      35.027 -10.323 -24.723  0.00  0.00    -0.044 C 
ATOM      6  C   UNL     1      33.124 -10.621 -23.118  0.00  0.00    -0.044 C 
ATOM      7  H   UNL     1      35.014  -8.868 -22.510  0.00  0.00    -0.080 HD
ENDROOT
BRANCH   2   8
ATOM      8  N   UNL     1      33.853 -12.474 -24.571  0.00  0.00    +0.389 N 
ATOM      9  H   UNL     1      34.797 -12.684 -24.897  0.00  0.00    -0.084 HD
ATOM     10  H   UNL     1      33.161 -12.842 -25.225  0.00  0.00    -0.084 HD
BRANCH   8  11
ATOM     11  C   UNL     1      33.645 -13.098 -23.273  0.00  0.00    -0.034 C 
BRANCH  11  14
ATOM     12  O   UNL     1      35.124 -18.489 -23.480  0.00  0.00    -0.474 OA
ATOM     13  N   UNL     1      33.884 -15.221 -24.434  0.00  0.00    -0.247 NA
ATOM     14  C   UNL     1      34.055 -14.547 -23.276  0.00  0.00    +0.037 C 
ATOM     15  C   UNL     1      34.573 -15.108 -22.118  0.00  0.00    +0.011 C 
ATOM     16  C   UNL     1      34.939 -16.455 -22.143  0.00  0.00    +0.015 C 
ATOM     17  C   UNL     1      35.504 -17.109 -20.915  0.00  0.00    +0.033 C 
ATOM     18  C   UNL     1      34.797 -17.171 -23.333  0.00  0.00    +0.154 C 
ATOM     19  C   UNL     1      35.452 -18.624 -21.054  0.00  0.00    +0.052 C 
ATOM     20  C   UNL     1      34.259 -16.520 -24.434  0.00  0.00    +0.135 C 
ATOM     21  C   UNL     1      35.950 -19.019 -22.437  0.00  0.00    +0.206 C 
ENDBRANCH  11  14
ENDBRANCH   8  11
ENDBRANCH   2   8
BRANCH   1  22
ATOM     22  C   UNL     1      34.298  -7.035 -23.020  0.00  0.00    -0.055 C 
BRANCH  22  28
ATOM     23  O   UNL     1      31.255  -6.998 -21.516  0.00  0.00    -0.273 OA
ATOM     24  O   UNL     1      34.130  -2.753 -26.165  0.00  0.00    -0.270 OA
ATOM     25  N   UNL     1      32.291  -5.574 -23.049  0.00  0.00    -0.261 N 
ATOM     26  N   UNL     1      33.191  -4.153 -24.570  0.00  0.00    -0.255 N 
ATOM     27  N   UNL     1      30.837  -3.483 -21.874  0.00  0.00    -0.262 NA
ATOM     28  C   UNL     1      33.176  -6.435 -23.859  0.00  0.00    +0.076 C 
ATOM     29  C   UNL     1      33.722  -5.471 -24.948  0.00  0.00    +0.113 C 
ATOM     30  C   UNL     1      32.366  -4.295 -23.497  0.00  0.00    +0.196 C 
ATOM     31  C   UNL     1      31.681  -3.301 -22.939  0.00  0.00    +0.092 C 
ATOM     32  C   UNL     1      31.459  -5.901 -22.010  0.00  0.00    +0.252 C 
ATOM     33  C   UNL     1      33.408  -2.937 -25.189  0.00  0.00    +0.251 C 
ATOM     34  C   UNL     1      31.849  -1.982 -23.509  0.00  0.00    +0.022 C 
ATOM     35  C   UNL     1      30.724  -4.702 -21.433  0.00  0.00    +0.210 C 
ATOM     36  C   UNL     1      32.659  -1.786 -24.566  0.00  0.00    +0.059 C 
ENDBRANCH  22  28
ENDBRANCH   1  22
TORSDOF 5
ENDMDL
MODEL 9
REMARK VINA RESULT:     -10.7      3.623     12.151
REMARK  Name = 25101874
REMARK  5 active torsions:
REMARK  status: ('A' for Active; 'I' for Inactive)
REMARK    1  A    between atoms: N_1  and  C_22
REMARK    2  A    between atoms: C_2  and  N_8
REMARK    3  A    between atoms: N_8  and  C_11
REMARK    4  A    between atoms: C_11  and  C_14
REMARK    5  A    between atoms: C_22  and  C_28
REMARK                            x       y       z     vdW  Elec       q    Type
REMARK                         _______ _______ _______ _____ _____    ______ ____
ROOT
ATOM      1  N   UNL     1      33.887 -14.314 -21.863  0.00  0.00    +0.388 N 
ATOM      2  C   UNL     1      35.292 -16.822 -22.406  0.00  0.00    -0.066 C 
ATOM      3  C   UNL     1      34.636 -14.993 -20.797  0.00  0.00    -0.079 C 
ATOM      4  C   UNL     1      34.496 -14.556 -23.179  0.00  0.00    -0.079 C 
ATOM      5  C   UNL     1      34.688 -16.505 -21.036  0.00  0.00    -0.044 C 
ATOM      6  C   UNL     1      34.544 -16.052 -23.498  0.00  0.00    -0.044 C 
ATOM      7  H   UNL     1      32.944 -14.699 -21.879  0.00  0.00    -0.080 HD
ENDROOT
BRANCH   2   8
ATOM      8  N   UNL     1      35.246 -18.261 -22.657  0.00  0.00    +0.389 N 
ATOM      9  H   UNL     1      35.629 -18.451 -23.584  0.00  0.00    -0.084 HD
ATOM     10  H   UNL     1      34.276 -18.571 -22.603  0.00  0.00    -0.084 HD
BRANCH   8  11
ATOM     11  C   UNL     1      36.023 -18.985 -21.662  0.00  0.00    -0.034 C 
BRANCH  11  14
ATOM     12  O   UNL     1      32.613 -22.052 -18.459  0.00  0.00    -0.474 OA
ATOM     13  N   UNL     1      33.819 -19.780 -21.010  0.00  0.00    -0.247 NA
ATOM     14  C   UNL     1      35.148 -19.825 -20.769  0.00  0.00    +0.037 C 
ATOM     15  C   UNL     1      35.732 -20.584 -19.768  0.00  0.00    +0.011 C 
ATOM     16  C   UNL     1      34.900 -21.350 -18.949  0.00  0.00    +0.015 C 
ATOM     17  C   UNL     1      35.483 -22.189 -17.849  0.00  0.00    +0.033 C 
ATOM     18  C   UNL     1      33.524 -21.343 -19.190  0.00  0.00    +0.154 C 
ATOM     19  C   UNL     1      34.395 -22.602 -16.867  0.00  0.00    +0.052 C 
ATOM     20  C   UNL     1      33.038 -20.540 -20.211  0.00  0.00    +0.135 C 
ATOM     21  C   UNL     1      33.177 -23.085 -17.641  0.00  0.00    +0.206 C 
ENDBRANCH  11  14
ENDBRANCH   8  11
ENDBRANCH   2   8
BRANCH   1  22
ATOM     22  C   UNL     1      33.803 -12.878 -21.594  0.00  0.00    -0.055 C 
BRANCH  22  28
ATOM     23  O   UNL     1      30.958 -11.217 -20.781  0.00  0.00    -0.273 OA
ATOM     24  O   UNL     1      35.812  -9.949 -25.549  0.00  0.00    -0.270 OA
ATOM     25  N   UNL     1      32.648 -10.812 -22.341  0.00  0.00    -0.261 N 
ATOM     26  N   UNL     1      34.213 -10.354 -23.916  0.00  0.00    -0.255 N 
ATOM     27  N   UNL     1      32.151  -8.079 -21.959  0.00  0.00    -0.262 NA
ATOM     28  C   UNL     1      33.139 -12.143 -22.752  0.00  0.00    +0.076 C 
ATOM     29  C   UNL     1      34.148 -11.822 -23.887  0.00  0.00    +0.113 C 
ATOM     30  C   UNL     1      33.314  -9.850 -23.027  0.00  0.00    +0.196 C 
ATOM     31  C   UNL     1      33.084  -8.552 -22.845  0.00  0.00    +0.092 C 
ATOM     32  C   UNL     1      31.664 -10.477 -21.447  0.00  0.00    +0.252 C 
ATOM     33  C   UNL     1      34.995  -9.551 -24.723  0.00  0.00    +0.251 C 
ATOM     34  C   UNL     1      33.862  -7.626 -23.638  0.00  0.00    +0.022 C 
ATOM     35  C   UNL     1      31.477  -8.976 -21.300  0.00  0.00    +0.210 C 
ATOM     36  C   UNL     1      34.770  -8.072 -24.526  0.00  0.00    +0.059 C 
ENDBRANCH  22  28
ENDBRANCH   1  22
TORSDOF 5
ENDMDL
