MODEL 1
REMARK VINA RESULT:     -11.9      0.000      0.000
REMARK  Name = 154000
REMARK  7 active torsions:
REMARK  status: ('A' for Active; 'I' for Inactive)
REMARK    1  A    between atoms: O_1  and  C_5
REMARK    2  A    between atoms: O_1  and  C_17
REMARK    3  A    between atoms: C_2  and  C_8
REMARK    4  A    between atoms: C_8  and  C_13
REMARK    5  A    between atoms: C_17  and  C_18
REMARK    6  A    between atoms: C_18  and  C_21
REMARK    7  A    between atoms: C_23  and  C_25
REMARK                            x       y       z     vdW  Elec       q    Type
REMARK                         _______ _______ _______ _____ _____    ______ ____
ROOT
ATOM      1  O   UNL     1      34.190 -14.598 -21.872  0.00  0.00    -0.475 OA
ENDROOT
BRANCH   1   5
ATOM      2  C   UNL     1      32.092 -11.042 -21.691  0.00  0.00    -0.021 C 
ATOM      3  C   UNL     1      32.990 -11.250 -22.727  0.00  0.00    -0.001 C 
ATOM      4  C   UNL     1      31.885 -12.005 -20.715  0.00  0.00    -0.001 C 
ATOM      5  C   UNL     1      33.500 -13.427 -21.813  0.00  0.00    +0.139 C 
ATOM      6  C   UNL     1      33.699 -12.450 -22.788  0.00  0.00    +0.037 C 
ATOM      7  C   UNL     1      32.593 -13.205 -20.777  0.00  0.00    +0.037 C 
BRANCH   2   8
ATOM      8  C   UNL     1      31.327  -9.744 -21.624  0.00  0.00    +0.047 C 
BRANCH   8  13
ATOM      9  O   UNL     1      31.585  -6.313 -21.564  0.00  0.00    -0.346 OA
ATOM     10  O   UNL     1      32.584  -8.600 -19.119  0.00  0.00    -0.272 OA
ATOM     11  O   UNL     1      31.562  -7.421 -23.575  0.00  0.00    -0.247 OA
ATOM     12  N   UNL     1      31.891  -6.675 -20.235  0.00  0.00    -0.144 N 
ATOM     13  C   UNL     1      32.251  -8.545 -21.524  0.00  0.00    +0.184 C 
ATOM     14  C   UNL     1      32.276  -7.990 -20.132  0.00  0.00    +0.264 C 
ATOM     15  C   UNL     1      31.764  -7.400 -22.372  0.00  0.00    +0.348 C 
ATOM     16  H   UNL     1      31.834  -6.057 -19.470  0.00  0.00    +0.196 HD
ENDBRANCH   8  13
ENDBRANCH   2   8
ENDBRANCH   1   5
BRANCH   1  17
ATOM     17  C   UNL     1      34.338 -15.201 -23.158  0.00  0.00    +0.213 C 
BRANCH  17  18
ATOM     18  C   UNL     1      35.482 -16.210 -23.126  0.00  0.00    +0.105 C 
BRANCH  18  21
ATOM     19  O   UNL     1      34.176 -19.549 -22.445  0.00  0.00    -0.449 OA
ATOM     20  N   UNL     1      35.424 -17.979 -21.400  0.00  0.00    -0.373 NA
ATOM     21  C   UNL     1      35.053 -17.562 -22.634  0.00  0.00    +0.134 C 
ATOM     22  C   UNL     1      34.304 -18.483 -23.283  0.00  0.00    +0.216 C 
ATOM     23  C   UNL     1      34.873 -19.171 -21.339  0.00  0.00    +0.277 C 
ATOM     24  C   UNL     1      33.649 -18.580 -24.592  0.00  0.00    +0.055 C 
BRANCH  23  25
ATOM     25  C   UNL     1      34.900 -20.135 -20.274  0.00  0.00    +0.066 C 
ATOM     26  C   UNL     1      36.117 -20.521 -19.705  0.00  0.00    +0.006 C 
ATOM     27  C   UNL     1      33.710 -20.694 -19.802  0.00  0.00    +0.006 C 
ATOM     28  C   UNL     1      36.143 -21.459 -18.673  0.00  0.00    +0.000 C 
ATOM     29  C   UNL     1      33.735 -21.631 -18.769  0.00  0.00    +0.000 C 
ATOM     30  C   UNL     1      34.951 -22.014 -18.204  0.00  0.00    +0.000 C 
ENDBRANCH  23  25
ENDBRANCH  18  21
ENDBRANCH  17  18
ENDBRANCH   1  17
TORSDOF 7
ENDMDL
MODEL 2
REMARK VINA RESULT:     -11.5      2.818     10.707
REMARK  Name = 154000
REMARK  7 active torsions:
REMARK  status: ('A' for Active; 'I' for Inactive)
REMARK    1  A    between atoms: O_1  and  C_5
REMARK    2  A    between atoms: O_1  and  C_17
REMARK    3  A    between atoms: C_2  and  C_8
REMARK    4  A    between atoms: C_8  and  C_13
REMARK    5  A    between atoms: C_17  and  C_18
REMARK    6  A    between atoms: C_18  and  C_21
REMARK    7  A    between atoms: C_23  and  C_25
REMARK                            x       y       z     vdW  Elec       q    Type
REMARK                         _______ _______ _______ _____ _____    ______ ____
ROOT
ATOM      1  O   UNL     1      35.167 -15.711 -23.426  0.00  0.00    -0.475 OA
ENDROOT
BRANCH   1   5
ATOM      2  C   UNL     1      35.149 -19.380 -21.522  0.00  0.00    -0.021 C 
ATOM      3  C   UNL     1      34.674 -19.285 -22.822  0.00  0.00    -0.001 C 
ATOM      4  C   UNL     1      35.629 -18.267 -20.850  0.00  0.00    -0.001 C 
ATOM      5  C   UNL     1      35.160 -16.920 -22.800  0.00  0.00    +0.139 C 
ATOM      6  C   UNL     1      34.680 -18.048 -23.465  0.00  0.00    +0.037 C 
ATOM      7  C   UNL     1      35.635 -17.029 -21.493  0.00  0.00    +0.037 C 
BRANCH   2   8
ATOM      8  C   UNL     1      35.141 -20.719 -20.827  0.00  0.00    +0.047 C 
BRANCH   8  13
ATOM      9  O   UNL     1      32.715 -22.098 -18.814  0.00  0.00    -0.346 OA
ATOM     10  O   UNL     1      36.129 -21.754 -18.161  0.00  0.00    -0.272 OA
ATOM     11  O   UNL     1      32.144 -20.493 -20.355  0.00  0.00    -0.247 OA
ATOM     12  N   UNL     1      33.912 -22.469 -18.165  0.00  0.00    -0.144 N 
ATOM     13  C   UNL     1      34.420 -20.662 -19.495  0.00  0.00    +0.184 C 
ATOM     14  C   UNL     1      34.969 -21.672 -18.533  0.00  0.00    +0.264 C 
ATOM     15  C   UNL     1      32.968 -21.036 -19.637  0.00  0.00    +0.348 C 
ATOM     16  H   UNL     1      33.980 -23.211 -17.522  0.00  0.00    +0.196 HD
ENDBRANCH   8  13
ENDBRANCH   2   8
ENDBRANCH   1   5
BRANCH   1  17
ATOM     17  C   UNL     1      34.510 -14.632 -22.761  0.00  0.00    +0.213 C 
BRANCH  17  18
ATOM     18  C   UNL     1      33.373 -14.106 -23.632  0.00  0.00    +0.105 C 
BRANCH  18  21
ATOM     19  O   UNL     1      33.728 -10.722 -24.952  0.00  0.00    -0.449 OA
ATOM     20  N   UNL     1      33.503 -11.736 -22.942  0.00  0.00    -0.373 NA
ATOM     21  C   UNL     1      33.508 -12.644 -23.947  0.00  0.00    +0.134 C 
ATOM     22  C   UNL     1      33.640 -12.065 -25.162  0.00  0.00    +0.216 C 
ATOM     23  C   UNL     1      33.639 -10.605 -23.599  0.00  0.00    +0.277 C 
ATOM     24  C   UNL     1      33.707 -12.529 -26.553  0.00  0.00    +0.055 C 
BRANCH  23  25
ATOM     25  C   UNL     1      33.704  -9.261 -23.096  0.00  0.00    +0.066 C 
ATOM     26  C   UNL     1      32.746  -8.801 -22.188  0.00  0.00    +0.006 C 
ATOM     27  C   UNL     1      34.725  -8.403 -23.514  0.00  0.00    +0.006 C 
ATOM     28  C   UNL     1      32.809  -7.496 -21.702  0.00  0.00    +0.000 C 
ATOM     29  C   UNL     1      34.789  -7.098 -23.028  0.00  0.00    +0.000 C 
ATOM     30  C   UNL     1      33.831  -6.643 -22.121  0.00  0.00    +0.000 C 
ENDBRANCH  23  25
ENDBRANCH  18  21
ENDBRANCH  17  18
ENDBRANCH   1  17
TORSDOF 7
ENDMDL
MODEL 3
REMARK VINA RESULT:     -11.5      2.508     10.838
REMARK  Name = 154000
REMARK  7 active torsions:
REMARK  status: ('A' for Active; 'I' for Inactive)
REMARK    1  A    between atoms: O_1  and  C_5
REMARK    2  A    between atoms: O_1  and  C_17
REMARK    3  A    between atoms: C_2  and  C_8
REMARK    4  A    between atoms: C_8  and  C_13
REMARK    5  A    between atoms: C_17  and  C_18
REMARK    6  A    between atoms: C_18  and  C_21
REMARK    7  A    between atoms: C_23  and  C_25
REMARK                            x       y       z     vdW  Elec       q    Type
REMARK                         _______ _______ _______ _____ _____    ______ ____
ROOT
ATOM      1  O   UNL     1      34.890 -15.645 -23.703  0.00  0.00    -0.475 OA
ENDROOT
BRANCH   1   5
ATOM      2  C   UNL     1      35.129 -19.241 -21.678  0.00  0.00    -0.021 C 
ATOM      3  C   UNL     1      34.665 -19.225 -22.985  0.00  0.00    -0.001 C 
ATOM      4  C   UNL     1      35.514 -18.072 -21.039  0.00  0.00    -0.001 C 
ATOM      5  C   UNL     1      34.968 -16.829 -23.037  0.00  0.00    +0.139 C 
ATOM      6  C   UNL     1      34.584 -18.012 -23.669  0.00  0.00    +0.037 C 
ATOM      7  C   UNL     1      35.433 -16.859 -21.722  0.00  0.00    +0.037 C 
BRANCH   2   8
ATOM      8  C   UNL     1      35.215 -20.552 -20.939  0.00  0.00    +0.047 C 
BRANCH   8  13
ATOM      9  O   UNL     1      32.652 -21.968 -19.131  0.00  0.00    -0.346 OA
ATOM     10  O   UNL     1      36.021 -21.693 -18.254  0.00  0.00    -0.272 OA
ATOM     11  O   UNL     1      32.197 -20.303 -20.647  0.00  0.00    -0.247 OA
ATOM     12  N   UNL     1      33.800 -22.377 -18.422  0.00  0.00    -0.144 N 
ATOM     13  C   UNL     1      34.412 -20.532 -19.653  0.00  0.00    +0.184 C 
ATOM     14  C   UNL     1      34.888 -21.583 -18.695  0.00  0.00    +0.264 C 
ATOM     15  C   UNL     1      32.968 -20.882 -19.899  0.00  0.00    +0.348 C 
ATOM     16  H   UNL     1      33.820 -23.143 -17.804  0.00  0.00    +0.196 HD
ENDBRANCH   8  13
ENDBRANCH   2   8
ENDBRANCH   1   5
BRANCH   1  17
ATOM     17  C   UNL     1      34.478 -14.503 -22.952  0.00  0.00    +0.213 C 
BRANCH  17  18
ATOM     18  C   UNL     1      33.496 -13.673 -23.773  0.00  0.00    +0.105 C 
BRANCH  18  21
ATOM     19  O   UNL     1      32.615 -10.681 -21.878  0.00  0.00    -0.449 OA
ATOM     20  N   UNL     1      33.617 -11.204 -23.837  0.00  0.00    -0.373 NA
ATOM     21  C   UNL     1      33.232 -12.321 -23.175  0.00  0.00    +0.134 C 
ATOM     22  C   UNL     1      32.629 -12.038 -21.997  0.00  0.00    +0.216 C 
ATOM     23  C   UNL     1      33.223 -10.254 -23.019  0.00  0.00    +0.277 C 
ATOM     24  C   UNL     1      32.031 -12.811 -20.903  0.00  0.00    +0.055 C 
BRANCH  23  25
ATOM     25  C   UNL     1      33.344  -8.829 -23.151  0.00  0.00    +0.066 C 
ATOM     26  C   UNL     1      34.593  -8.246 -23.385  0.00  0.00    +0.006 C 
ATOM     27  C   UNL     1      32.212  -8.015 -23.044  0.00  0.00    +0.006 C 
ATOM     28  C   UNL     1      34.709  -6.862 -23.511  0.00  0.00    +0.000 C 
ATOM     29  C   UNL     1      32.328  -6.631 -23.171  0.00  0.00    +0.000 C 
ATOM     30  C   UNL     1      33.576  -6.054 -23.405  0.00  0.00    +0.000 C 
ENDBRANCH  23  25
ENDBRANCH  18  21
ENDBRANCH  17  18
ENDBRANCH   1  17
TORSDOF 7
ENDMDL
MODEL 4
REMARK VINA RESULT:     -11.4      4.307     10.968
REMARK  Name = 154000
REMARK  7 active torsions:
REMARK  status: ('A' for Active; 'I' for Inactive)
REMARK    1  A    between atoms: O_1  and  C_5
REMARK    2  A    between atoms: O_1  and  C_17
REMARK    3  A    between atoms: C_2  and  C_8
REMARK    4  A    between atoms: C_8  and  C_13
REMARK    5  A    between atoms: C_17  and  C_18
REMARK    6  A    between atoms: C_18  and  C_21
REMARK    7  A    between atoms: C_23  and  C_25
REMARK                            x       y       z     vdW  Elec       q    Type
REMARK                         _______ _______ _______ _____ _____    ______ ____
ROOT
ATOM      1  O   UNL     1      36.068 -19.521 -20.390  0.00  0.00    -0.475 OA
ENDROOT
BRANCH   1   5
ATOM      2  C   UNL     1      33.900 -22.307 -18.241  0.00  0.00    -0.021 C 
ATOM      3  C   UNL     1      33.244 -21.483 -19.144  0.00  0.00    -0.001 C 
ATOM      4  C   UNL     1      35.269 -22.213 -18.047  0.00  0.00    -0.001 C 
ATOM      5  C   UNL     1      35.353 -20.438 -19.683  0.00  0.00    +0.139 C 
ATOM      6  C   UNL     1      33.975 -20.542 -19.869  0.00  0.00    +0.037 C 
ATOM      7  C   UNL     1      36.000 -21.273 -18.772  0.00  0.00    +0.037 C 
BRANCH   2   8
ATOM      8  C   UNL     1      33.108 -23.323 -17.456  0.00  0.00    +0.047 C 
BRANCH   8  13
ATOM      9  O   UNL     1      30.800 -23.599 -14.919  0.00  0.00    -0.346 OA
ATOM     10  O   UNL     1      34.284 -23.683 -14.691  0.00  0.00    -0.272 OA
ATOM     11  O   UNL     1      30.262 -22.446 -16.831  0.00  0.00    -0.247 OA
ATOM     12  N   UNL     1      32.007 -23.966 -14.288  0.00  0.00    -0.144 N 
ATOM     13  C   UNL     1      32.585 -22.750 -16.153  0.00  0.00    +0.184 C 
ATOM     14  C   UNL     1      33.109 -23.513 -14.973  0.00  0.00    +0.264 C 
ATOM     15  C   UNL     1      31.089 -22.889 -16.051  0.00  0.00    +0.348 C 
ATOM     16  H   UNL     1      32.054 -24.487 -13.454  0.00  0.00    +0.196 HD
ENDBRANCH   8  13
ENDBRANCH   2   8
ENDBRANCH   1   5
BRANCH   1  17
ATOM     17  C   UNL     1      35.335 -18.466 -21.014  0.00  0.00    +0.213 C 
BRANCH  17  18
ATOM     18  C   UNL     1      35.723 -18.369 -22.486  0.00  0.00    +0.105 C 
BRANCH  18  21
ATOM     19  O   UNL     1      33.476 -16.358 -24.543  0.00  0.00    -0.449 OA
ATOM     20  N   UNL     1      35.149 -16.032 -23.056  0.00  0.00    -0.373 NA
ATOM     21  C   UNL     1      34.910 -17.354 -23.237  0.00  0.00    +0.134 C 
ATOM     22  C   UNL     1      33.913 -17.578 -24.123  0.00  0.00    +0.216 C 
ATOM     23  C   UNL     1      34.265 -15.484 -23.860  0.00  0.00    +0.277 C 
ATOM     24  C   UNL     1      33.248 -18.757 -24.689  0.00  0.00    +0.055 C 
BRANCH  23  25
ATOM     25  C   UNL     1      34.009 -14.095 -24.122  0.00  0.00    +0.066 C 
ATOM     26  C   UNL     1      34.112 -13.154 -23.094  0.00  0.00    +0.006 C 
ATOM     27  C   UNL     1      33.653 -13.677 -25.407  0.00  0.00    +0.006 C 
ATOM     28  C   UNL     1      33.861 -11.806 -23.349  0.00  0.00    +0.000 C 
ATOM     29  C   UNL     1      33.402 -12.329 -25.663  0.00  0.00    +0.000 C 
ATOM     30  C   UNL     1      33.506 -11.393 -24.633  0.00  0.00    +0.000 C 
ENDBRANCH  23  25
ENDBRANCH  18  21
ENDBRANCH  17  18
ENDBRANCH   1  17
TORSDOF 7
ENDMDL
MODEL 5
REMARK VINA RESULT:     -11.3      2.240     11.091
REMARK  Name = 154000
REMARK  7 active torsions:
REMARK  status: ('A' for Active; 'I' for Inactive)
REMARK    1  A    between atoms: O_1  and  C_5
REMARK    2  A    between atoms: O_1  and  C_17
REMARK    3  A    between atoms: C_2  and  C_8
REMARK    4  A    between atoms: C_8  and  C_13
REMARK    5  A    between atoms: C_17  and  C_18
REMARK    6  A    between atoms: C_18  and  C_21
REMARK    7  A    between atoms: C_23  and  C_25
REMARK                            x       y       z     vdW  Elec       q    Type
REMARK                         _______ _______ _______ _____ _____    ______ ____
ROOT
ATOM      1  O   UNL     1      33.545 -13.594 -24.164  0.00  0.00    -0.475 OA
ENDROOT
BRANCH   1   5
ATOM      2  C   UNL     1      34.983 -17.258 -22.900  0.00  0.00    -0.021 C 
ATOM      3  C   UNL     1      35.122 -16.151 -22.076  0.00  0.00    -0.001 C 
ATOM      4  C   UNL     1      34.371 -17.158 -24.140  0.00  0.00    -0.001 C 
ATOM      5  C   UNL     1      34.019 -14.800 -23.747  0.00  0.00    +0.139 C 
ATOM      6  C   UNL     1      34.637 -14.915 -22.502  0.00  0.00    +0.037 C 
ATOM      7  C   UNL     1      33.886 -15.922 -24.566  0.00  0.00    +0.037 C 
BRANCH   2   8
ATOM      8  C   UNL     1      35.509 -18.594 -22.439  0.00  0.00    +0.047 C 
BRANCH   8  13
ATOM      9  O   UNL     1      35.192 -20.791 -19.810  0.00  0.00    -0.346 OA
ATOM     10  O   UNL     1      37.748 -18.487 -20.405  0.00  0.00    -0.272 OA
ATOM     11  O   UNL     1      33.316 -20.036 -20.901  0.00  0.00    -0.247 OA
ATOM     12  N   UNL     1      36.514 -20.321 -19.669  0.00  0.00    -0.144 N 
ATOM     13  C   UNL     1      35.395 -18.761 -20.936  0.00  0.00    +0.184 C 
ATOM     14  C   UNL     1      36.713 -19.130 -20.326  0.00  0.00    +0.264 C 
ATOM     15  C   UNL     1      34.485 -19.907 -20.576  0.00  0.00    +0.348 C 
ATOM     16  H   UNL     1      37.213 -20.792 -19.160  0.00  0.00    +0.196 HD
ENDBRANCH   8  13
ENDBRANCH   2   8
ENDBRANCH   1   5
BRANCH   1  17
ATOM     17  C   UNL     1      33.897 -12.453 -23.381  0.00  0.00    +0.213 C 
BRANCH  17  18
ATOM     18  C   UNL     1      32.716 -12.045 -22.506  0.00  0.00    +0.105 C 
BRANCH  18  21
ATOM     19  O   UNL     1      32.115  -8.544 -21.670  0.00  0.00    -0.449 OA
ATOM     20  N   UNL     1      33.074  -9.742 -23.331  0.00  0.00    -0.373 NA
ATOM     21  C   UNL     1      32.579 -10.556 -22.367  0.00  0.00    +0.134 C 
ATOM     22  C   UNL     1      31.999  -9.865 -21.359  0.00  0.00    +0.216 C 
ATOM     23  C   UNL     1      32.768  -8.552 -22.864  0.00  0.00    +0.277 C 
ATOM     24  C   UNL     1      31.323 -10.199 -20.101  0.00  0.00    +0.055 C 
BRANCH  23  25
ATOM     25  C   UNL     1      33.026  -7.257 -23.429  0.00  0.00    +0.066 C 
ATOM     26  C   UNL     1      31.965  -6.441 -23.834  0.00  0.00    +0.006 C 
ATOM     27  C   UNL     1      34.340  -6.806 -23.581  0.00  0.00    +0.006 C 
ATOM     28  C   UNL     1      32.217  -5.186 -24.385  0.00  0.00    +0.000 C 
ATOM     29  C   UNL     1      34.592  -5.549 -24.131  0.00  0.00    +0.000 C 
ATOM     30  C   UNL     1      33.530  -4.739 -24.534  0.00  0.00    +0.000 C 
ENDBRANCH  23  25
ENDBRANCH  18  21
ENDBRANCH  17  18
ENDBRANCH   1  17
TORSDOF 7
ENDMDL
MODEL 6
REMARK VINA RESULT:     -11.3      6.169     10.131
REMARK  Name = 154000
REMARK  7 active torsions:
REMARK  status: ('A' for Active; 'I' for Inactive)
REMARK    1  A    between atoms: O_1  and  C_5
REMARK    2  A    between atoms: O_1  and  C_17
REMARK    3  A    between atoms: C_2  and  C_8
REMARK    4  A    between atoms: C_8  and  C_13
REMARK    5  A    between atoms: C_17  and  C_18
REMARK    6  A    between atoms: C_18  and  C_21
REMARK    7  A    between atoms: C_23  and  C_25
REMARK                            x       y       z     vdW  Elec       q    Type
REMARK                         _______ _______ _______ _____ _____    ______ ____
ROOT
ATOM      1  O   UNL     1      36.024 -22.788 -16.838  0.00  0.00    -0.475 OA
ENDROOT
BRANCH   1   5
ATOM      2  C   UNL     1      34.572 -20.552 -19.996  0.00  0.00    -0.021 C 
ATOM      3  C   UNL     1      33.686 -21.270 -19.206  0.00  0.00    -0.001 C 
ATOM      4  C   UNL     1      35.935 -20.571 -19.746  0.00  0.00    -0.001 C 
ATOM      5  C   UNL     1      35.545 -22.052 -17.878  0.00  0.00    +0.139 C 
ATOM      6  C   UNL     1      34.175 -22.025 -18.141  0.00  0.00    +0.037 C 
ATOM      7  C   UNL     1      36.425 -21.326 -18.680  0.00  0.00    +0.037 C 
BRANCH   2   8
ATOM      8  C   UNL     1      34.042 -19.737 -21.149  0.00  0.00    +0.047 C 
BRANCH   8  13
ATOM      9  O   UNL     1      34.864 -17.637 -23.748  0.00  0.00    -0.346 OA
ATOM     10  O   UNL     1      35.490 -17.206 -20.339  0.00  0.00    -0.272 OA
ATOM     11  O   UNL     1      34.642 -19.891 -24.128  0.00  0.00    -0.247 OA
ATOM     12  N   UNL     1      35.116 -16.843 -22.610  0.00  0.00    -0.144 N 
ATOM     13  C   UNL     1      35.152 -19.031 -21.903  0.00  0.00    +0.184 C 
ATOM     14  C   UNL     1      35.280 -17.601 -21.475  0.00  0.00    +0.264 C 
ATOM     15  C   UNL     1      34.854 -18.953 -23.378  0.00  0.00    +0.348 C 
ATOM     16  H   UNL     1      35.169 -15.860 -22.627  0.00  0.00    +0.196 HD
ENDBRANCH   8  13
ENDBRANCH   2   8
ENDBRANCH   1   5
BRANCH   1  17
ATOM     17  C   UNL     1      36.243 -22.104 -15.604  0.00  0.00    +0.213 C 
BRANCH  17  18
ATOM     18  C   UNL     1      36.284 -23.109 -14.457  0.00  0.00    +0.105 C 
BRANCH  18  21
ATOM     19  O   UNL     1      33.220 -24.278 -12.855  0.00  0.00    -0.449 OA
ATOM     20  N   UNL     1      33.857 -23.393 -14.836  0.00  0.00    -0.373 NA
ATOM     21  C   UNL     1      34.916 -23.530 -14.002  0.00  0.00    +0.134 C 
ATOM     22  C   UNL     1      34.564 -24.057 -12.808  0.00  0.00    +0.216 C 
ATOM     23  C   UNL     1      32.871 -23.856 -14.100  0.00  0.00    +0.277 C 
ATOM     24  C   UNL     1      35.257 -24.418 -11.566  0.00  0.00    +0.055 C 
BRANCH  23  25
ATOM     25  C   UNL     1      31.475 -23.979 -14.420  0.00  0.00    +0.066 C 
ATOM     26  C   UNL     1      30.731 -25.051 -13.919  0.00  0.00    +0.006 C 
ATOM     27  C   UNL     1      30.855 -23.028 -15.234  0.00  0.00    +0.006 C 
ATOM     28  C   UNL     1      29.377 -25.170 -14.232  0.00  0.00    +0.000 C 
ATOM     29  C   UNL     1      29.501 -23.147 -15.546  0.00  0.00    +0.000 C 
ATOM     30  C   UNL     1      28.761 -24.218 -15.045  0.00  0.00    +0.000 C 
ENDBRANCH  23  25
ENDBRANCH  18  21
ENDBRANCH  17  18
ENDBRANCH   1  17
TORSDOF 7
ENDMDL
MODEL 7
REMARK VINA RESULT:     -11.2      0.966      1.802
REMARK  Name = 154000
REMARK  7 active torsions:
REMARK  status: ('A' for Active; 'I' for Inactive)
REMARK    1  A    between atoms: O_1  and  C_5
REMARK    2  A    between atoms: O_1  and  C_17
REMARK    3  A    between atoms: C_2  and  C_8
REMARK    4  A    between atoms: C_8  and  C_13
REMARK    5  A    between atoms: C_17  and  C_18
REMARK    6  A    between atoms: C_18  and  C_21
REMARK    7  A    between atoms: C_23  and  C_25
REMARK                            x       y       z     vdW  Elec       q    Type
REMARK                         _______ _______ _______ _____ _____    ______ ____
ROOT
ATOM      1  O   UNL     1      33.551 -14.230 -23.376  0.00  0.00    -0.475 OA
ENDROOT
BRANCH   1   5
ATOM      2  C   UNL     1      33.237 -10.119 -23.085  0.00  0.00    -0.021 C 
ATOM      3  C   UNL     1      34.011 -10.673 -24.094  0.00  0.00    -0.001 C 
ATOM      4  C   UNL     1      32.567 -10.919 -22.172  0.00  0.00    -0.001 C 
ATOM      5  C   UNL     1      33.448 -12.877 -23.280  0.00  0.00    +0.139 C 
ATOM      6  C   UNL     1      34.118 -12.060 -24.192  0.00  0.00    +0.037 C 
ATOM      7  C   UNL     1      32.673 -12.306 -22.271  0.00  0.00    +0.037 C 
BRANCH   2   8
ATOM      8  C   UNL     1      33.124  -8.619 -22.978  0.00  0.00    +0.047 C 
BRANCH   8  13
ATOM      9  O   UNL     1      31.604  -6.326 -20.911  0.00  0.00    -0.346 OA
ATOM     10  O   UNL     1      30.768  -7.163 -24.198  0.00  0.00    -0.272 OA
ATOM     11  O   UNL     1      32.714  -8.121 -20.005  0.00  0.00    -0.247 OA
ATOM     12  N   UNL     1      31.027  -6.048 -22.168  0.00  0.00    -0.144 N 
ATOM     13  C   UNL     1      31.845  -8.194 -22.283  0.00  0.00    +0.184 C 
ATOM     14  C   UNL     1      31.148  -7.104 -23.039  0.00  0.00    +0.264 C 
ATOM     15  C   UNL     1      32.126  -7.589 -20.933  0.00  0.00    +0.348 C 
ATOM     16  H   UNL     1      30.589  -5.196 -22.395  0.00  0.00    +0.196 HD
ENDBRANCH   8  13
ENDBRANCH   2   8
ENDBRANCH   1   5
BRANCH   1  17
ATOM     17  C   UNL     1      34.432 -14.881 -22.459  0.00  0.00    +0.213 C 
BRANCH  17  18
ATOM     18  C   UNL     1      35.233 -15.955 -23.189  0.00  0.00    +0.105 C 
BRANCH  18  21
ATOM     19  O   UNL     1      34.169 -19.391 -22.567  0.00  0.00    -0.449 OA
ATOM     20  N   UNL     1      35.323 -17.762 -21.504  0.00  0.00    -0.373 NA
ATOM     21  C   UNL     1      34.905 -17.344 -22.723  0.00  0.00    +0.134 C 
ATOM     22  C   UNL     1      34.211 -18.300 -23.382  0.00  0.00    +0.216 C 
ATOM     23  C   UNL     1      34.856 -18.990 -21.463  0.00  0.00    +0.277 C 
ATOM     24  C   UNL     1      33.543 -18.413 -24.684  0.00  0.00    +0.055 C 
BRANCH  23  25
ATOM     25  C   UNL     1      34.966 -19.973 -20.420  0.00  0.00    +0.066 C 
ATOM     26  C   UNL     1      36.222 -20.335 -19.924  0.00  0.00    +0.006 C 
ATOM     27  C   UNL     1      33.818 -20.575 -19.899  0.00  0.00    +0.006 C 
ATOM     28  C   UNL     1      36.327 -21.291 -18.914  0.00  0.00    +0.000 C 
ATOM     29  C   UNL     1      33.923 -21.530 -18.888  0.00  0.00    +0.000 C 
ATOM     30  C   UNL     1      35.178 -21.889 -18.396  0.00  0.00    +0.000 C 
ENDBRANCH  23  25
ENDBRANCH  18  21
ENDBRANCH  17  18
ENDBRANCH   1  17
TORSDOF 7
ENDMDL
MODEL 8
REMARK VINA RESULT:     -11.0      3.603      6.553
REMARK  Name = 154000
REMARK  7 active torsions:
REMARK  status: ('A' for Active; 'I' for Inactive)
REMARK    1  A    between atoms: O_1  and  C_5
REMARK    2  A    between atoms: O_1  and  C_17
REMARK    3  A    between atoms: C_2  and  C_8
REMARK    4  A    between atoms: C_8  and  C_13
REMARK    5  A    between atoms: C_17  and  C_18
REMARK    6  A    between atoms: C_18  and  C_21
REMARK    7  A    between atoms: C_23  and  C_25
REMARK                            x       y       z     vdW  Elec       q    Type
REMARK                         _______ _______ _______ _____ _____    ______ ____
ROOT
ATOM      1  O   UNL     1      35.175 -20.492 -21.051  0.00  0.00    -0.475 OA
ENDROOT
BRANCH   1   5
ATOM      2  C   UNL     1      35.181 -16.750 -22.809  0.00  0.00    -0.021 C 
ATOM      3  C   UNL     1      34.686 -17.835 -23.518  0.00  0.00    -0.001 C 
ATOM      4  C   UNL     1      35.675 -16.899 -21.522  0.00  0.00    -0.001 C 
ATOM      5  C   UNL     1      35.177 -19.260 -21.631  0.00  0.00    +0.139 C 
ATOM      6  C   UNL     1      34.683 -19.097 -22.925  0.00  0.00    +0.037 C 
ATOM      7  C   UNL     1      35.672 -18.161 -20.929  0.00  0.00    +0.037 C 
BRANCH   2   8
ATOM      8  C   UNL     1      35.184 -15.386 -23.451  0.00  0.00    +0.047 C 
BRANCH   8  13
ATOM      9  O   UNL     1      33.587 -12.458 -22.604  0.00  0.00    -0.346 OA
ATOM     10  O   UNL     1      33.430 -14.212 -25.620  0.00  0.00    -0.272 OA
ATOM     11  O   UNL     1      34.167 -13.957 -20.964  0.00  0.00    -0.247 OA
ATOM     12  N   UNL     1      33.371 -12.543 -23.996  0.00  0.00    -0.144 N 
ATOM     13  C   UNL     1      33.857 -14.673 -23.275  0.00  0.00    +0.184 C 
ATOM     14  C   UNL     1      33.532 -13.824 -24.467  0.00  0.00    +0.264 C 
ATOM     15  C   UNL     1      33.902 -13.699 -22.127  0.00  0.00    +0.348 C 
ATOM     16  H   UNL     1      33.133 -11.775 -24.563  0.00  0.00    +0.196 HD
ENDBRANCH   8  13
ENDBRANCH   2   8
ENDBRANCH   1   5
BRANCH   1  17
ATOM     17  C   UNL     1      35.700 -20.587 -19.727  0.00  0.00    +0.213 C 
BRANCH  17  18
ATOM     18  C   UNL     1      35.478 -21.996 -19.185  0.00  0.00    +0.105 C 
BRANCH  18  21
ATOM     19  O   UNL     1      32.153 -21.968 -17.681  0.00  0.00    -0.449 OA
ATOM     20  N   UNL     1      34.188 -22.864 -17.263  0.00  0.00    -0.373 NA
ATOM     21  C   UNL     1      34.206 -22.124 -18.398  0.00  0.00    +0.134 C 
ATOM     22  C   UNL     1      33.000 -21.576 -18.673  0.00  0.00    +0.216 C 
ATOM     23  C   UNL     1      32.938 -22.736 -16.876  0.00  0.00    +0.277 C 
ATOM     24  C   UNL     1      32.445 -20.715 -19.724  0.00  0.00    +0.055 C 
BRANCH  23  25
ATOM     25  C   UNL     1      32.278 -23.290 -15.727  0.00  0.00    +0.066 C 
ATOM     26  C   UNL     1      33.025 -23.734 -14.632  0.00  0.00    +0.006 C 
ATOM     27  C   UNL     1      30.884 -23.392 -15.698  0.00  0.00    +0.006 C 
ATOM     28  C   UNL     1      32.383 -24.274 -13.518  0.00  0.00    +0.000 C 
ATOM     29  C   UNL     1      30.243 -23.931 -14.583  0.00  0.00    +0.000 C 
ATOM     30  C   UNL     1      30.992 -24.373 -13.493  0.00  0.00    +0.000 C 
ENDBRANCH  23  25
ENDBRANCH  18  21
ENDBRANCH  17  18
ENDBRANCH   1  17
TORSDOF 7
ENDMDL
MODEL 9
REMARK VINA RESULT:     -10.9      1.399      1.809
REMARK  Name = 154000
REMARK  7 active torsions:
REMARK  status: ('A' for Active; 'I' for Inactive)
REMARK    1  A    between atoms: O_1  and  C_5
REMARK    2  A    between atoms: O_1  and  C_17
REMARK    3  A    between atoms: C_2  and  C_8
REMARK    4  A    between atoms: C_8  and  C_13
REMARK    5  A    between atoms: C_17  and  C_18
REMARK    6  A    between atoms: C_18  and  C_21
REMARK    7  A    between atoms: C_23  and  C_25
REMARK                            x       y       z     vdW  Elec       q    Type
REMARK                         _______ _______ _______ _____ _____    ______ ____
ROOT
ATOM      1  O   UNL     1      34.127 -14.098 -23.737  0.00  0.00    -0.475 OA
ENDROOT
BRANCH   1   5
ATOM      2  C   UNL     1      32.781 -10.307 -22.785  0.00  0.00    -0.021 C 
ATOM      3  C   UNL     1      32.430 -11.378 -21.976  0.00  0.00    -0.001 C 
ATOM      4  C   UNL     1      33.575 -10.486 -23.908  0.00  0.00    -0.001 C 
ATOM      5  C   UNL     1      33.683 -12.850 -23.423  0.00  0.00    +0.139 C 
ATOM      6  C   UNL     1      32.884 -12.657 -22.297  0.00  0.00    +0.037 C 
ATOM      7  C   UNL     1      34.029 -11.765 -24.229  0.00  0.00    +0.037 C 
BRANCH   2   8
ATOM      8  C   UNL     1      32.289  -8.925 -22.438  0.00  0.00    +0.047 C 
BRANCH   8  13
ATOM      9  O   UNL     1      32.257  -5.615 -23.381  0.00  0.00    -0.346 OA
ATOM     10  O   UNL     1      34.976  -7.537 -22.325  0.00  0.00    -0.272 OA
ATOM     11  O   UNL     1      30.680  -7.058 -24.222  0.00  0.00    -0.247 OA
ATOM     12  N   UNL     1      33.539  -5.769 -22.813  0.00  0.00    -0.144 N 
ATOM     13  C   UNL     1      32.823  -7.876 -23.395  0.00  0.00    +0.184 C 
ATOM     14  C   UNL     1      33.934  -7.084 -22.772  0.00  0.00    +0.264 C 
ATOM     15  C   UNL     1      31.774  -6.847 -23.726  0.00  0.00    +0.348 C 
ATOM     16  H   UNL     1      34.087  -5.020 -22.485  0.00  0.00    +0.196 HD
ENDBRANCH   8  13
ENDBRANCH   2   8
ENDBRANCH   1   5
BRANCH   1  17
ATOM     17  C   UNL     1      34.450 -14.965 -22.650  0.00  0.00    +0.213 C 
BRANCH  17  18
ATOM     18  C   UNL     1      35.420 -16.044 -23.123  0.00  0.00    +0.105 C 
BRANCH  18  21
ATOM     19  O   UNL     1      34.222 -19.437 -22.514  0.00  0.00    -0.449 OA
ATOM     20  N   UNL     1      35.409 -17.846 -21.430  0.00  0.00    -0.373 NA
ATOM     21  C   UNL     1      35.033 -17.419 -22.660  0.00  0.00    +0.134 C 
ATOM     22  C   UNL     1      34.321 -18.352 -23.331  0.00  0.00    +0.216 C 
ATOM     23  C   UNL     1      34.898 -19.057 -21.396  0.00  0.00    +0.277 C 
ATOM     24  C   UNL     1      33.678 -18.446 -24.647  0.00  0.00    +0.055 C 
BRANCH  23  25
ATOM     25  C   UNL     1      34.950 -20.039 -20.348  0.00  0.00    +0.066 C 
ATOM     26  C   UNL     1      36.179 -20.426 -19.806  0.00  0.00    +0.006 C 
ATOM     27  C   UNL     1      33.771 -20.616 -19.867  0.00  0.00    +0.006 C 
ATOM     28  C   UNL     1      36.228 -21.381 -18.791  0.00  0.00    +0.000 C 
ATOM     29  C   UNL     1      33.821 -21.571 -18.852  0.00  0.00    +0.000 C 
ATOM     30  C   UNL     1      35.049 -21.953 -18.313  0.00  0.00    +0.000 C 
ENDBRANCH  23  25
ENDBRANCH  18  21
ENDBRANCH  17  18
ENDBRANCH   1  17
TORSDOF 7
ENDMDL
