MODEL 1
REMARK VINA RESULT:     -13.0      0.000      0.000
REMARK  Name = 11167118
REMARK  6 active torsions:
REMARK  status: ('A' for Active; 'I' for Inactive)
REMARK    1  A    between atoms: N_2  and  C_6
REMARK    2  A    between atoms: N_2  and  C_15
REMARK    3  A    between atoms: C_8  and  O_25
REMARK    4  A    between atoms: C_17  and  C_24
REMARK    5  A    between atoms: O_25  and  C_27
REMARK    6  A    between atoms: C_30  and  C_34
REMARK                            x       y       z     vdW  Elec       q    Type
REMARK                         _______ _______ _______ _____ _____    ______ ____
ROOT
ATOM      1  N   UNL     1      33.318 -20.990 -19.542  0.00  0.00    -0.302 N 
ATOM      2  N   UNL     1      34.992 -22.100 -18.589  0.00  0.00    -0.302 N 
ATOM      3  C   UNL     1      34.460 -20.341 -19.937  0.00  0.00    +0.063 C 
ATOM      4  C   UNL     1      35.490 -21.053 -19.329  0.00  0.00    +0.060 C 
ATOM      5  C   UNL     1      33.687 -22.033 -18.739  0.00  0.00    +0.225 C 
ATOM      6  C   UNL     1      34.674 -19.226 -20.750  0.00  0.00    +0.053 C 
ATOM      7  C   UNL     1      36.002 -18.833 -20.941  0.00  0.00    +0.147 C 
ATOM      8  C   UNL     1      36.819 -20.643 -19.532  0.00  0.00    +0.019 C 
ATOM      9  C   UNL     1      37.057 -19.527 -20.344  0.00  0.00    +0.039 C 
ATOM     10  H   UNL     1      32.398 -20.747 -19.793  0.00  0.00    +0.150 HD
ATOM     11  H   UNL     1      35.500 -22.757 -18.061  0.00  0.00    +0.150 HD
ENDROOT
BRANCH   5  12
ATOM     12  N   UNL     1      32.716 -22.821 -18.227  0.00  0.00    -0.303 N 
ATOM     13  H   UNL     1      32.250 -23.384 -18.887  0.00  0.00    +0.150 HD
BRANCH  12  15
ATOM     14 CL   UNL     1      30.859 -23.442 -12.634  0.00  0.00    -0.082 Cl
ATOM     15  C   UNL     1      32.261 -22.968 -16.887  0.00  0.00    +0.047 C 
ATOM     16  C   UNL     1      30.911 -22.813 -16.602  0.00  0.00    +0.019 C 
ATOM     17  C   UNL     1      30.465 -22.958 -15.288  0.00  0.00    +0.083 C 
ATOM     18  C   UNL     1      33.173 -23.264 -15.883  0.00  0.00    +0.015 C 
ATOM     19  C   UNL     1      31.373 -23.255 -14.271  0.00  0.00    +0.062 C 
ATOM     20  C   UNL     1      32.727 -23.408 -14.569  0.00  0.00    +0.013 C 
BRANCH  17  24
ATOM     21  F   UNL     1      28.432 -23.934 -14.575  0.00  0.00    -0.166 F 
ATOM     22  F   UNL     1      28.768 -21.848 -14.063  0.00  0.00    -0.166 F 
ATOM     23  F   UNL     1      28.340 -22.404 -16.127  0.00  0.00    -0.166 F 
ATOM     24  C   UNL     1      29.006 -22.787 -15.011  0.00  0.00    +0.419 C 
ENDBRANCH  17  24
ENDBRANCH  12  15
ENDBRANCH   5  12
BRANCH   7  25
ATOM     25  O   UNL     1      36.271 -17.750 -21.725  0.00  0.00    -0.453 OA
BRANCH  25  27
ATOM     26  N   UNL     1      33.601 -16.876 -24.786  0.00  0.00    -0.239 NA
ATOM     27  C   UNL     1      35.382 -17.459 -22.744  0.00  0.00    +0.149 C 
ATOM     28  C   UNL     1      35.098 -16.142 -23.036  0.00  0.00    +0.061 C 
ATOM     29  C   UNL     1      34.800 -18.492 -23.447  0.00  0.00    +0.058 C 
ATOM     30  C   UNL     1      34.201 -15.903 -24.065  0.00  0.00    +0.137 C 
ATOM     31  C   UNL     1      33.916 -18.149 -24.458  0.00  0.00    +0.102 C 
BRANCH  30  34
ATOM     32  O   UNL     1      33.465 -14.274 -25.582  0.00  0.00    -0.268 OA
ATOM     33  N   UNL     1      33.948 -13.568 -23.428  0.00  0.00    -0.298 N 
ATOM     34  C   UNL     1      33.852 -14.541 -24.430  0.00  0.00    +0.264 C 
ATOM     35  C   UNL     1      33.615 -12.176 -23.629  0.00  0.00    +0.111 C 
ATOM     36  H   UNL     1      34.262 -13.847 -22.537  0.00  0.00    +0.150 HD
ENDBRANCH  30  34
ENDBRANCH  25  27
ENDBRANCH   7  25
TORSDOF 6
ENDMDL
MODEL 2
REMARK VINA RESULT:     -12.8      1.906      2.342
REMARK  Name = 11167118
REMARK  6 active torsions:
REMARK  status: ('A' for Active; 'I' for Inactive)
REMARK    1  A    between atoms: N_2  and  C_6
REMARK    2  A    between atoms: N_2  and  C_15
REMARK    3  A    between atoms: C_8  and  O_25
REMARK    4  A    between atoms: C_17  and  C_24
REMARK    5  A    between atoms: O_25  and  C_27
REMARK    6  A    between atoms: C_30  and  C_34
REMARK                            x       y       z     vdW  Elec       q    Type
REMARK                         _______ _______ _______ _____ _____    ______ ____
ROOT
ATOM      1  N   UNL     1      32.688 -21.047 -19.134  0.00  0.00    -0.302 N 
ATOM      2  N   UNL     1      34.121 -22.320 -18.008  0.00  0.00    -0.302 N 
ATOM      3  C   UNL     1      33.933 -20.663 -19.562  0.00  0.00    +0.063 C 
ATOM      4  C   UNL     1      34.810 -21.472 -18.844  0.00  0.00    +0.060 C 
ATOM      5  C   UNL     1      32.852 -22.039 -18.208  0.00  0.00    +0.225 C 
ATOM      6  C   UNL     1      34.356 -19.706 -20.486  0.00  0.00    +0.053 C 
ATOM      7  C   UNL     1      35.736 -19.581 -20.676  0.00  0.00    +0.147 C 
ATOM      8  C   UNL     1      36.193 -21.332 -19.047  0.00  0.00    +0.019 C 
ATOM      9  C   UNL     1      36.640 -20.378 -19.971  0.00  0.00    +0.039 C 
ATOM     10  H   UNL     1      31.830 -20.675 -19.441  0.00  0.00    +0.150 HD
ATOM     11  H   UNL     1      34.495 -22.992 -17.394  0.00  0.00    +0.150 HD
ENDROOT
BRANCH   5  12
ATOM     12  N   UNL     1      31.748 -22.576 -17.644  0.00  0.00    -0.303 N 
ATOM     13  H   UNL     1      31.027 -22.800 -18.277  0.00  0.00    +0.150 HD
BRANCH  12  15
ATOM     14 CL   UNL     1      30.513 -23.789 -11.977  0.00  0.00    -0.082 Cl
ATOM     15  C   UNL     1      31.461 -22.871 -16.281  0.00  0.00    +0.047 C 
ATOM     16  C   UNL     1      32.463 -23.376 -15.464  0.00  0.00    +0.019 C 
ATOM     17  C   UNL     1      32.181 -23.664 -14.129  0.00  0.00    +0.083 C 
ATOM     18  C   UNL     1      30.182 -22.649 -15.789  0.00  0.00    +0.015 C 
ATOM     19  C   UNL     1      30.899 -23.445 -13.623  0.00  0.00    +0.062 C 
ATOM     20  C   UNL     1      29.899 -22.938 -14.454  0.00  0.00    +0.013 C 
BRANCH  17  24
ATOM     21  F   UNL     1      32.886 -25.293 -12.566  0.00  0.00    -0.166 F 
ATOM     22  F   UNL     1      34.360 -24.583 -13.998  0.00  0.00    -0.166 F 
ATOM     23  F   UNL     1      33.702 -23.280 -12.379  0.00  0.00    -0.166 F 
ATOM     24  C   UNL     1      33.279 -24.206 -13.273  0.00  0.00    +0.419 C 
ENDBRANCH  17  24
ENDBRANCH  12  15
ENDBRANCH   5  12
BRANCH   7  25
ATOM     25  O   UNL     1      36.206 -18.662 -21.567  0.00  0.00    -0.453 OA
BRANCH  25  27
ATOM     26  N   UNL     1      33.705 -17.552 -24.694  0.00  0.00    -0.239 NA
ATOM     27  C   UNL     1      35.374 -18.293 -22.608  0.00  0.00    +0.149 C 
ATOM     28  C   UNL     1      35.165 -16.953 -22.863  0.00  0.00    +0.061 C 
ATOM     29  C   UNL     1      34.770 -19.270 -23.369  0.00  0.00    +0.058 C 
ATOM     30  C   UNL     1      34.323 -16.635 -23.916  0.00  0.00    +0.137 C 
ATOM     31  C   UNL     1      33.945 -18.850 -24.400  0.00  0.00    +0.102 C 
BRANCH  30  34
ATOM     32  O   UNL     1      33.761 -14.917 -25.409  0.00  0.00    -0.268 OA
ATOM     33  N   UNL     1      34.119 -14.320 -23.198  0.00  0.00    -0.298 N 
ATOM     34  C   UNL     1      34.055 -15.246 -24.246  0.00  0.00    +0.264 C 
ATOM     35  C   UNL     1      33.856 -12.907 -23.361  0.00  0.00    +0.111 C 
ATOM     36  H   UNL     1      34.358 -14.647 -22.301  0.00  0.00    +0.150 HD
ENDBRANCH  30  34
ENDBRANCH  25  27
ENDBRANCH   7  25
TORSDOF 6
ENDMDL
MODEL 3
REMARK VINA RESULT:     -12.6      5.498     10.309
REMARK  Name = 11167118
REMARK  6 active torsions:
REMARK  status: ('A' for Active; 'I' for Inactive)
REMARK    1  A    between atoms: N_2  and  C_6
REMARK    2  A    between atoms: N_2  and  C_15
REMARK    3  A    between atoms: C_8  and  O_25
REMARK    4  A    between atoms: C_17  and  C_24
REMARK    5  A    between atoms: O_25  and  C_27
REMARK    6  A    between atoms: C_30  and  C_34
REMARK                            x       y       z     vdW  Elec       q    Type
REMARK                         _______ _______ _______ _____ _____    ______ ____
ROOT
ATOM      1  N   UNL     1      34.391 -19.301 -21.246  0.00  0.00    -0.302 N 
ATOM      2  N   UNL     1      36.464 -19.701 -20.554  0.00  0.00    -0.302 N 
ATOM      3  C   UNL     1      34.273 -20.257 -20.270  0.00  0.00    +0.063 C 
ATOM      4  C   UNL     1      35.581 -20.490 -19.854  0.00  0.00    +0.060 C 
ATOM      5  C   UNL     1      35.717 -19.001 -21.379  0.00  0.00    +0.225 C 
ATOM      6  C   UNL     1      33.168 -20.920 -19.732  0.00  0.00    +0.053 C 
ATOM      7  C   UNL     1      33.425 -21.856 -18.726  0.00  0.00    +0.147 C 
ATOM      8  C   UNL     1      35.821 -21.435 -18.843  0.00  0.00    +0.019 C 
ATOM      9  C   UNL     1      34.727 -22.111 -18.287  0.00  0.00    +0.039 C 
ATOM     10  H   UNL     1      33.650 -18.902 -21.758  0.00  0.00    +0.150 HD
ATOM     11  H   UNL     1      37.444 -19.666 -20.458  0.00  0.00    +0.150 HD
ENDROOT
BRANCH   5  12
ATOM     12  N   UNL     1      36.075 -18.072 -22.293  0.00  0.00    -0.303 N 
ATOM     13  H   UNL     1      36.989 -18.169 -22.645  0.00  0.00    +0.150 HD
BRANCH  12  15
ATOM     14 CL   UNL     1      33.018 -13.528 -24.556  0.00  0.00    -0.082 Cl
ATOM     15  C   UNL     1      35.341 -16.976 -22.827  0.00  0.00    +0.047 C 
ATOM     16  C   UNL     1      35.059 -15.883 -22.021  0.00  0.00    +0.019 C 
ATOM     17  C   UNL     1      34.340 -14.808 -22.545  0.00  0.00    +0.083 C 
ATOM     18  C   UNL     1      34.917 -17.017 -24.149  0.00  0.00    +0.015 C 
ATOM     19  C   UNL     1      33.909 -14.839 -23.872  0.00  0.00    +0.062 C 
ATOM     20  C   UNL     1      34.197 -15.943 -24.674  0.00  0.00    +0.013 C 
BRANCH  17  24
ATOM     21  F   UNL     1      34.491 -12.476 -22.182  0.00  0.00    -0.166 F 
ATOM     22  F   UNL     1      32.727 -13.490 -21.417  0.00  0.00    -0.166 F 
ATOM     23  F   UNL     1      34.657 -13.791 -20.450  0.00  0.00    -0.166 F 
ATOM     24  C   UNL     1      34.052 -13.644 -21.653  0.00  0.00    +0.419 C 
ENDBRANCH  17  24
ENDBRANCH  12  15
ENDBRANCH   5  12
BRANCH   7  25
ATOM     25  O   UNL     1      32.384 -22.534 -18.163  0.00  0.00    -0.453 OA
BRANCH  25  27
ATOM     26  N   UNL     1      32.678 -23.520 -14.137  0.00  0.00    -0.239 NA
ATOM     27  C   UNL     1      32.482 -22.862 -16.823  0.00  0.00    +0.149 C 
ATOM     28  C   UNL     1      33.711 -23.204 -16.300  0.00  0.00    +0.061 C 
ATOM     29  C   UNL     1      31.349 -22.840 -16.038  0.00  0.00    +0.058 C 
ATOM     30  C   UNL     1      33.757 -23.525 -14.953  0.00  0.00    +0.137 C 
ATOM     31  C   UNL     1      31.499 -23.177 -14.702  0.00  0.00    +0.102 C 
BRANCH  30  34
ATOM     32  O   UNL     1      35.794 -24.683 -14.897  0.00  0.00    -0.268 OA
ATOM     33  N   UNL     1      35.311 -23.310 -13.093  0.00  0.00    -0.298 N 
ATOM     34  C   UNL     1      35.016 -23.895 -14.330  0.00  0.00    +0.264 C 
ATOM     35  C   UNL     1      36.532 -23.561 -12.360  0.00  0.00    +0.111 C 
ATOM     36  H   UNL     1      34.650 -22.695 -12.699  0.00  0.00    +0.150 HD
ENDBRANCH  30  34
ENDBRANCH  25  27
ENDBRANCH   7  25
TORSDOF 6
ENDMDL
MODEL 4
REMARK VINA RESULT:     -12.6      5.624     10.263
REMARK  Name = 11167118
REMARK  6 active torsions:
REMARK  status: ('A' for Active; 'I' for Inactive)
REMARK    1  A    between atoms: N_2  and  C_6
REMARK    2  A    between atoms: N_2  and  C_15
REMARK    3  A    between atoms: C_8  and  O_25
REMARK    4  A    between atoms: C_17  and  C_24
REMARK    5  A    between atoms: O_25  and  C_27
REMARK    6  A    between atoms: C_30  and  C_34
REMARK                            x       y       z     vdW  Elec       q    Type
REMARK                         _______ _______ _______ _____ _____    ______ ____
ROOT
ATOM      1  N   UNL     1      35.990 -19.872 -20.211  0.00  0.00    -0.302 N 
ATOM      2  N   UNL     1      33.925 -19.555 -20.969  0.00  0.00    -0.302 N 
ATOM      3  C   UNL     1      35.198 -20.721 -19.481  0.00  0.00    +0.063 C 
ATOM      4  C   UNL     1      33.913 -20.503 -19.973  0.00  0.00    +0.060 C 
ATOM      5  C   UNL     1      35.185 -19.197 -21.086  0.00  0.00    +0.225 C 
ATOM      6  C   UNL     1      35.484 -21.632 -18.463  0.00  0.00    +0.053 C 
ATOM      7  C   UNL     1      34.404 -22.346 -17.935  0.00  0.00    +0.147 C 
ATOM      8  C   UNL     1      32.840 -21.229 -19.431  0.00  0.00    +0.019 C 
ATOM      9  C   UNL     1      33.105 -22.150 -18.408  0.00  0.00    +0.039 C 
ATOM     10  H   UNL     1      36.965 -19.768 -20.120  0.00  0.00    +0.150 HD
ATOM     11  H   UNL     1      33.158 -19.215 -21.484  0.00  0.00    +0.150 HD
ENDROOT
BRANCH   5  12
ATOM     12  N   UNL     1      35.756 -18.298 -21.916  0.00  0.00    -0.303 N 
ATOM     13  H   UNL     1      36.718 -18.431 -22.073  0.00  0.00    +0.150 HD
BRANCH  12  15
ATOM     14 CL   UNL     1      33.388 -13.695 -24.802  0.00  0.00    -0.082 Cl
ATOM     15  C   UNL     1      35.186 -17.186 -22.601  0.00  0.00    +0.047 C 
ATOM     16  C   UNL     1      34.919 -16.017 -21.904  0.00  0.00    +0.019 C 
ATOM     17  C   UNL     1      34.361 -14.928 -22.575  0.00  0.00    +0.083 C 
ATOM     18  C   UNL     1      34.908 -17.289 -23.957  0.00  0.00    +0.015 C 
ATOM     19  C   UNL     1      34.077 -15.021 -23.938  0.00  0.00    +0.062 C 
ATOM     20  C   UNL     1      34.350 -16.201 -24.629  0.00  0.00    +0.013 C 
BRANCH  17  24
ATOM     21  F   UNL     1      34.594 -12.581 -22.402  0.00  0.00    -0.166 F 
ATOM     22  F   UNL     1      32.758 -13.458 -21.638  0.00  0.00    -0.166 F 
ATOM     23  F   UNL     1      34.630 -13.748 -20.560  0.00  0.00    -0.166 F 
ATOM     24  C   UNL     1      34.084 -13.682 -21.798  0.00  0.00    +0.419 C 
ENDBRANCH  17  24
ENDBRANCH  12  15
ENDBRANCH   5  12
BRANCH   7  25
ATOM     25  O   UNL     1      34.624 -23.250 -16.938  0.00  0.00    -0.453 OA
BRANCH  25  27
ATOM     26  N   UNL     1      31.803 -23.489 -13.897  0.00  0.00    -0.239 NA
ATOM     27  C   UNL     1      33.686 -23.329 -15.926  0.00  0.00    +0.149 C 
ATOM     28  C   UNL     1      32.355 -23.493 -16.250  0.00  0.00    +0.061 C 
ATOM     29  C   UNL     1      34.099 -23.245 -14.613  0.00  0.00    +0.058 C 
ATOM     30  C   UNL     1      31.454 -23.567 -15.201  0.00  0.00    +0.137 C 
ATOM     31  C   UNL     1      33.120 -23.330 -13.636  0.00  0.00    +0.102 C 
BRANCH  30  34
ATOM     32  O   UNL     1      29.402 -24.671 -14.936  0.00  0.00    -0.268 OA
ATOM     33  N   UNL     1      29.427 -22.801 -16.307  0.00  0.00    -0.298 N 
ATOM     34  C   UNL     1      30.035 -23.738 -15.464  0.00  0.00    +0.264 C 
ATOM     35  C   UNL     1      28.021 -22.824 -16.646  0.00  0.00    +0.111 C 
ATOM     36  H   UNL     1      29.986 -22.088 -16.691  0.00  0.00    +0.150 HD
ENDBRANCH  30  34
ENDBRANCH  25  27
ENDBRANCH   7  25
TORSDOF 6
ENDMDL
MODEL 5
REMARK VINA RESULT:     -12.3      6.450     10.890
REMARK  Name = 11167118
REMARK  6 active torsions:
REMARK  status: ('A' for Active; 'I' for Inactive)
REMARK    1  A    between atoms: N_2  and  C_6
REMARK    2  A    between atoms: N_2  and  C_15
REMARK    3  A    between atoms: C_8  and  O_25
REMARK    4  A    between atoms: C_17  and  C_24
REMARK    5  A    between atoms: O_25  and  C_27
REMARK    6  A    between atoms: C_30  and  C_34
REMARK                            x       y       z     vdW  Elec       q    Type
REMARK                         _______ _______ _______ _____ _____    ______ ____
ROOT
ATOM      1  N   UNL     1      34.939 -15.353 -22.457  0.00  0.00    -0.302 N 
ATOM      2  N   UNL     1      34.124 -16.031 -24.410  0.00  0.00    -0.302 N 
ATOM      3  C   UNL     1      35.016 -16.722 -22.430  0.00  0.00    +0.063 C 
ATOM      4  C   UNL     1      34.501 -17.121 -23.661  0.00  0.00    +0.060 C 
ATOM      5  C   UNL     1      34.400 -14.988 -23.659  0.00  0.00    +0.225 C 
ATOM      6  C   UNL     1      35.478 -17.619 -21.465  0.00  0.00    +0.053 C 
ATOM      7  C   UNL     1      35.405 -18.978 -21.783  0.00  0.00    +0.147 C 
ATOM      8  C   UNL     1      34.435 -18.492 -23.964  0.00  0.00    +0.019 C 
ATOM      9  C   UNL     1      34.893 -19.409 -23.010  0.00  0.00    +0.039 C 
ATOM     10  H   UNL     1      35.222 -14.743 -21.738  0.00  0.00    +0.150 HD
ATOM     11  H   UNL     1      33.732 -16.031 -25.313  0.00  0.00    +0.150 HD
ENDROOT
BRANCH   5  12
ATOM     12  N   UNL     1      34.229 -13.672 -23.910  0.00  0.00    -0.303 N 
ATOM     13  H   UNL     1      34.658 -13.349 -24.736  0.00  0.00    +0.150 HD
BRANCH  12  15
ATOM     14 CL   UNL     1      31.286  -9.563 -20.816  0.00  0.00    -0.082 Cl
ATOM     15  C   UNL     1      33.527 -12.677 -23.172  0.00  0.00    +0.047 C 
ATOM     16  C   UNL     1      33.697 -11.338 -23.495  0.00  0.00    +0.019 C 
ATOM     17  C   UNL     1      33.008 -10.364 -22.772  0.00  0.00    +0.083 C 
ATOM     18  C   UNL     1      32.682 -13.062 -22.141  0.00  0.00    +0.015 C 
ATOM     19  C   UNL     1      32.156 -10.739 -21.732  0.00  0.00    +0.062 C 
ATOM     20  C   UNL     1      31.993 -12.088 -21.417  0.00  0.00    +0.013 C 
BRANCH  17  24
ATOM     21  F   UNL     1      34.179  -8.776 -24.075  0.00  0.00    -0.166 F 
ATOM     22  F   UNL     1      32.087  -8.366 -23.649  0.00  0.00    -0.166 F 
ATOM     23  F   UNL     1      33.572  -8.195 -22.063  0.00  0.00    -0.166 F 
ATOM     24  C   UNL     1      33.210  -8.930 -23.142  0.00  0.00    +0.419 C 
ENDBRANCH  17  24
ENDBRANCH  12  15
ENDBRANCH   5  12
BRANCH   7  25
ATOM     25  O   UNL     1      35.841 -19.900 -20.878  0.00  0.00    -0.453 OA
BRANCH  25  27
ATOM     26  N   UNL     1      32.999 -21.700 -18.439  0.00  0.00    -0.239 NA
ATOM     27  C   UNL     1      34.895 -20.499 -20.066  0.00  0.00    +0.149 C 
ATOM     28  C   UNL     1      35.311 -21.286 -19.012  0.00  0.00    +0.061 C 
ATOM     29  C   UNL     1      33.556 -20.297 -20.326  0.00  0.00    +0.058 C 
ATOM     30  C   UNL     1      34.325 -21.864 -18.229  0.00  0.00    +0.137 C 
ATOM     31  C   UNL     1      32.648 -20.919 -19.485  0.00  0.00    +0.102 C 
BRANCH  30  34
ATOM     32  O   UNL     1      33.973 -23.674 -16.781  0.00  0.00    -0.268 OA
ATOM     33  N   UNL     1      35.868 -22.389 -16.423  0.00  0.00    -0.298 N 
ATOM     34  C   UNL     1      34.686 -22.705 -17.101  0.00  0.00    +0.264 C 
ATOM     35  C   UNL     1      36.372 -23.143 -15.297  0.00  0.00    +0.111 C 
ATOM     36  H   UNL     1      36.386 -21.608 -16.728  0.00  0.00    +0.150 HD
ENDBRANCH  30  34
ENDBRANCH  25  27
ENDBRANCH   7  25
TORSDOF 6
ENDMDL
MODEL 6
REMARK VINA RESULT:     -12.3      3.871      4.616
REMARK  Name = 11167118
REMARK  6 active torsions:
REMARK  status: ('A' for Active; 'I' for Inactive)
REMARK    1  A    between atoms: N_2  and  C_6
REMARK    2  A    between atoms: N_2  and  C_15
REMARK    3  A    between atoms: C_8  and  O_25
REMARK    4  A    between atoms: C_17  and  C_24
REMARK    5  A    between atoms: O_25  and  C_27
REMARK    6  A    between atoms: C_30  and  C_34
REMARK                            x       y       z     vdW  Elec       q    Type
REMARK                         _______ _______ _______ _____ _____    ______ ____
ROOT
ATOM      1  N   UNL     1      35.121 -22.316 -17.601  0.00  0.00    -0.302 N 
ATOM      2  N   UNL     1      32.906 -22.301 -17.775  0.00  0.00    -0.302 N 
ATOM      3  C   UNL     1      34.843 -21.486 -18.656  0.00  0.00    +0.063 C 
ATOM      4  C   UNL     1      33.453 -21.494 -18.744  0.00  0.00    +0.060 C 
ATOM      5  C   UNL     1      33.933 -22.778 -17.107  0.00  0.00    +0.225 C 
ATOM      6  C   UNL     1      35.661 -20.751 -19.516  0.00  0.00    +0.053 C 
ATOM      7  C   UNL     1      35.020 -19.996 -20.503  0.00  0.00    +0.147 C 
ATOM      8  C   UNL     1      32.826 -20.729 -19.743  0.00  0.00    +0.019 C 
ATOM      9  C   UNL     1      33.628 -19.984 -20.616  0.00  0.00    +0.039 C 
ATOM     10  H   UNL     1      36.018 -22.538 -17.260  0.00  0.00    +0.150 HD
ATOM     11  H   UNL     1      31.952 -22.483 -17.614  0.00  0.00    +0.150 HD
ENDROOT
BRANCH   5  12
ATOM     12  N   UNL     1      33.963 -23.620 -16.052  0.00  0.00    -0.303 N 
ATOM     13  H   UNL     1      33.143 -24.149 -15.921  0.00  0.00    +0.150 HD
BRANCH  12  15
ATOM     14 CL   UNL     1      38.241 -24.606 -12.072  0.00  0.00    -0.082 Cl
ATOM     15  C   UNL     1      34.992 -23.867 -15.099  0.00  0.00    +0.047 C 
ATOM     16  C   UNL     1      35.633 -25.098 -15.087  0.00  0.00    +0.019 C 
ATOM     17  C   UNL     1      36.642 -25.338 -14.153  0.00  0.00    +0.083 C 
ATOM     18  C   UNL     1      35.339 -22.872 -14.196  0.00  0.00    +0.015 C 
ATOM     19  C   UNL     1      36.999 -24.345 -13.240  0.00  0.00    +0.062 C 
ATOM     20  C   UNL     1      36.347 -23.112 -13.261  0.00  0.00    +0.013 C 
BRANCH  17  24
ATOM     21  F   UNL     1      37.160 -27.332 -12.991  0.00  0.00    -0.166 F 
ATOM     22  F   UNL     1      36.833 -27.486 -15.134  0.00  0.00    -0.166 F 
ATOM     23  F   UNL     1      38.647 -26.544 -14.378  0.00  0.00    -0.166 F 
ATOM     24  C   UNL     1      37.315 -26.672 -14.164  0.00  0.00    +0.419 C 
ENDBRANCH  17  24
ENDBRANCH  12  15
ENDBRANCH   5  12
BRANCH   7  25
ATOM     25  O   UNL     1      35.770 -19.259 -21.371  0.00  0.00    -0.453 OA
BRANCH  25  27
ATOM     26  N   UNL     1      33.869 -17.721 -24.731  0.00  0.00    -0.239 NA
ATOM     27  C   UNL     1      35.137 -18.747 -22.490  0.00  0.00    +0.149 C 
ATOM     28  C   UNL     1      35.021 -17.380 -22.633  0.00  0.00    +0.061 C 
ATOM     29  C   UNL     1      34.636 -19.613 -23.438  0.00  0.00    +0.058 C 
ATOM     30  C   UNL     1      34.379 -16.917 -23.771  0.00  0.00    +0.137 C 
ATOM     31  C   UNL     1      34.011 -19.051 -24.540  0.00  0.00    +0.102 C 
BRANCH  30  34
ATOM     32  O   UNL     1      33.922 -15.054 -25.118  0.00  0.00    -0.268 OA
ATOM     33  N   UNL     1      34.387 -14.652 -22.883  0.00  0.00    -0.298 N 
ATOM     34  C   UNL     1      34.218 -15.491 -23.991  0.00  0.00    +0.264 C 
ATOM     35  C   UNL     1      34.238 -13.215 -22.937  0.00  0.00    +0.111 C 
ATOM     36  H   UNL     1      34.621 -15.063 -22.020  0.00  0.00    +0.150 HD
ENDBRANCH  30  34
ENDBRANCH  25  27
ENDBRANCH   7  25
TORSDOF 6
ENDMDL
MODEL 7
REMARK VINA RESULT:     -12.2      5.330     10.262
REMARK  Name = 11167118
REMARK  6 active torsions:
REMARK  status: ('A' for Active; 'I' for Inactive)
REMARK    1  A    between atoms: N_2  and  C_6
REMARK    2  A    between atoms: N_2  and  C_15
REMARK    3  A    between atoms: C_8  and  O_25
REMARK    4  A    between atoms: C_17  and  C_24
REMARK    5  A    between atoms: O_25  and  C_27
REMARK    6  A    between atoms: C_30  and  C_34
REMARK                            x       y       z     vdW  Elec       q    Type
REMARK                         _______ _______ _______ _____ _____    ______ ____
ROOT
ATOM      1  N   UNL     1      34.883 -15.235 -23.065  0.00  0.00    -0.302 N 
ATOM      2  N   UNL     1      33.846 -16.175 -24.792  0.00  0.00    -0.302 N 
ATOM      3  C   UNL     1      34.986 -16.587 -22.862  0.00  0.00    +0.063 C 
ATOM      4  C   UNL     1      34.330 -17.152 -23.953  0.00  0.00    +0.060 C 
ATOM      5  C   UNL     1      34.196 -15.038 -24.230  0.00  0.00    +0.225 C 
ATOM      6  C   UNL     1      35.576 -17.344 -21.848  0.00  0.00    +0.053 C 
ATOM      7  C   UNL     1      35.487 -18.734 -21.966  0.00  0.00    +0.147 C 
ATOM      8  C   UNL     1      34.250 -18.551 -24.055  0.00  0.00    +0.019 C 
ATOM      9  C   UNL     1      34.836 -19.329 -23.049  0.00  0.00    +0.039 C 
ATOM     10  H   UNL     1      35.242 -14.532 -22.477  0.00  0.00    +0.150 HD
ATOM     11  H   UNL     1      33.347 -16.298 -25.631  0.00  0.00    +0.150 HD
ENDROOT
BRANCH   5  12
ATOM     12  N   UNL     1      33.973 -13.769 -24.635  0.00  0.00    -0.303 N 
ATOM     13  H   UNL     1      34.112 -13.612 -25.597  0.00  0.00    +0.150 HD
BRANCH  12  15
ATOM     14 CL   UNL     1      32.317  -8.972 -21.576  0.00  0.00    -0.082 Cl
ATOM     15  C   UNL     1      33.571 -12.623 -23.893  0.00  0.00    +0.047 C 
ATOM     16  C   UNL     1      32.885 -12.787 -22.698  0.00  0.00    +0.019 C 
ATOM     17  C   UNL     1      32.492 -11.664 -21.971  0.00  0.00    +0.083 C 
ATOM     18  C   UNL     1      33.870 -11.356 -24.377  0.00  0.00    +0.015 C 
ATOM     19  C   UNL     1      32.787 -10.386 -22.447  0.00  0.00    +0.062 C 
ATOM     20  C   UNL     1      33.476 -10.232 -23.651  0.00  0.00    +0.013 C 
BRANCH  17  24
ATOM     21  F   UNL     1      30.496 -11.375 -20.735  0.00  0.00    -0.166 F 
ATOM     22  F   UNL     1      31.647 -13.182 -20.361  0.00  0.00    -0.166 F 
ATOM     23  F   UNL     1      32.388 -11.256 -19.658  0.00  0.00    -0.166 F 
ATOM     24  C   UNL     1      31.756 -11.871 -20.687  0.00  0.00    +0.419 C 
ENDBRANCH  17  24
ENDBRANCH  12  15
ENDBRANCH   5  12
BRANCH   7  25
ATOM     25  O   UNL     1      36.046 -19.523 -21.004  0.00  0.00    -0.453 OA
BRANCH  25  27
ATOM     26  N   UNL     1      33.478 -21.644 -18.519  0.00  0.00    -0.239 NA
ATOM     27  C   UNL     1      35.191 -20.229 -20.177  0.00  0.00    +0.149 C 
ATOM     28  C   UNL     1      35.713 -20.945 -19.120  0.00  0.00    +0.061 C 
ATOM     29  C   UNL     1      33.836 -20.202 -20.426  0.00  0.00    +0.058 C 
ATOM     30  C   UNL     1      34.816 -21.635 -18.321  0.00  0.00    +0.137 C 
ATOM     31  C   UNL     1      33.021 -20.925 -19.569  0.00  0.00    +0.102 C 
BRANCH  30  34
ATOM     32  O   UNL     1      34.600 -23.334 -16.720  0.00  0.00    -0.268 OA
ATOM     33  N   UNL     1      36.554 -22.088 -16.680  0.00  0.00    -0.298 N 
ATOM     34  C   UNL     1      35.291 -22.412 -17.189  0.00  0.00    +0.264 C 
ATOM     35  C   UNL     1      37.173 -22.783 -15.573  0.00  0.00    +0.111 C 
ATOM     36  H   UNL     1      37.048 -21.346 -17.098  0.00  0.00    +0.150 HD
ENDBRANCH  30  34
ENDBRANCH  25  27
ENDBRANCH   7  25
TORSDOF 6
ENDMDL
MODEL 8
REMARK VINA RESULT:     -12.2      4.285      7.312
REMARK  Name = 11167118
REMARK  6 active torsions:
REMARK  status: ('A' for Active; 'I' for Inactive)
REMARK    1  A    between atoms: N_2  and  C_6
REMARK    2  A    between atoms: N_2  and  C_15
REMARK    3  A    between atoms: C_8  and  O_25
REMARK    4  A    between atoms: C_17  and  C_24
REMARK    5  A    between atoms: O_25  and  C_27
REMARK    6  A    between atoms: C_30  and  C_34
REMARK                            x       y       z     vdW  Elec       q    Type
REMARK                         _______ _______ _______ _____ _____    ______ ____
ROOT
ATOM      1  N   UNL     1      35.152 -15.930 -21.893  0.00  0.00    -0.302 N 
ATOM      2  N   UNL     1      34.980 -16.523 -24.028  0.00  0.00    -0.302 N 
ATOM      3  C   UNL     1      34.452 -14.919 -22.498  0.00  0.00    +0.063 C 
ATOM      4  C   UNL     1      34.358 -15.312 -23.830  0.00  0.00    +0.060 C 
ATOM      5  C   UNL     1      35.446 -16.864 -22.846  0.00  0.00    +0.225 C 
ATOM      6  C   UNL     1      33.908 -13.729 -22.011  0.00  0.00    +0.053 C 
ATOM      7  C   UNL     1      33.242 -12.916 -22.933  0.00  0.00    +0.147 C 
ATOM      8  C   UNL     1      33.685 -14.483 -24.744  0.00  0.00    +0.019 C 
ATOM      9  C   UNL     1      33.132 -13.285 -24.276  0.00  0.00    +0.039 C 
ATOM     10  H   UNL     1      35.400 -15.974 -20.941  0.00  0.00    +0.150 HD
ATOM     11  H   UNL     1      35.061 -17.026 -24.870  0.00  0.00    +0.150 HD
ENDROOT
BRANCH   5  12
ATOM     12  N   UNL     1      36.139 -17.963 -22.475  0.00  0.00    -0.303 N 
ATOM     13  H   UNL     1      36.950 -18.139 -23.005  0.00  0.00    +0.150 HD
BRANCH  12  15
ATOM     14 CL   UNL     1      35.121 -21.888 -18.154  0.00  0.00    -0.082 Cl
ATOM     15  C   UNL     1      35.884 -18.905 -21.439  0.00  0.00    +0.047 C 
ATOM     16  C   UNL     1      34.591 -19.365 -21.234  0.00  0.00    +0.019 C 
ATOM     17  C   UNL     1      34.342 -20.289 -20.219  0.00  0.00    +0.083 C 
ATOM     18  C   UNL     1      36.935 -19.352 -20.648  0.00  0.00    +0.015 C 
ATOM     19  C   UNL     1      35.390 -20.745 -19.418  0.00  0.00    +0.062 C 
ATOM     20  C   UNL     1      36.686 -20.276 -19.633  0.00  0.00    +0.013 C 
BRANCH  17  24
ATOM     21  F   UNL     1      32.853 -22.119 -20.053  0.00  0.00    -0.166 F 
ATOM     22  F   UNL     1      32.421 -20.370 -18.836  0.00  0.00    -0.166 F 
ATOM     23  F   UNL     1      32.123 -20.292 -20.994  0.00  0.00    -0.166 F 
ATOM     24  C   UNL     1      32.940 -20.767 -20.023  0.00  0.00    +0.419 C 
ENDBRANCH  17  24
ENDBRANCH  12  15
ENDBRANCH   5  12
BRANCH   7  25
ATOM     25  O   UNL     1      32.692 -11.742 -22.513  0.00  0.00    -0.453 OA
BRANCH  25  27
ATOM     26  N   UNL     1      34.461  -8.212 -23.808  0.00  0.00    -0.239 NA
ATOM     27  C   UNL     1      33.281 -10.567 -22.944  0.00  0.00    +0.149 C 
ATOM     28  C   UNL     1      32.712  -9.359 -22.597  0.00  0.00    +0.061 C 
ATOM     29  C   UNL     1      34.425 -10.627 -23.711  0.00  0.00    +0.058 C 
ATOM     30  C   UNL     1      33.339  -8.211 -23.053  0.00  0.00    +0.137 C 
ATOM     31  C   UNL     1      34.977  -9.423 -24.118  0.00  0.00    +0.102 C 
BRANCH  30  34
ATOM     32  O   UNL     1      33.400  -5.868 -23.068  0.00  0.00    -0.268 OA
ATOM     33  N   UNL     1      31.576  -6.870 -22.048  0.00  0.00    -0.298 N 
ATOM     34  C   UNL     1      32.799  -6.903 -22.729  0.00  0.00    +0.264 C 
ATOM     35  C   UNL     1      30.899  -5.648 -21.675  0.00  0.00    +0.111 C 
ATOM     36  H   UNL     1      31.153  -7.727 -21.809  0.00  0.00    +0.150 HD
ENDBRANCH  30  34
ENDBRANCH  25  27
ENDBRANCH   7  25
TORSDOF 6
ENDMDL
MODEL 9
REMARK VINA RESULT:     -12.1      7.053     11.767
REMARK  Name = 11167118
REMARK  6 active torsions:
REMARK  status: ('A' for Active; 'I' for Inactive)
REMARK    1  A    between atoms: N_2  and  C_6
REMARK    2  A    between atoms: N_2  and  C_15
REMARK    3  A    between atoms: C_8  and  O_25
REMARK    4  A    between atoms: C_17  and  C_24
REMARK    5  A    between atoms: O_25  and  C_27
REMARK    6  A    between atoms: C_30  and  C_34
REMARK                            x       y       z     vdW  Elec       q    Type
REMARK                         _______ _______ _______ _____ _____    ______ ____
ROOT
ATOM      1  N   UNL     1      33.896 -13.794 -21.799  0.00  0.00    -0.302 N 
ATOM      2  N   UNL     1      33.305 -13.833 -23.941  0.00  0.00    -0.302 N 
ATOM      3  C   UNL     1      34.342 -14.997 -22.280  0.00  0.00    +0.063 C 
ATOM      4  C   UNL     1      33.961 -14.998 -23.619  0.00  0.00    +0.060 C 
ATOM      5  C   UNL     1      33.283 -13.134 -22.827  0.00  0.00    +0.225 C 
ATOM      6  C   UNL     1      35.027 -16.055 -21.678  0.00  0.00    +0.053 C 
ATOM      7  C   UNL     1      35.328 -17.153 -22.489  0.00  0.00    +0.147 C 
ATOM      8  C   UNL     1      34.272 -16.109 -24.420  0.00  0.00    +0.019 C 
ATOM      9  C   UNL     1      34.959 -17.182 -23.836  0.00  0.00    +0.039 C 
ATOM     10  H   UNL     1      33.998 -13.464 -20.877  0.00  0.00    +0.150 HD
ATOM     11  H   UNL     1      32.931 -13.576 -24.815  0.00  0.00    +0.150 HD
ENDROOT
BRANCH   5  12
ATOM     12  N   UNL     1      32.761 -11.912 -22.583  0.00  0.00    -0.303 N 
ATOM     13  H   UNL     1      31.907 -11.917 -22.093  0.00  0.00    +0.150 HD
BRANCH  12  15
ATOM     14 CL   UNL     1      34.823  -6.544 -24.013  0.00  0.00    -0.082 Cl
ATOM     15  C   UNL     1      33.248 -10.618 -22.921  0.00  0.00    +0.047 C 
ATOM     16  C   UNL     1      32.595  -9.493 -22.439  0.00  0.00    +0.019 C 
ATOM     17  C   UNL     1      33.073  -8.225 -22.770  0.00  0.00    +0.083 C 
ATOM     18  C   UNL     1      34.371 -10.501 -23.729  0.00  0.00    +0.015 C 
ATOM     19  C   UNL     1      34.201  -8.095 -23.582  0.00  0.00    +0.062 C 
ATOM     20  C   UNL     1      34.850  -9.233 -24.061  0.00  0.00    +0.013 C 
BRANCH  17  24
ATOM     21  F   UNL     1      31.836  -6.261 -23.225  0.00  0.00    -0.166 F 
ATOM     22  F   UNL     1      31.315  -7.373 -21.431  0.00  0.00    -0.166 F 
ATOM     23  F   UNL     1      33.179  -6.245 -21.508  0.00  0.00    -0.166 F 
ATOM     24  C   UNL     1      32.350  -7.031 -22.236  0.00  0.00    +0.419 C 
ENDBRANCH  17  24
ENDBRANCH  12  15
ENDBRANCH   5  12
BRANCH   7  25
ATOM     25  O   UNL     1      35.995 -18.215 -21.955  0.00  0.00    -0.453 OA
BRANCH  25  27
ATOM     26  N   UNL     1      33.787 -20.976 -19.770  0.00  0.00    -0.239 NA
ATOM     27  C   UNL     1      35.260 -19.134 -21.228  0.00  0.00    +0.149 C 
ATOM     28  C   UNL     1      35.874 -19.840 -20.214  0.00  0.00    +0.061 C 
ATOM     29  C   UNL     1      33.929 -19.325 -21.530  0.00  0.00    +0.058 C 
ATOM     30  C   UNL     1      35.095 -20.748 -19.516  0.00  0.00    +0.137 C 
ATOM     31  C   UNL     1      33.236 -20.256 -20.774  0.00  0.00    +0.102 C 
BRANCH  30  34
ATOM     32  O   UNL     1      35.158 -22.608 -18.090  0.00  0.00    -0.268 OA
ATOM     33  N   UNL     1      36.829 -21.023 -17.831  0.00  0.00    -0.298 N 
ATOM     34  C   UNL     1      35.672 -21.529 -18.435  0.00  0.00    +0.264 C 
ATOM     35  C   UNL     1      37.532 -21.693 -16.760  0.00  0.00    +0.111 C 
ATOM     36  H   UNL     1      37.183 -20.162 -18.153  0.00  0.00    +0.150 HD
ENDBRANCH  30  34
ENDBRANCH  25  27
ENDBRANCH   7  25
TORSDOF 6
ENDMDL
