MODEL 1
REMARK VINA RESULT:     -12.5      0.000      0.000
REMARK  Name = 5288711
REMARK  4 active torsions:
REMARK  status: ('A' for Active; 'I' for Inactive)
REMARK    1  A    between atoms: C_1  and  S_7
REMARK    2  A    between atoms: C_2  and  N_17
REMARK    3  A    between atoms: S_7  and  N_11
REMARK    4  A    between atoms: N_17  and  C_25
REMARK                            x       y       z     vdW  Elec       q    Type
REMARK                         _______ _______ _______ _____ _____    ______ ____
ROOT
ATOM      1  C   UNL     1      34.286 -21.857 -18.722  0.00  0.00    +0.125 C 
ATOM      2  C   UNL     1      35.412 -19.897 -20.368  0.00  0.00    +0.048 C 
ATOM      3  C   UNL     1      33.463 -21.042 -19.500  0.00  0.00    +0.021 C 
ATOM      4  C   UNL     1      35.670 -21.694 -18.766  0.00  0.00    +0.021 C 
ATOM      5  C   UNL     1      34.025 -20.065 -20.321  0.00  0.00    +0.016 C 
ATOM      6  C   UNL     1      36.233 -20.717 -19.587  0.00  0.00    +0.016 C 
ENDROOT
BRANCH   1   7
ATOM      7  S   UNL     1      33.583 -23.080 -17.693  0.00  0.00    +0.075 S 
ATOM      8  O   UNL     1      33.411 -24.298 -18.476  0.00  0.00    -0.150 OA
ATOM      9  O   UNL     1      34.362 -23.123 -16.462  0.00  0.00    -0.150 OA
BRANCH   7  11
ATOM     10  S   UNL     1      29.709 -23.150 -16.066  0.00  0.00    -0.050 S 
ATOM     11  N   UNL     1      32.036 -22.402 -17.379  0.00  0.00    -0.194 N 
ATOM     12  N   UNL     1      32.070 -22.987 -15.027  0.00  0.00    -0.221 NA
ATOM     13  C   UNL     1      31.382 -22.835 -16.124  0.00  0.00    +0.179 C 
ATOM     14  C   UNL     1      29.883 -23.537 -14.404  0.00  0.00    +0.059 C 
ATOM     15  C   UNL     1      31.203 -23.393 -14.032  0.00  0.00    +0.108 C 
ATOM     16  H   UNL     1      31.610 -21.763 -17.996  0.00  0.00    +0.176 HD
ENDBRANCH   7  11
ENDBRANCH   1   7
BRANCH   2  17
ATOM     17  N   UNL     1      35.977 -18.913 -21.195  0.00  0.00    -0.311 N 
ATOM     18  H   UNL     1      36.749 -19.200 -21.735  0.00  0.00    +0.152 HD
BRANCH  17  25
ATOM     19  O   UNL     1      34.924 -18.977 -23.895  0.00  0.00    -0.270 OA
ATOM     20  N   UNL     1      34.155 -16.831 -24.517  0.00  0.00    -0.280 N 
ATOM     21  C   UNL     1      34.630 -15.658 -22.596  0.00  0.00    +0.019 C 
ATOM     22  C   UNL     1      35.039 -17.048 -22.417  0.00  0.00    +0.069 C 
ATOM     23  C   UNL     1      34.100 -15.582 -23.888  0.00  0.00    +0.051 C 
ATOM     24  C   UNL     1      34.722 -17.797 -23.678  0.00  0.00    +0.251 C 
ATOM     25  C   UNL     1      35.601 -17.618 -21.349  0.00  0.00    +0.066 C 
ATOM     26  C   UNL     1      34.679 -14.540 -21.786  0.00  0.00    +0.001 C 
ATOM     27  C   UNL     1      33.606 -14.406 -24.416  0.00  0.00    +0.015 C 
ATOM     28  C   UNL     1      34.183 -13.337 -22.301  0.00  0.00    +0.000 C 
ATOM     29  C   UNL     1      33.652 -13.271 -23.603  0.00  0.00    +0.001 C 
ATOM     30  H   UNL     1      33.837 -17.008 -25.431  0.00  0.00    +0.155 HD
ENDBRANCH  17  25
ENDBRANCH   2  17
TORSDOF 4
ENDMDL
MODEL 2
REMARK VINA RESULT:     -11.2      4.928      9.923
REMARK  Name = 5288711
REMARK  4 active torsions:
REMARK  status: ('A' for Active; 'I' for Inactive)
REMARK    1  A    between atoms: C_1  and  S_7
REMARK    2  A    between atoms: C_2  and  N_17
REMARK    3  A    between atoms: S_7  and  N_11
REMARK    4  A    between atoms: N_17  and  C_25
REMARK                            x       y       z     vdW  Elec       q    Type
REMARK                         _______ _______ _______ _____ _____    ______ ____
ROOT
ATOM      1  C   UNL     1      34.009 -13.605 -23.479  0.00  0.00    +0.125 C 
ATOM      2  C   UNL     1      34.769 -16.263 -23.065  0.00  0.00    +0.048 C 
ATOM      3  C   UNL     1      33.956 -14.518 -24.532  0.00  0.00    +0.021 C 
ATOM      4  C   UNL     1      34.440 -14.019 -22.219  0.00  0.00    +0.021 C 
ATOM      5  C   UNL     1      34.335 -15.844 -24.326  0.00  0.00    +0.016 C 
ATOM      6  C   UNL     1      34.819 -15.345 -22.011  0.00  0.00    +0.016 C 
ENDROOT
BRANCH   1   7
ATOM      7  S   UNL     1      33.535 -11.944 -23.737  0.00  0.00    +0.075 S 
ATOM      8  O   UNL     1      34.619 -11.080 -23.287  0.00  0.00    -0.150 OA
ATOM      9  O   UNL     1      33.048 -11.831 -25.107  0.00  0.00    -0.150 OA
BRANCH   7  11
ATOM     10  S   UNL     1      31.687 -10.478 -20.259  0.00  0.00    -0.050 S 
ATOM     11  N   UNL     1      32.220 -11.799 -22.640  0.00  0.00    -0.194 N 
ATOM     12  N   UNL     1      32.388  -9.386 -22.494  0.00  0.00    -0.221 NA
ATOM     13  C   UNL     1      32.130 -10.519 -21.904  0.00  0.00    +0.179 C 
ATOM     14  C   UNL     1      31.846  -8.771 -20.303  0.00  0.00    +0.059 C 
ATOM     15  C   UNL     1      32.223  -8.374 -21.569  0.00  0.00    +0.108 C 
ATOM     16  H   UNL     1      31.566 -12.524 -22.510  0.00  0.00    +0.176 HD
ENDBRANCH   7  11
ENDBRANCH   1   7
BRANCH   2  17
ATOM     17  N   UNL     1      35.150 -17.599 -22.857  0.00  0.00    -0.311 N 
ATOM     18  H   UNL     1      35.918 -17.911 -23.388  0.00  0.00    +0.152 HD
BRANCH  17  25
ATOM     19  O   UNL     1      37.491 -18.437 -21.366  0.00  0.00    -0.270 OA
ATOM     20  N   UNL     1      36.894 -20.077 -19.774  0.00  0.00    -0.280 N 
ATOM     21  C   UNL     1      34.636 -20.236 -20.183  0.00  0.00    +0.019 C 
ATOM     22  C   UNL     1      35.213 -19.247 -21.087  0.00  0.00    +0.069 C 
ATOM     23  C   UNL     1      35.699 -20.709 -19.408  0.00  0.00    +0.051 C 
ATOM     24  C   UNL     1      36.686 -19.157 -20.807  0.00  0.00    +0.251 C 
ATOM     25  C   UNL     1      34.601 -18.517 -22.021  0.00  0.00    +0.066 C 
ATOM     26  C   UNL     1      33.356 -20.721 -19.995  0.00  0.00    +0.001 C 
ATOM     27  C   UNL     1      35.532 -21.669 -18.430  0.00  0.00    +0.015 C 
ATOM     28  C   UNL     1      33.163 -21.695 -19.009  0.00  0.00    +0.000 C 
ATOM     29  C   UNL     1      34.241 -22.164 -18.234  0.00  0.00    +0.001 C 
ATOM     30  H   UNL     1      37.767 -20.257 -19.359  0.00  0.00    +0.155 HD
ENDBRANCH  17  25
ENDBRANCH   2  17
TORSDOF 4
ENDMDL
MODEL 3
REMARK VINA RESULT:     -11.2      2.749      9.597
REMARK  Name = 5288711
REMARK  4 active torsions:
REMARK  status: ('A' for Active; 'I' for Inactive)
REMARK    1  A    between atoms: C_1  and  S_7
REMARK    2  A    between atoms: C_2  and  N_17
REMARK    3  A    between atoms: S_7  and  N_11
REMARK    4  A    between atoms: N_17  and  C_25
REMARK                            x       y       z     vdW  Elec       q    Type
REMARK                         _______ _______ _______ _____ _____    ______ ____
ROOT
ATOM      1  C   UNL     1      35.500 -19.707 -20.282  0.00  0.00    +0.125 C 
ATOM      2  C   UNL     1      34.366 -21.989 -19.131  0.00  0.00    +0.048 C 
ATOM      3  C   UNL     1      36.312 -20.642 -19.639  0.00  0.00    +0.021 C 
ATOM      4  C   UNL     1      34.122 -19.911 -20.350  0.00  0.00    +0.021 C 
ATOM      5  C   UNL     1      35.747 -21.780 -19.066  0.00  0.00    +0.016 C 
ATOM      6  C   UNL     1      33.555 -21.050 -19.776  0.00  0.00    +0.016 C 
ENDROOT
BRANCH   1   7
ATOM      7  S   UNL     1      36.207 -18.282 -21.000  0.00  0.00    +0.075 S 
ATOM      8  O   UNL     1      35.535 -17.109 -20.455  0.00  0.00    -0.150 OA
ATOM      9  O   UNL     1      37.655 -18.399 -20.881  0.00  0.00    -0.150 OA
BRANCH   7  11
ATOM     10  S   UNL     1      33.786 -17.471 -24.338  0.00  0.00    -0.050 S 
ATOM     11  N   UNL     1      35.742 -18.472 -22.644  0.00  0.00    -0.194 N 
ATOM     12  N   UNL     1      35.541 -16.089 -23.038  0.00  0.00    -0.221 NA
ATOM     13  C   UNL     1      35.107 -17.295 -23.276  0.00  0.00    +0.179 C 
ATOM     14  C   UNL     1      33.761 -15.766 -24.523  0.00  0.00    +0.059 C 
ATOM     15  C   UNL     1      34.763 -15.204 -23.759  0.00  0.00    +0.108 C 
ATOM     16  H   UNL     1      35.889 -19.312 -23.135  0.00  0.00    +0.176 HD
ENDBRANCH   7  11
ENDBRANCH   1   7
BRANCH   2  17
ATOM     17  N   UNL     1      33.797 -23.135 -18.553  0.00  0.00    -0.311 N 
ATOM     18  H   UNL     1      34.131 -23.996 -18.893  0.00  0.00    +0.152 HD
BRANCH  17  25
ATOM     19  O   UNL     1      35.452 -23.164 -16.172  0.00  0.00    -0.270 OA
ATOM     20  N   UNL     1      34.095 -23.298 -14.243  0.00  0.00    -0.280 N 
ATOM     21  C   UNL     1      32.011 -23.345 -15.215  0.00  0.00    +0.019 C 
ATOM     22  C   UNL     1      33.022 -23.260 -16.264  0.00  0.00    +0.069 C 
ATOM     23  C   UNL     1      32.717 -23.364 -14.008  0.00  0.00    +0.051 C 
ATOM     24  C   UNL     1      34.374 -23.231 -15.612  0.00  0.00    +0.251 C 
ATOM     25  C   UNL     1      32.846 -23.214 -17.586  0.00  0.00    +0.066 C 
ATOM     26  C   UNL     1      30.630 -23.402 -15.227  0.00  0.00    +0.001 C 
ATOM     27  C   UNL     1      32.085 -23.441 -12.784  0.00  0.00    +0.015 C 
ATOM     28  C   UNL     1      29.969 -23.480 -13.996  0.00  0.00    +0.000 C 
ATOM     29  C   UNL     1      30.689 -23.499 -12.787  0.00  0.00    +0.001 C 
ATOM     30  H   UNL     1      34.779 -23.299 -13.537  0.00  0.00    +0.155 HD
ENDBRANCH  17  25
ENDBRANCH   2  17
TORSDOF 4
ENDMDL
MODEL 4
REMARK VINA RESULT:     -11.2      3.779      6.731
REMARK  Name = 5288711
REMARK  4 active torsions:
REMARK  status: ('A' for Active; 'I' for Inactive)
REMARK    1  A    between atoms: C_1  and  S_7
REMARK    2  A    between atoms: C_2  and  N_17
REMARK    3  A    between atoms: S_7  and  N_11
REMARK    4  A    between atoms: N_17  and  C_25
REMARK                            x       y       z     vdW  Elec       q    Type
REMARK                         _______ _______ _______ _____ _____    ______ ____
ROOT
ATOM      1  C   UNL     1      35.036 -16.784 -22.698  0.00  0.00    +0.125 C 
ATOM      2  C   UNL     1      33.892 -14.432 -23.686  0.00  0.00    +0.048 C 
ATOM      3  C   UNL     1      34.914 -15.667 -21.872  0.00  0.00    +0.021 C 
ATOM      4  C   UNL     1      34.586 -16.727 -24.017  0.00  0.00    +0.021 C 
ATOM      5  C   UNL     1      34.343 -14.494 -22.364  0.00  0.00    +0.016 C 
ATOM      6  C   UNL     1      34.015 -15.554 -24.511  0.00  0.00    +0.016 C 
ENDROOT
BRANCH   1   7
ATOM      7  S   UNL     1      35.750 -18.253 -22.083  0.00  0.00    +0.075 S 
ATOM      8  O   UNL     1      35.649 -19.282 -23.110  0.00  0.00    -0.150 OA
ATOM      9  O   UNL     1      37.058 -17.914 -21.535  0.00  0.00    -0.150 OA
BRANCH   7  11
ATOM     10  S   UNL     1      33.644 -20.931 -19.621  0.00  0.00    -0.050 S 
ATOM     11  N   UNL     1      34.668 -18.640 -20.805  0.00  0.00    -0.194 N 
ATOM     12  N   UNL     1      36.142 -20.299 -19.831  0.00  0.00    -0.221 NA
ATOM     13  C   UNL     1      34.925 -19.916 -20.102  0.00  0.00    +0.179 C 
ATOM     14  C   UNL     1      34.804 -22.016 -18.974  0.00  0.00    +0.059 C 
ATOM     15  C   UNL     1      36.072 -21.514 -19.178  0.00  0.00    +0.108 C 
ATOM     16  H   UNL     1      33.922 -18.047 -20.555  0.00  0.00    +0.176 HD
ENDBRANCH   7  11
ENDBRANCH   1   7
BRANCH   2  17
ATOM     17  N   UNL     1      33.318 -13.250 -24.181  0.00  0.00    -0.311 N 
ATOM     18  H   UNL     1      32.482 -13.361 -24.689  0.00  0.00    +0.152 HD
BRANCH  17  25
ATOM     19  O   UNL     1      31.554 -12.273 -22.097  0.00  0.00    -0.270 OA
ATOM     20  N   UNL     1      32.055 -10.018 -21.602  0.00  0.00    -0.280 N 
ATOM     21  C   UNL     1      33.782  -9.653 -23.077  0.00  0.00    +0.019 C 
ATOM     22  C   UNL     1      33.315 -11.028 -23.225  0.00  0.00    +0.069 C 
ATOM     23  C   UNL     1      32.984  -9.086 -22.079  0.00  0.00    +0.051 C 
ATOM     24  C   UNL     1      32.189 -11.248 -22.256  0.00  0.00    +0.251 C 
ATOM     25  C   UNL     1      33.762 -11.974 -24.053  0.00  0.00    +0.066 C 
ATOM     26  C   UNL     1      34.772  -8.913 -23.695  0.00  0.00    +0.001 C 
ATOM     27  C   UNL     1      33.137  -7.778 -21.664  0.00  0.00    +0.015 C 
ATOM     28  C   UNL     1      34.945  -7.585 -23.289  0.00  0.00    +0.000 C 
ATOM     29  C   UNL     1      34.136  -7.024 -22.284  0.00  0.00    +0.001 C 
ATOM     30  H   UNL     1      31.394  -9.833 -20.898  0.00  0.00    +0.155 HD
ENDBRANCH  17  25
ENDBRANCH   2  17
TORSDOF 4
ENDMDL
MODEL 5
REMARK VINA RESULT:     -11.1      4.717      6.712
REMARK  Name = 5288711
REMARK  4 active torsions:
REMARK  status: ('A' for Active; 'I' for Inactive)
REMARK    1  A    between atoms: C_1  and  S_7
REMARK    2  A    between atoms: C_2  and  N_17
REMARK    3  A    between atoms: S_7  and  N_11
REMARK    4  A    between atoms: N_17  and  C_25
REMARK                            x       y       z     vdW  Elec       q    Type
REMARK                         _______ _______ _______ _____ _____    ______ ____
ROOT
ATOM      1  C   UNL     1      36.400 -23.312 -13.374  0.00  0.00    +0.125 C 
ATOM      2  C   UNL     1      35.497 -22.788 -15.968  0.00  0.00    +0.048 C 
ATOM      3  C   UNL     1      37.221 -22.635 -14.276  0.00  0.00    +0.021 C 
ATOM      4  C   UNL     1      35.128 -23.727 -13.767  0.00  0.00    +0.021 C 
ATOM      5  C   UNL     1      36.771 -22.373 -15.570  0.00  0.00    +0.016 C 
ATOM      6  C   UNL     1      34.676 -23.466 -15.061  0.00  0.00    +0.016 C 
ENDROOT
BRANCH   1   7
ATOM      7  S   UNL     1      36.963 -23.640 -11.755  0.00  0.00    +0.075 S 
ATOM      8  O   UNL     1      38.181 -22.873 -11.526  0.00  0.00    -0.150 OA
ATOM      9  O   UNL     1      35.831 -23.475 -10.851  0.00  0.00    -0.150 OA
BRANCH   7  11
ATOM     10  S   UNL     1      38.430 -27.011 -13.791  0.00  0.00    -0.050 S 
ATOM     11  N   UNL     1      37.373 -25.305 -11.876  0.00  0.00    -0.194 N 
ATOM     12  N   UNL     1      39.544 -24.872 -12.861  0.00  0.00    -0.221 NA
ATOM     13  C   UNL     1      38.487 -25.631 -12.793  0.00  0.00    +0.179 C 
ATOM     14  C   UNL     1      39.974 -26.580 -14.401  0.00  0.00    +0.059 C 
ATOM     15  C   UNL     1      40.406 -25.421 -13.791  0.00  0.00    +0.108 C 
ATOM     16  H   UNL     1      36.896 -25.998 -11.365  0.00  0.00    +0.176 HD
ENDBRANCH   7  11
ENDBRANCH   1   7
BRANCH   2  17
ATOM     17  N   UNL     1      35.044 -22.525 -17.271  0.00  0.00    -0.311 N 
ATOM     18  H   UNL     1      34.241 -23.021 -17.553  0.00  0.00    +0.152 HD
BRANCH  17  25
ATOM     19  O   UNL     1      32.672 -21.882 -18.810  0.00  0.00    -0.270 OA
ATOM     20  N   UNL     1      33.219 -20.385 -20.554  0.00  0.00    -0.280 N 
ATOM     21  C   UNL     1      35.476 -20.139 -20.184  0.00  0.00    +0.019 C 
ATOM     22  C   UNL     1      34.929 -21.051 -19.186  0.00  0.00    +0.069 C 
ATOM     23  C   UNL     1      34.395 -19.764 -20.989  0.00  0.00    +0.051 C 
ATOM     24  C   UNL     1      33.457 -21.201 -19.442  0.00  0.00    +0.251 C 
ATOM     25  C   UNL     1      35.565 -21.678 -18.194  0.00  0.00    +0.066 C 
ATOM     26  C   UNL     1      36.743 -19.646 -20.430  0.00  0.00    +0.001 C 
ATOM     27  C   UNL     1      34.533 -18.897 -22.055  0.00  0.00    +0.015 C 
ATOM     28  C   UNL     1      36.905 -18.765 -21.505  0.00  0.00    +0.000 C 
ATOM     29  C   UNL     1      35.811 -18.394 -22.309  0.00  0.00    +0.001 C 
ATOM     30  H   UNL     1      32.338 -20.264 -20.975  0.00  0.00    +0.155 HD
ENDBRANCH  17  25
ENDBRANCH   2  17
TORSDOF 4
ENDMDL
MODEL 6
REMARK VINA RESULT:     -11.0      1.612      2.156
REMARK  Name = 5288711
REMARK  4 active torsions:
REMARK  status: ('A' for Active; 'I' for Inactive)
REMARK    1  A    between atoms: C_1  and  S_7
REMARK    2  A    between atoms: C_2  and  N_17
REMARK    3  A    between atoms: S_7  and  N_11
REMARK    4  A    between atoms: N_17  and  C_25
REMARK                            x       y       z     vdW  Elec       q    Type
REMARK                         _______ _______ _______ _____ _____    ______ ____
ROOT
ATOM      1  C   UNL     1      34.306 -21.562 -18.956  0.00  0.00    +0.125 C 
ATOM      2  C   UNL     1      35.374 -19.603 -20.641  0.00  0.00    +0.048 C 
ATOM      3  C   UNL     1      35.686 -21.362 -19.007  0.00  0.00    +0.021 C 
ATOM      4  C   UNL     1      33.460 -20.785 -19.745  0.00  0.00    +0.021 C 
ATOM      5  C   UNL     1      36.218 -20.384 -19.847  0.00  0.00    +0.016 C 
ATOM      6  C   UNL     1      33.991 -19.807 -20.586  0.00  0.00    +0.016 C 
ENDROOT
BRANCH   1   7
ATOM      7  S   UNL     1      33.639 -22.786 -17.904  0.00  0.00    +0.075 S 
ATOM      8  O   UNL     1      32.487 -22.223 -17.214  0.00  0.00    -0.150 OA
ATOM      9  O   UNL     1      33.481 -24.005 -18.689  0.00  0.00    -0.150 OA
BRANCH   7  11
ATOM     10  S   UNL     1      35.279 -22.721 -14.035  0.00  0.00    -0.050 S 
ATOM     11  N   UNL     1      34.918 -22.986 -16.773  0.00  0.00    -0.194 N 
ATOM     12  N   UNL     1      33.567 -24.257 -15.214  0.00  0.00    -0.221 NA
ATOM     13  C   UNL     1      34.516 -23.385 -15.407  0.00  0.00    +0.179 C 
ATOM     14  C   UNL     1      34.253 -23.681 -13.052  0.00  0.00    +0.059 C 
ATOM     15  C   UNL     1      33.414 -24.429 -13.852  0.00  0.00    +0.108 C 
ATOM     16  H   UNL     1      35.861 -22.844 -17.020  0.00  0.00    +0.176 HD
ENDBRANCH   7  11
ENDBRANCH   1   7
BRANCH   2  17
ATOM     17  N   UNL     1      35.910 -18.619 -21.487  0.00  0.00    -0.311 N 
ATOM     18  H   UNL     1      36.645 -18.913 -22.072  0.00  0.00    +0.152 HD
BRANCH  17  25
ATOM     19  O   UNL     1      34.714 -18.631 -24.128  0.00  0.00    -0.270 OA
ATOM     20  N   UNL     1      33.952 -16.464 -24.683  0.00  0.00    -0.280 N 
ATOM     21  C   UNL     1      34.549 -15.324 -22.777  0.00  0.00    +0.019 C 
ATOM     22  C   UNL     1      34.942 -16.723 -22.635  0.00  0.00    +0.069 C 
ATOM     23  C   UNL     1      33.953 -15.223 -24.037  0.00  0.00    +0.051 C 
ATOM     24  C   UNL     1      34.545 -17.451 -23.887  0.00  0.00    +0.251 C 
ATOM     25  C   UNL     1      35.549 -17.316 -21.606  0.00  0.00    +0.066 C 
ATOM     26  C   UNL     1      34.661 -14.217 -21.957  0.00  0.00    +0.001 C 
ATOM     27  C   UNL     1      33.452 -14.032 -24.524  0.00  0.00    +0.015 C 
ATOM     28  C   UNL     1      34.160 -12.999 -22.431  0.00  0.00    +0.000 C 
ATOM     29  C   UNL     1      33.561 -12.908 -23.702  0.00  0.00    +0.001 C 
ATOM     30  H   UNL     1      33.582 -16.624 -25.580  0.00  0.00    +0.155 HD
ENDBRANCH  17  25
ENDBRANCH   2  17
TORSDOF 4
ENDMDL
MODEL 7
REMARK VINA RESULT:     -11.0      7.477     12.277
REMARK  Name = 5288711
REMARK  4 active torsions:
REMARK  status: ('A' for Active; 'I' for Inactive)
REMARK    1  A    between atoms: C_1  and  S_7
REMARK    2  A    between atoms: C_2  and  N_17
REMARK    3  A    between atoms: S_7  and  N_11
REMARK    4  A    between atoms: N_17  and  C_25
REMARK                            x       y       z     vdW  Elec       q    Type
REMARK                         _______ _______ _______ _____ _____    ______ ____
ROOT
ATOM      1  C   UNL     1      32.679  -9.581 -22.432  0.00  0.00    +0.125 C 
ATOM      2  C   UNL     1      33.713 -12.062 -23.201  0.00  0.00    +0.048 C 
ATOM      3  C   UNL     1      33.690  -9.649 -23.390  0.00  0.00    +0.021 C 
ATOM      4  C   UNL     1      32.183 -10.751 -21.857  0.00  0.00    +0.021 C 
ATOM      5  C   UNL     1      34.205 -10.886 -23.774  0.00  0.00    +0.016 C 
ATOM      6  C   UNL     1      32.698 -11.990 -22.241  0.00  0.00    +0.016 C 
ENDROOT
BRANCH   1   7
ATOM      7  S   UNL     1      32.033  -8.032 -21.951  0.00  0.00    +0.075 S 
ATOM      8  O   UNL     1      30.779  -7.814 -22.660  0.00  0.00    -0.150 OA
ATOM      9  O   UNL     1      32.053  -7.977 -20.494  0.00  0.00    -0.150 OA
BRANCH   7  11
ATOM     10  S   UNL     1      33.286  -4.750 -24.258  0.00  0.00    -0.050 S 
ATOM     11  N   UNL     1      33.221  -6.964 -22.588  0.00  0.00    -0.194 N 
ATOM     12  N   UNL     1      31.956  -4.967 -22.052  0.00  0.00    -0.221 NA
ATOM     13  C   UNL     1      32.767  -5.584 -22.866  0.00  0.00    +0.179 C 
ATOM     14  C   UNL     1      32.343  -3.409 -23.754  0.00  0.00    +0.059 C 
ATOM     15  C   UNL     1      31.711  -3.708 -22.565  0.00  0.00    +0.108 C 
ATOM     16  H   UNL     1      34.146  -7.254 -22.756  0.00  0.00    +0.176 HD
ENDBRANCH   7  11
ENDBRANCH   1   7
BRANCH   2  17
ATOM     17  N   UNL     1      34.232 -13.308 -23.587  0.00  0.00    -0.311 N 
ATOM     18  H   UNL     1      34.363 -13.435 -24.555  0.00  0.00    +0.152 HD
BRANCH  17  25
ATOM     19  O   UNL     1      33.917 -15.497 -25.462  0.00  0.00    -0.270 OA
ATOM     20  N   UNL     1      34.449 -17.546 -24.413  0.00  0.00    -0.280 N 
ATOM     21  C   UNL     1      34.989 -16.795 -22.307  0.00  0.00    +0.019 C 
ATOM     22  C   UNL     1      34.620 -15.653 -23.138  0.00  0.00    +0.069 C 
ATOM     23  C   UNL     1      34.868 -17.919 -23.130  0.00  0.00    +0.051 C 
ATOM     24  C   UNL     1      34.271 -16.161 -24.507  0.00  0.00    +0.251 C 
ATOM     25  C   UNL     1      34.577 -14.362 -22.804  0.00  0.00    +0.066 C 
ATOM     26  C   UNL     1      35.390 -16.924 -20.991  0.00  0.00    +0.001 C 
ATOM     27  C   UNL     1      35.138 -19.196 -22.683  0.00  0.00    +0.015 C 
ATOM     28  C   UNL     1      35.669 -18.211 -20.516  0.00  0.00    +0.000 C 
ATOM     29  C   UNL     1      35.545 -19.335 -21.354  0.00  0.00    +0.001 C 
ATOM     30  H   UNL     1      34.299 -18.176 -25.153  0.00  0.00    +0.155 HD
ENDBRANCH  17  25
ENDBRANCH   2  17
TORSDOF 4
ENDMDL
MODEL 8
REMARK VINA RESULT:     -10.6      3.473      4.522
REMARK  Name = 5288711
REMARK  4 active torsions:
REMARK  status: ('A' for Active; 'I' for Inactive)
REMARK    1  A    between atoms: C_1  and  S_7
REMARK    2  A    between atoms: C_2  and  N_17
REMARK    3  A    between atoms: S_7  and  N_11
REMARK    4  A    between atoms: N_17  and  C_25
REMARK                            x       y       z     vdW  Elec       q    Type
REMARK                         _______ _______ _______ _____ _____    ______ ____
ROOT
ATOM      1  C   UNL     1      34.922 -22.852 -16.029  0.00  0.00    +0.125 C 
ATOM      2  C   UNL     1      35.866 -21.623 -18.356  0.00  0.00    +0.048 C 
ATOM      3  C   UNL     1      34.081 -22.706 -17.132  0.00  0.00    +0.021 C 
ATOM      4  C   UNL     1      36.235 -22.385 -16.087  0.00  0.00    +0.021 C 
ATOM      5  C   UNL     1      34.552 -22.094 -18.293  0.00  0.00    +0.016 C 
ATOM      6  C   UNL     1      36.707 -21.772 -17.248  0.00  0.00    +0.016 C 
ENDROOT
BRANCH   1   7
ATOM      7  S   UNL     1      34.332 -23.619 -14.576  0.00  0.00    +0.075 S 
ATOM      8  O   UNL     1      32.940 -23.234 -14.383  0.00  0.00    -0.150 OA
ATOM      9  O   UNL     1      34.683 -25.032 -14.648  0.00  0.00    -0.150 OA
BRANCH   7  11
ATOM     10  S   UNL     1      36.666 -23.570 -11.080  0.00  0.00    -0.050 S 
ATOM     11  N   UNL     1      35.291 -22.844 -13.378  0.00  0.00    -0.194 N 
ATOM     12  N   UNL     1      37.043 -24.516 -13.456  0.00  0.00    -0.221 NA
ATOM     13  C   UNL     1      36.339 -23.677 -12.749  0.00  0.00    +0.179 C 
ATOM     14  C   UNL     1      37.878 -24.766 -11.284  0.00  0.00    +0.059 C 
ATOM     15  C   UNL     1      37.934 -25.146 -12.609  0.00  0.00    +0.108 C 
ATOM     16  H   UNL     1      35.152 -21.902 -13.127  0.00  0.00    +0.176 HD
ENDBRANCH   7  11
ENDBRANCH   1   7
BRANCH   2  17
ATOM     17  N   UNL     1      36.341 -21.005 -19.524  0.00  0.00    -0.311 N 
ATOM     18  H   UNL     1      37.316 -20.881 -19.576  0.00  0.00    +0.152 HD
BRANCH  17  25
ATOM     19  O   UNL     1      37.569 -18.411 -19.933  0.00  0.00    -0.270 OA
ATOM     20  N   UNL     1      36.558 -17.315 -21.765  0.00  0.00    -0.280 N 
ATOM     21  C   UNL     1      35.009 -18.900 -22.382  0.00  0.00    +0.019 C 
ATOM     22  C   UNL     1      35.762 -19.394 -21.234  0.00  0.00    +0.069 C 
ATOM     23  C   UNL     1      35.533 -17.635 -22.663  0.00  0.00    +0.051 C 
ATOM     24  C   UNL     1      36.767 -18.348 -20.845  0.00  0.00    +0.251 C 
ATOM     25  C   UNL     1      35.633 -20.558 -20.593  0.00  0.00    +0.066 C 
ATOM     26  C   UNL     1      33.982 -19.424 -23.143  0.00  0.00    +0.001 C 
ATOM     27  C   UNL     1      35.061 -16.853 -23.699  0.00  0.00    +0.015 C 
ATOM     28  C   UNL     1      33.489 -18.649 -24.198  0.00  0.00    +0.000 C 
ATOM     29  C   UNL     1      34.023 -17.376 -24.473  0.00  0.00    +0.001 C 
ATOM     30  H   UNL     1      37.066 -16.473 -21.779  0.00  0.00    +0.155 HD
ENDBRANCH  17  25
ENDBRANCH   2  17
TORSDOF 4
ENDMDL
MODEL 9
REMARK VINA RESULT:     -10.6      2.424      3.290
REMARK  Name = 5288711
REMARK  4 active torsions:
REMARK  status: ('A' for Active; 'I' for Inactive)
REMARK    1  A    between atoms: C_1  and  S_7
REMARK    2  A    between atoms: C_2  and  N_17
REMARK    3  A    between atoms: S_7  and  N_11
REMARK    4  A    between atoms: N_17  and  C_25
REMARK                            x       y       z     vdW  Elec       q    Type
REMARK                         _______ _______ _______ _____ _____    ______ ____
ROOT
ATOM      1  C   UNL     1      35.047 -22.804 -15.957  0.00  0.00    +0.125 C 
ATOM      2  C   UNL     1      35.964 -21.616 -18.316  0.00  0.00    +0.048 C 
ATOM      3  C   UNL     1      34.200 -22.698 -17.061  0.00  0.00    +0.021 C 
ATOM      4  C   UNL     1      36.351 -22.318 -16.031  0.00  0.00    +0.021 C 
ATOM      5  C   UNL     1      34.657 -22.106 -18.237  0.00  0.00    +0.016 C 
ATOM      6  C   UNL     1      36.810 -21.726 -17.208  0.00  0.00    +0.016 C 
ENDROOT
BRANCH   1   7
ATOM      7  S   UNL     1      34.474 -23.546 -14.484  0.00  0.00    +0.075 S 
ATOM      8  O   UNL     1      34.188 -24.949 -14.754  0.00  0.00    -0.150 OA
ATOM      9  O   UNL     1      35.407 -23.196 -13.421  0.00  0.00    -0.150 OA
BRANCH   7  11
ATOM     10  S   UNL     1      30.335 -23.029 -15.000  0.00  0.00    -0.050 S 
ATOM     11  N   UNL     1      32.987 -22.715 -14.250  0.00  0.00    -0.194 N 
ATOM     12  N   UNL     1      31.762 -24.723 -13.667  0.00  0.00    -0.221 NA
ATOM     13  C   UNL     1      31.770 -23.555 -14.247  0.00  0.00    +0.179 C 
ATOM     14  C   UNL     1      29.594 -24.500 -14.520  0.00  0.00    +0.059 C 
ATOM     15  C   UNL     1      30.503 -25.270 -13.825  0.00  0.00    +0.108 C 
ATOM     16  H   UNL     1      32.949 -21.739 -14.124  0.00  0.00    +0.176 HD
ENDBRANCH   7  11
ENDBRANCH   1   7
BRANCH   2  17
ATOM     17  N   UNL     1      36.425 -21.020 -19.500  0.00  0.00    -0.311 N 
ATOM     18  H   UNL     1      37.400 -20.906 -19.570  0.00  0.00    +0.152 HD
BRANCH  17  25
ATOM     19  O   UNL     1      37.607 -18.403 -19.902  0.00  0.00    -0.270 OA
ATOM     20  N   UNL     1      36.567 -17.315 -21.723  0.00  0.00    -0.280 N 
ATOM     21  C   UNL     1      35.042 -18.922 -22.340  0.00  0.00    +0.019 C 
ATOM     22  C   UNL     1      35.810 -19.410 -21.198  0.00  0.00    +0.069 C 
ATOM     23  C   UNL     1      35.543 -17.647 -22.617  0.00  0.00    +0.051 C 
ATOM     24  C   UNL     1      36.799 -18.349 -20.809  0.00  0.00    +0.251 C 
ATOM     25  C   UNL     1      35.704 -20.578 -20.563  0.00  0.00    +0.066 C 
ATOM     26  C   UNL     1      34.020 -19.460 -23.098  0.00  0.00    +0.001 C 
ATOM     27  C   UNL     1      35.052 -16.868 -23.646  0.00  0.00    +0.015 C 
ATOM     28  C   UNL     1      33.508 -18.687 -24.147  0.00  0.00    +0.000 C 
ATOM     29  C   UNL     1      34.019 -17.405 -24.417  0.00  0.00    +0.001 C 
ATOM     30  H   UNL     1      37.061 -16.464 -21.735  0.00  0.00    +0.155 HD
ENDBRANCH  17  25
ENDBRANCH   2  17
TORSDOF 4
ENDMDL
