MODEL 1
REMARK VINA RESULT:     -12.1      0.000      0.000
REMARK  Name = 3478
REMARK  7 active torsions:
REMARK  status: ('A' for Active; 'I' for Inactive)
REMARK    1  A    between atoms: C_1  and  S_7
REMARK    2  A    between atoms: C_2  and  C_22
REMARK    3  A    between atoms: S_7  and  N_12
REMARK    4  A    between atoms: N_11  and  C_16
REMARK    5  A    between atoms: C_22  and  C_23
REMARK    6  A    between atoms: C_23  and  N_25
REMARK    7  A    between atoms: C_26  and  C_30
REMARK                            x       y       z     vdW  Elec       q    Type
REMARK                         _______ _______ _______ _____ _____    ______ ____
ROOT
ATOM      1  C   UNL     1      34.312 -21.551 -18.950  0.00  0.00    +0.125 C 
ATOM      2  C   UNL     1      35.595 -19.675 -20.566  0.00  0.00    -0.020 C 
ATOM      3  C   UNL     1      35.701 -21.434 -18.916  0.00  0.00    +0.020 C 
ATOM      4  C   UNL     1      33.563 -20.730 -19.792  0.00  0.00    +0.020 C 
ATOM      5  C   UNL     1      36.343 -20.497 -19.724  0.00  0.00    -0.003 C 
ATOM      6  C   UNL     1      34.206 -19.791 -20.602  0.00  0.00    -0.003 C 
ENDROOT
BRANCH   1   7
ATOM      7  S   UNL     1      33.498 -22.740 -17.925  0.00  0.00    +0.077 S 
ATOM      8  O   UNL     1      33.510 -24.014 -18.616  0.00  0.00    -0.150 OA
ATOM      9  O   UNL     1      32.245 -22.143 -17.504  0.00  0.00    -0.150 OA
BRANCH   7  12
ATOM     10  O   UNL     1      33.366 -24.278 -15.230  0.00  0.00    -0.251 OA
ATOM     11  N   UNL     1      35.389 -23.435 -14.494  0.00  0.00    -0.289 N 
ATOM     12  N   UNL     1      34.565 -22.808 -16.592  0.00  0.00    -0.169 N 
ATOM     13  C   UNL     1      34.358 -23.575 -15.402  0.00  0.00    +0.319 C 
ATOM     14  H   UNL     1      36.143 -22.846 -14.727  0.00  0.00    +0.151 HD
ATOM     15  H   UNL     1      35.391 -22.274 -16.647  0.00  0.00    +0.178 HD
BRANCH  11  16
ATOM     16  C   UNL     1      35.412 -24.115 -13.219  0.00  0.00    +0.073 C 
ATOM     17  C   UNL     1      36.048 -23.237 -12.136  0.00  0.00    +0.020 C 
ATOM     18  C   UNL     1      36.125 -25.467 -13.327  0.00  0.00    +0.020 C 
ATOM     19  C   UNL     1      37.559 -23.092 -12.316  0.00  0.00    +0.002 C 
ATOM     20  C   UNL     1      37.636 -25.319 -13.505  0.00  0.00    +0.002 C 
ATOM     21  C   UNL     1      38.248 -24.450 -12.410  0.00  0.00    +0.000 C 
ENDBRANCH  11  16
ENDBRANCH   7  12
ENDBRANCH   1   7
BRANCH   2  22
ATOM     22  C   UNL     1      36.281 -18.672 -21.431  0.00  0.00    +0.048 C 
BRANCH  22  23
ATOM     23  C   UNL     1      35.562 -18.418 -22.763  0.00  0.00    +0.094 C 
BRANCH  23  25
ATOM     24  O   UNL     1      33.846 -17.327 -24.789  0.00  0.00    -0.269 OA
ATOM     25  N   UNL     1      35.220 -17.033 -22.944  0.00  0.00    -0.300 N 
ATOM     26  C   UNL     1      34.377 -16.595 -23.959  0.00  0.00    +0.261 C 
ATOM     27  H   UNL     1      35.599 -16.368 -22.325  0.00  0.00    +0.150 HD
BRANCH  26  30
ATOM     28  N   UNL     1      33.674 -14.647 -25.194  0.00  0.00    -0.262 NA
ATOM     29  N   UNL     1      34.188 -12.981 -22.997  0.00  0.00    -0.270 NA
ATOM     30  C   UNL     1      34.144 -15.129 -24.027  0.00  0.00    +0.132 C 
ATOM     31  C   UNL     1      34.396 -14.312 -22.948  0.00  0.00    +0.174 C 
ATOM     32  C   UNL     1      33.719 -12.497 -24.165  0.00  0.00    +0.057 C 
ATOM     33  C   UNL     1      33.466 -13.316 -25.244  0.00  0.00    +0.166 C 
ATOM     34  C   UNL     1      33.476 -11.031 -24.255  0.00  0.00    +0.049 C 
ENDBRANCH  26  30
ENDBRANCH  23  25
ENDBRANCH  22  23
ENDBRANCH   2  22
TORSDOF 7
ENDMDL
MODEL 2
REMARK VINA RESULT:     -11.2      1.127      1.525
REMARK  Name = 3478
REMARK  7 active torsions:
REMARK  status: ('A' for Active; 'I' for Inactive)
REMARK    1  A    between atoms: C_1  and  S_7
REMARK    2  A    between atoms: C_2  and  C_22
REMARK    3  A    between atoms: S_7  and  N_12
REMARK    4  A    between atoms: N_11  and  C_16
REMARK    5  A    between atoms: C_22  and  C_23
REMARK    6  A    between atoms: C_23  and  N_25
REMARK    7  A    between atoms: C_26  and  C_30
REMARK                            x       y       z     vdW  Elec       q    Type
REMARK                         _______ _______ _______ _____ _____    ______ ____
ROOT
ATOM      1  C   UNL     1      34.033 -21.732 -18.796  0.00  0.00    +0.125 C 
ATOM      2  C   UNL     1      35.068 -19.862 -20.589  0.00  0.00    -0.020 C 
ATOM      3  C   UNL     1      35.410 -21.518 -18.865  0.00  0.00    +0.020 C 
ATOM      4  C   UNL     1      33.174 -21.011 -19.624  0.00  0.00    +0.020 C 
ATOM      5  C   UNL     1      35.928 -20.584 -19.761  0.00  0.00    -0.003 C 
ATOM      6  C   UNL     1      33.692 -20.076 -20.521  0.00  0.00    -0.003 C 
ENDROOT
BRANCH   1   7
ATOM      7  S   UNL     1      33.377 -22.917 -17.660  0.00  0.00    +0.077 S 
ATOM      8  O   UNL     1      33.447 -24.225 -18.282  0.00  0.00    -0.150 OA
ATOM      9  O   UNL     1      32.109 -22.391 -17.192  0.00  0.00    -0.150 OA
BRANCH   7  12
ATOM     10  O   UNL     1      33.314 -23.913 -14.719  0.00  0.00    -0.251 OA
ATOM     11  N   UNL     1      35.439 -23.125 -14.263  0.00  0.00    -0.289 N 
ATOM     12  N   UNL     1      34.525 -22.828 -16.397  0.00  0.00    -0.169 N 
ATOM     13  C   UNL     1      34.342 -23.342 -15.073  0.00  0.00    +0.319 C 
ATOM     14  H   UNL     1      36.218 -22.656 -14.643  0.00  0.00    +0.151 HD
ATOM     15  H   UNL     1      35.382 -22.387 -16.595  0.00  0.00    +0.178 HD
BRANCH  11  16
ATOM     16  C   UNL     1      35.497 -23.557 -12.885  0.00  0.00    +0.073 C 
ATOM     17  C   UNL     1      36.763 -23.036 -12.196  0.00  0.00    +0.020 C 
ATOM     18  C   UNL     1      35.397 -25.083 -12.781  0.00  0.00    +0.020 C 
ATOM     19  C   UNL     1      38.028 -23.743 -12.684  0.00  0.00    +0.002 C 
ATOM     20  C   UNL     1      36.663 -25.787 -13.268  0.00  0.00    +0.002 C 
ATOM     21  C   UNL     1      37.908 -25.259 -12.560  0.00  0.00    +0.000 C 
ENDBRANCH  11  16
ENDBRANCH   7  12
ENDBRANCH   1   7
BRANCH   2  22
ATOM     22  C   UNL     1      35.621 -18.862 -21.548  0.00  0.00    +0.048 C 
BRANCH  22  23
ATOM     23  C   UNL     1      35.522 -17.415 -21.048  0.00  0.00    +0.094 C 
BRANCH  23  25
ATOM     24  O   UNL     1      34.536 -14.742 -20.697  0.00  0.00    -0.269 OA
ATOM     25  N   UNL     1      35.117 -16.506 -22.087  0.00  0.00    -0.300 N 
ATOM     26  C   UNL     1      34.649 -15.224 -21.821  0.00  0.00    +0.261 C 
ATOM     27  H   UNL     1      35.172 -16.804 -23.024  0.00  0.00    +0.150 HD
BRANCH  26  30
ATOM     28  N   UNL     1      34.191 -13.082 -22.831  0.00  0.00    -0.262 NA
ATOM     29  N   UNL     1      33.578 -14.293 -25.286  0.00  0.00    -0.270 NA
ATOM     30  C   UNL     1      34.246 -14.418 -23.002  0.00  0.00    +0.132 C 
ATOM     31  C   UNL     1      33.945 -15.013 -24.207  0.00  0.00    +0.174 C 
ATOM     32  C   UNL     1      33.523 -12.957 -25.116  0.00  0.00    +0.057 C 
ATOM     33  C   UNL     1      33.824 -12.362 -23.909  0.00  0.00    +0.166 C 
ATOM     34  C   UNL     1      33.122 -12.129 -26.287  0.00  0.00    +0.049 C 
ENDBRANCH  26  30
ENDBRANCH  23  25
ENDBRANCH  22  23
ENDBRANCH   2  22
TORSDOF 7
ENDMDL
MODEL 3
REMARK VINA RESULT:     -10.9      3.155      4.037
REMARK  Name = 3478
REMARK  7 active torsions:
REMARK  status: ('A' for Active; 'I' for Inactive)
REMARK    1  A    between atoms: C_1  and  S_7
REMARK    2  A    between atoms: C_2  and  C_22
REMARK    3  A    between atoms: S_7  and  N_12
REMARK    4  A    between atoms: N_11  and  C_16
REMARK    5  A    between atoms: C_22  and  C_23
REMARK    6  A    between atoms: C_23  and  N_25
REMARK    7  A    between atoms: C_26  and  C_30
REMARK                            x       y       z     vdW  Elec       q    Type
REMARK                         _______ _______ _______ _____ _____    ______ ____
ROOT
ATOM      1  C   UNL     1      34.479 -21.704 -19.112  0.00  0.00    +0.125 C 
ATOM      2  C   UNL     1      35.382 -19.530 -20.607  0.00  0.00    -0.020 C 
ATOM      3  C   UNL     1      33.572 -20.927 -19.832  0.00  0.00    +0.020 C 
ATOM      4  C   UNL     1      35.838 -21.395 -19.139  0.00  0.00    +0.020 C 
ATOM      5  C   UNL     1      34.023 -19.839 -20.579  0.00  0.00    -0.003 C 
ATOM      6  C   UNL     1      36.290 -20.307 -19.887  0.00  0.00    -0.003 C 
ENDROOT
BRANCH   1   7
ATOM      7  S   UNL     1      33.906 -23.083 -18.165  0.00  0.00    +0.077 S 
ATOM      8  O   UNL     1      34.728 -23.185 -16.975  0.00  0.00    -0.150 OA
ATOM      9  O   UNL     1      33.793 -24.202 -19.080  0.00  0.00    -0.150 OA
BRANCH   7  12
ATOM     10  O   UNL     1      32.283 -23.334 -15.528  0.00  0.00    -0.251 OA
ATOM     11  N   UNL     1      30.453 -22.213 -16.388  0.00  0.00    -0.289 N 
ATOM     12  N   UNL     1      32.341 -22.552 -17.728  0.00  0.00    -0.169 N 
ATOM     13  C   UNL     1      31.724 -22.751 -16.452  0.00  0.00    +0.319 C 
ATOM     14  H   UNL     1      30.092 -21.763 -17.186  0.00  0.00    +0.151 HD
ATOM     15  H   UNL     1      31.820 -22.070 -18.412  0.00  0.00    +0.178 HD
BRANCH  11  16
ATOM     16  C   UNL     1      29.630 -22.282 -15.202  0.00  0.00    +0.073 C 
ATOM     17  C   UNL     1      30.216 -23.260 -14.178  0.00  0.00    +0.020 C 
ATOM     18  C   UNL     1      28.184 -22.648 -15.555  0.00  0.00    +0.020 C 
ATOM     19  C   UNL     1      30.068 -24.718 -14.612  0.00  0.00    +0.002 C 
ATOM     20  C   UNL     1      28.039 -24.107 -15.987  0.00  0.00    +0.002 C 
ATOM     21  C   UNL     1      28.619 -25.062 -14.948  0.00  0.00    +0.000 C 
ENDBRANCH  11  16
ENDBRANCH   7  12
ENDBRANCH   1   7
BRANCH   2  22
ATOM     22  C   UNL     1      35.867 -18.367 -21.406  0.00  0.00    +0.048 C 
BRANCH  22  23
ATOM     23  C   UNL     1      35.046 -18.113 -22.677  0.00  0.00    +0.094 C 
BRANCH  23  25
ATOM     24  O   UNL     1      33.916 -16.913 -25.027  0.00  0.00    -0.269 OA
ATOM     25  N   UNL     1      34.777 -16.715 -22.882  0.00  0.00    -0.300 N 
ATOM     26  C   UNL     1      34.225 -16.223 -24.060  0.00  0.00    +0.261 C 
ATOM     27  H   UNL     1      34.992 -16.081 -22.160  0.00  0.00    +0.150 HD
BRANCH  26  30
ATOM     28  N   UNL     1      33.614 -14.250 -25.304  0.00  0.00    -0.262 NA
ATOM     29  N   UNL     1      34.102 -12.611 -23.080  0.00  0.00    -0.270 NA
ATOM     30  C   UNL     1      34.033 -14.751 -24.126  0.00  0.00    +0.132 C 
ATOM     31  C   UNL     1      34.273 -13.947 -23.033  0.00  0.00    +0.174 C 
ATOM     32  C   UNL     1      33.683 -12.108 -24.258  0.00  0.00    +0.057 C 
ATOM     33  C   UNL     1      33.443 -12.913 -25.351  0.00  0.00    +0.166 C 
ATOM     34  C   UNL     1      33.482 -10.635 -24.346  0.00  0.00    +0.049 C 
ENDBRANCH  26  30
ENDBRANCH  23  25
ENDBRANCH  22  23
ENDBRANCH   2  22
TORSDOF 7
ENDMDL
MODEL 4
REMARK VINA RESULT:     -10.8      3.086      4.457
REMARK  Name = 3478
REMARK  7 active torsions:
REMARK  status: ('A' for Active; 'I' for Inactive)
REMARK    1  A    between atoms: C_1  and  S_7
REMARK    2  A    between atoms: C_2  and  C_22
REMARK    3  A    between atoms: S_7  and  N_12
REMARK    4  A    between atoms: N_11  and  C_16
REMARK    5  A    between atoms: C_22  and  C_23
REMARK    6  A    between atoms: C_23  and  N_25
REMARK    7  A    between atoms: C_26  and  C_30
REMARK                            x       y       z     vdW  Elec       q    Type
REMARK                         _______ _______ _______ _____ _____    ______ ____
ROOT
ATOM      1  C   UNL     1      35.889 -22.754 -15.995  0.00  0.00    +0.125 C 
ATOM      2  C   UNL     1      34.967 -21.614 -18.368  0.00  0.00    -0.020 C 
ATOM      3  C   UNL     1      34.563 -22.936 -16.388  0.00  0.00    +0.020 C 
ATOM      4  C   UNL     1      36.754 -22.001 -16.789  0.00  0.00    +0.020 C 
ATOM      5  C   UNL     1      34.102 -22.366 -17.574  0.00  0.00    -0.003 C 
ATOM      6  C   UNL     1      36.293 -21.431 -17.976  0.00  0.00    -0.003 C 
ENDROOT
BRANCH   1   7
ATOM      7  S   UNL     1      36.473 -23.476 -14.491  0.00  0.00    +0.077 S 
ATOM      8  O   UNL     1      35.329 -23.724 -13.636  0.00  0.00    -0.150 OA
ATOM      9  O   UNL     1      37.573 -22.651 -14.030  0.00  0.00    -0.150 OA
BRANCH   7  12
ATOM     10  O   UNL     1      37.960 -25.798 -13.061  0.00  0.00    -0.251 OA
ATOM     11  N   UNL     1      38.147 -27.051 -14.994  0.00  0.00    -0.289 N 
ATOM     12  N   UNL     1      37.087 -24.966 -15.061  0.00  0.00    -0.169 N 
ATOM     13  C   UNL     1      37.761 -25.945 -14.264  0.00  0.00    +0.319 C 
ATOM     14  H   UNL     1      37.940 -27.074 -15.957  0.00  0.00    +0.151 HD
ATOM     15  H   UNL     1      36.968 -25.168 -16.018  0.00  0.00    +0.178 HD
BRANCH  11  16
ATOM     16  C   UNL     1      38.840 -28.177 -14.410  0.00  0.00    +0.073 C 
ATOM     17  C   UNL     1      40.351 -28.079 -14.647  0.00  0.00    +0.020 C 
ATOM     18  C   UNL     1      38.280 -29.503 -14.938  0.00  0.00    +0.020 C 
ATOM     19  C   UNL     1      40.731 -28.340 -16.105  0.00  0.00    +0.002 C 
ATOM     20  C   UNL     1      38.664 -29.761 -16.395  0.00  0.00    +0.002 C 
ATOM     21  C   UNL     1      40.172 -29.669 -16.604  0.00  0.00    +0.000 C 
ENDBRANCH  11  16
ENDBRANCH   7  12
ENDBRANCH   1   7
BRANCH   2  22
ATOM     22  C   UNL     1      34.475 -21.004 -19.637  0.00  0.00    +0.048 C 
BRANCH  22  23
ATOM     23  C   UNL     1      35.580 -20.335 -20.464  0.00  0.00    +0.094 C 
BRANCH  23  25
ATOM     24  O   UNL     1      37.134 -18.572 -22.114  0.00  0.00    -0.269 OA
ATOM     25  N   UNL     1      35.088 -19.229 -21.241  0.00  0.00    -0.300 N 
ATOM     26  C   UNL     1      35.919 -18.426 -22.014  0.00  0.00    +0.261 C 
ATOM     27  H   UNL     1      34.123 -19.033 -21.225  0.00  0.00    +0.150 HD
BRANCH  26  30
ATOM     28  N   UNL     1      35.178 -16.132 -22.084  0.00  0.00    -0.262 NA
ATOM     29  N   UNL     1      34.159 -16.466 -24.676  0.00  0.00    -0.270 NA
ATOM     30  C   UNL     1      35.259 -17.308 -22.737  0.00  0.00    +0.132 C 
ATOM     31  C   UNL     1      34.759 -17.473 -24.010  0.00  0.00    +0.174 C 
ATOM     32  C   UNL     1      34.077 -15.290 -24.024  0.00  0.00    +0.057 C 
ATOM     33  C   UNL     1      34.578 -15.126 -22.750  0.00  0.00    +0.166 C 
ATOM     34  C   UNL     1      33.421 -14.155 -24.730  0.00  0.00    +0.049 C 
ENDBRANCH  26  30
ENDBRANCH  23  25
ENDBRANCH  22  23
ENDBRANCH   2  22
TORSDOF 7
ENDMDL
MODEL 5
REMARK VINA RESULT:     -10.5      6.199     10.255
REMARK  Name = 3478
REMARK  7 active torsions:
REMARK  status: ('A' for Active; 'I' for Inactive)
REMARK    1  A    between atoms: C_1  and  S_7
REMARK    2  A    between atoms: C_2  and  C_22
REMARK    3  A    between atoms: S_7  and  N_12
REMARK    4  A    between atoms: N_11  and  C_16
REMARK    5  A    between atoms: C_22  and  C_23
REMARK    6  A    between atoms: C_23  and  N_25
REMARK    7  A    between atoms: C_26  and  C_30
REMARK                            x       y       z     vdW  Elec       q    Type
REMARK                         _______ _______ _______ _____ _____    ______ ____
ROOT
ATOM      1  C   UNL     1      32.958 -12.666 -22.536  0.00  0.00    +0.125 C 
ATOM      2  C   UNL     1      31.840 -11.127 -20.496  0.00  0.00    -0.020 C 
ATOM      3  C   UNL     1      32.613 -11.336 -22.775  0.00  0.00    +0.020 C 
ATOM      4  C   UNL     1      32.745 -13.227 -21.278  0.00  0.00    +0.020 C 
ATOM      5  C   UNL     1      32.053 -10.566 -21.755  0.00  0.00    -0.003 C 
ATOM      6  C   UNL     1      32.185 -12.457 -20.257  0.00  0.00    -0.003 C 
ENDROOT
BRANCH   1   7
ATOM      7  S   UNL     1      33.667 -13.641 -23.829  0.00  0.00    +0.077 S 
ATOM      8  O   UNL     1      34.700 -12.853 -24.474  0.00  0.00    -0.150 OA
ATOM      9  O   UNL     1      32.564 -14.180 -24.600  0.00  0.00    -0.150 OA
BRANCH   7  12
ATOM     10  O   UNL     1      34.741 -16.437 -24.653  0.00  0.00    -0.251 OA
ATOM     11  N   UNL     1      35.387 -16.974 -22.499  0.00  0.00    -0.289 N 
ATOM     12  N   UNL     1      34.394 -14.899 -22.929  0.00  0.00    -0.169 N 
ATOM     13  C   UNL     1      34.840 -16.150 -23.463  0.00  0.00    +0.319 C 
ATOM     14  H   UNL     1      35.420 -16.651 -21.569  0.00  0.00    +0.151 HD
ATOM     15  H   UNL     1      34.515 -14.752 -21.963  0.00  0.00    +0.178 HD
BRANCH  11  16
ATOM     16  C   UNL     1      35.913 -18.288 -22.793  0.00  0.00    +0.073 C 
ATOM     17  C   UNL     1      34.838 -19.365 -22.613  0.00  0.00    +0.020 C 
ATOM     18  C   UNL     1      37.150 -18.589 -21.941  0.00  0.00    +0.020 C 
ATOM     19  C   UNL     1      34.495 -19.608 -21.143  0.00  0.00    +0.002 C 
ATOM     20  C   UNL     1      36.804 -18.833 -20.472  0.00  0.00    +0.002 C 
ATOM     21  C   UNL     1      35.741 -19.917 -20.317  0.00  0.00    +0.000 C 
ENDBRANCH  11  16
ENDBRANCH   7  12
ENDBRANCH   1   7
BRANCH   2  22
ATOM     22  C   UNL     1      31.242 -10.305 -19.405  0.00  0.00    +0.048 C 
BRANCH  22  23
ATOM     23  C   UNL     1      32.045  -9.038 -19.082  0.00  0.00    +0.094 C 
BRANCH  23  25
ATOM     24  O   UNL     1      33.016  -6.339 -18.955  0.00  0.00    -0.269 OA
ATOM     25  N   UNL     1      31.886  -8.020 -20.085  0.00  0.00    -0.300 N 
ATOM     26  C   UNL     1      32.392  -6.734 -19.936  0.00  0.00    +0.261 C 
ATOM     27  H   UNL     1      31.397  -8.243 -20.911  0.00  0.00    +0.150 HD
BRANCH  26  30
ATOM     28  N   UNL     1      33.004  -5.788 -22.068  0.00  0.00    -0.262 NA
ATOM     29  N   UNL     1      30.758  -4.107 -22.046  0.00  0.00    -0.270 NA
ATOM     30  C   UNL     1      32.120  -5.791 -21.052  0.00  0.00    +0.132 C 
ATOM     31  C   UNL     1      31.016  -4.967 -21.040  0.00  0.00    +0.174 C 
ATOM     32  C   UNL     1      31.643  -4.103 -23.064  0.00  0.00    +0.057 C 
ATOM     33  C   UNL     1      32.746  -4.929 -23.074  0.00  0.00    +0.166 C 
ATOM     34  C   UNL     1      31.388  -3.166 -24.193  0.00  0.00    +0.049 C 
ENDBRANCH  26  30
ENDBRANCH  23  25
ENDBRANCH  22  23
ENDBRANCH   2  22
TORSDOF 7
ENDMDL
MODEL 6
REMARK VINA RESULT:     -10.5      2.865      4.593
REMARK  Name = 3478
REMARK  7 active torsions:
REMARK  status: ('A' for Active; 'I' for Inactive)
REMARK    1  A    between atoms: C_1  and  S_7
REMARK    2  A    between atoms: C_2  and  C_22
REMARK    3  A    between atoms: S_7  and  N_12
REMARK    4  A    between atoms: N_11  and  C_16
REMARK    5  A    between atoms: C_22  and  C_23
REMARK    6  A    between atoms: C_23  and  N_25
REMARK    7  A    between atoms: C_26  and  C_30
REMARK                            x       y       z     vdW  Elec       q    Type
REMARK                         _______ _______ _______ _____ _____    ______ ____
ROOT
ATOM      1  C   UNL     1      35.411 -22.683 -16.517  0.00  0.00    +0.125 C 
ATOM      2  C   UNL     1      35.208 -21.297 -18.929  0.00  0.00    -0.020 C 
ATOM      3  C   UNL     1      34.197 -22.648 -17.202  0.00  0.00    +0.020 C 
ATOM      4  C   UNL     1      36.525 -22.025 -17.038  0.00  0.00    +0.020 C 
ATOM      5  C   UNL     1      34.095 -21.955 -18.408  0.00  0.00    -0.003 C 
ATOM      6  C   UNL     1      36.423 -21.332 -18.245  0.00  0.00    -0.003 C 
ENDROOT
BRANCH   1   7
ATOM      7  S   UNL     1      35.540 -23.561 -14.988  0.00  0.00    +0.077 S 
ATOM      8  O   UNL     1      35.717 -22.592 -13.925  0.00  0.00    -0.150 OA
ATOM      9  O   UNL     1      36.513 -24.617 -15.192  0.00  0.00    -0.150 OA
BRANCH   7  12
ATOM     10  O   UNL     1      32.862 -22.467 -13.858  0.00  0.00    -0.251 OA
ATOM     11  N   UNL     1      31.702 -24.404 -14.356  0.00  0.00    -0.289 N 
ATOM     12  N   UNL     1      33.979 -24.249 -14.874  0.00  0.00    -0.169 N 
ATOM     13  C   UNL     1      32.829 -23.606 -14.315  0.00  0.00    +0.319 C 
ATOM     14  H   UNL     1      31.780 -25.306 -14.744  0.00  0.00    +0.151 HD
ATOM     15  H   UNL     1      33.862 -25.163 -15.221  0.00  0.00    +0.178 HD
BRANCH  11  16
ATOM     16  C   UNL     1      30.416 -23.975 -13.856  0.00  0.00    +0.073 C 
ATOM     17  C   UNL     1      29.352 -25.057 -14.071  0.00  0.00    +0.020 C 
ATOM     18  C   UNL     1      29.993 -22.646 -14.491  0.00  0.00    +0.020 C 
ATOM     19  C   UNL     1      28.959 -25.206 -15.541  0.00  0.00    +0.002 C 
ATOM     20  C   UNL     1      29.599 -22.799 -15.960  0.00  0.00    +0.002 C 
ATOM     21  C   UNL     1      28.531 -23.873 -16.147  0.00  0.00    +0.000 C 
ENDBRANCH  11  16
ENDBRANCH   7  12
ENDBRANCH   1   7
BRANCH   2  22
ATOM     22  C   UNL     1      35.101 -20.556 -20.219  0.00  0.00    +0.048 C 
BRANCH  22  23
ATOM     23  C   UNL     1      36.088 -19.388 -20.338  0.00  0.00    +0.094 C 
BRANCH  23  25
ATOM     24  O   UNL     1      36.073 -19.058 -23.190  0.00  0.00    -0.269 OA
ATOM     25  N   UNL     1      35.537 -18.280 -21.072  0.00  0.00    -0.300 N 
ATOM     26  C   UNL     1      35.576 -18.206 -22.460  0.00  0.00    +0.261 C 
ATOM     27  H   UNL     1      35.116 -17.544 -20.571  0.00  0.00    +0.150 HD
BRANCH  26  30
ATOM     28  N   UNL     1      34.972 -15.877 -22.296  0.00  0.00    -0.262 NA
ATOM     29  N   UNL     1      33.951 -15.886 -24.909  0.00  0.00    -0.270 NA
ATOM     30  C   UNL     1      34.987 -16.983 -23.065  0.00  0.00    +0.132 C 
ATOM     31  C   UNL     1      34.487 -16.988 -24.348  0.00  0.00    +0.174 C 
ATOM     32  C   UNL     1      33.934 -14.779 -24.141  0.00  0.00    +0.057 C 
ATOM     33  C   UNL     1      34.435 -14.774 -22.857  0.00  0.00    +0.166 C 
ATOM     34  C   UNL     1      33.350 -13.542 -24.728  0.00  0.00    +0.049 C 
ENDBRANCH  26  30
ENDBRANCH  23  25
ENDBRANCH  22  23
ENDBRANCH   2  22
TORSDOF 7
ENDMDL
MODEL 7
REMARK VINA RESULT:     -10.3      4.827     13.186
REMARK  Name = 3478
REMARK  7 active torsions:
REMARK  status: ('A' for Active; 'I' for Inactive)
REMARK    1  A    between atoms: C_1  and  S_7
REMARK    2  A    between atoms: C_2  and  C_22
REMARK    3  A    between atoms: S_7  and  N_12
REMARK    4  A    between atoms: N_11  and  C_16
REMARK    5  A    between atoms: C_22  and  C_23
REMARK    6  A    between atoms: C_23  and  N_25
REMARK    7  A    between atoms: C_26  and  C_30
REMARK                            x       y       z     vdW  Elec       q    Type
REMARK                         _______ _______ _______ _____ _____    ______ ____
ROOT
ATOM      1  C   UNL     1      32.809 -12.720 -21.755  0.00  0.00    +0.125 C 
ATOM      2  C   UNL     1      34.482 -14.810 -22.537  0.00  0.00    -0.020 C 
ATOM      3  C   UNL     1      33.070 -12.936 -23.108  0.00  0.00    +0.020 C 
ATOM      4  C   UNL     1      33.384 -13.548 -20.793  0.00  0.00    +0.020 C 
ATOM      5  C   UNL     1      33.907 -13.980 -23.499  0.00  0.00    -0.003 C 
ATOM      6  C   UNL     1      34.222 -14.594 -21.184  0.00  0.00    -0.003 C 
ENDROOT
BRANCH   1   7
ATOM      7  S   UNL     1      31.748 -11.395 -21.260  0.00  0.00    +0.077 S 
ATOM      8  O   UNL     1      31.960 -11.152 -19.846  0.00  0.00    -0.150 OA
ATOM      9  O   UNL     1      30.424 -11.709 -21.761  0.00  0.00    -0.150 OA
BRANCH   7  12
ATOM     10  O   UNL     1      31.906  -8.344 -20.702  0.00  0.00    -0.251 OA
ATOM     11  N   UNL     1      32.990  -7.898 -22.694  0.00  0.00    -0.289 N 
ATOM     12  N   UNL     1      32.400 -10.099 -22.162  0.00  0.00    -0.169 N 
ATOM     13  C   UNL     1      32.392  -8.724 -21.763  0.00  0.00    +0.319 C 
ATOM     14  H   UNL     1      33.351  -8.301 -23.517  0.00  0.00    +0.151 HD
ATOM     15  H   UNL     1      32.814 -10.315 -23.029  0.00  0.00    +0.178 HD
BRANCH  11  16
ATOM     16  C   UNL     1      33.110  -6.468 -22.516  0.00  0.00    +0.073 C 
ATOM     17  C   UNL     1      31.815  -5.752 -22.916  0.00  0.00    +0.020 C 
ATOM     18  C   UNL     1      34.312  -5.916 -23.289  0.00  0.00    +0.020 C 
ATOM     19  C   UNL     1      31.592  -5.750 -24.428  0.00  0.00    +0.002 C 
ATOM     20  C   UNL     1      34.085  -5.913 -24.800  0.00  0.00    +0.002 C 
ATOM     21  C   UNL     1      32.797  -5.185 -25.174  0.00  0.00    +0.000 C 
ENDBRANCH  11  16
ENDBRANCH   7  12
ENDBRANCH   1   7
BRANCH   2  22
ATOM     22  C   UNL     1      35.378 -15.927 -22.954  0.00  0.00    +0.048 C 
BRANCH  22  23
ATOM     23  C   UNL     1      34.623 -17.141 -23.511  0.00  0.00    +0.094 C 
BRANCH  23  25
ATOM     24  O   UNL     1      36.485 -18.641 -21.922  0.00  0.00    -0.269 OA
ATOM     25  N   UNL     1      34.302 -18.101 -22.489  0.00  0.00    -0.300 N 
ATOM     26  C   UNL     1      35.275 -18.783 -21.768  0.00  0.00    +0.261 C 
ATOM     27  H   UNL     1      33.354 -18.283 -22.293  0.00  0.00    +0.150 HD
BRANCH  26  30
ATOM     28  N   UNL     1      35.710 -20.367 -20.002  0.00  0.00    -0.262 NA
ATOM     29  N   UNL     1      32.973 -20.912 -19.721  0.00  0.00    -0.270 NA
ATOM     30  C   UNL     1      34.779 -19.761 -20.765  0.00  0.00    +0.132 C 
ATOM     31  C   UNL     1      33.435 -20.028 -20.627  0.00  0.00    +0.174 C 
ATOM     32  C   UNL     1      33.904 -21.520 -18.958  0.00  0.00    +0.057 C 
ATOM     33  C   UNL     1      35.248 -21.251 -19.096  0.00  0.00    +0.166 C 
ATOM     34  C   UNL     1      33.429 -22.502 -17.945  0.00  0.00    +0.049 C 
ENDBRANCH  26  30
ENDBRANCH  23  25
ENDBRANCH  22  23
ENDBRANCH   2  22
TORSDOF 7
ENDMDL
MODEL 8
REMARK VINA RESULT:     -10.1      4.902     13.395
REMARK  Name = 3478
REMARK  7 active torsions:
REMARK  status: ('A' for Active; 'I' for Inactive)
REMARK    1  A    between atoms: C_1  and  S_7
REMARK    2  A    between atoms: C_2  and  C_22
REMARK    3  A    between atoms: S_7  and  N_12
REMARK    4  A    between atoms: N_11  and  C_16
REMARK    5  A    between atoms: C_22  and  C_23
REMARK    6  A    between atoms: C_23  and  N_25
REMARK    7  A    between atoms: C_26  and  C_30
REMARK                            x       y       z     vdW  Elec       q    Type
REMARK                         _______ _______ _______ _____ _____    ______ ____
ROOT
ATOM      1  C   UNL     1      32.553 -12.030 -21.720  0.00  0.00    +0.125 C 
ATOM      2  C   UNL     1      34.249 -13.981 -22.765  0.00  0.00    -0.020 C 
ATOM      3  C   UNL     1      33.072 -11.887 -23.007  0.00  0.00    +0.020 C 
ATOM      4  C   UNL     1      32.882 -13.148 -20.955  0.00  0.00    +0.020 C 
ATOM      5  C   UNL     1      33.920 -12.862 -23.529  0.00  0.00    -0.003 C 
ATOM      6  C   UNL     1      33.731 -14.124 -21.478  0.00  0.00    -0.003 C 
ENDROOT
BRANCH   1   7
ATOM      7  S   UNL     1      31.477 -10.793 -21.058  0.00  0.00    +0.077 S 
ATOM      8  O   UNL     1      31.914 -10.491 -19.708  0.00  0.00    -0.150 OA
ATOM      9  O   UNL     1      30.120 -11.239 -21.309  0.00  0.00    -0.150 OA
BRANCH   7  12
ATOM     10  O   UNL     1      32.872  -8.069 -20.523  0.00  0.00    -0.251 OA
ATOM     11  N   UNL     1      32.644  -7.367 -22.713  0.00  0.00    -0.289 N 
ATOM     12  N   UNL     1      31.834  -9.469 -22.078  0.00  0.00    -0.169 N 
ATOM     13  C   UNL     1      32.490  -8.263 -21.673  0.00  0.00    +0.319 C 
ATOM     14  H   UNL     1      32.302  -7.618 -23.603  0.00  0.00    +0.151 HD
ATOM     15  H   UNL     1      31.564  -9.541 -23.023  0.00  0.00    +0.178 HD
BRANCH  11  16
ATOM     16  C   UNL     1      33.282  -6.080 -22.555  0.00  0.00    +0.073 C 
ATOM     17  C   UNL     1      32.325  -4.941 -22.920  0.00  0.00    +0.020 C 
ATOM     18  C   UNL     1      34.576  -6.003 -23.374  0.00  0.00    +0.020 C 
ATOM     19  C   UNL     1      32.065  -4.855 -24.424  0.00  0.00    +0.002 C 
ATOM     20  C   UNL     1      34.313  -5.916 -24.877  0.00  0.00    +0.002 C 
ATOM     21  C   UNL     1      33.367  -4.768 -25.217  0.00  0.00    +0.000 C 
ENDBRANCH  11  16
ENDBRANCH   7  12
ENDBRANCH   1   7
BRANCH   2  22
ATOM     22  C   UNL     1      35.156 -15.026 -23.323  0.00  0.00    +0.048 C 
BRANCH  22  23
ATOM     23  C   UNL     1      34.508 -16.413 -23.419  0.00  0.00    +0.094 C 
BRANCH  23  25
ATOM     24  O   UNL     1      33.972 -19.226 -23.211  0.00  0.00    -0.269 OA
ATOM     25  N   UNL     1      34.954 -17.297 -22.376  0.00  0.00    -0.300 N 
ATOM     26  C   UNL     1      34.644 -18.652 -22.358  0.00  0.00    +0.261 C 
ATOM     27  H   UNL     1      35.501 -16.928 -21.645  0.00  0.00    +0.150 HD
BRANCH  26  30
ATOM     28  N   UNL     1      34.317 -20.325 -20.652  0.00  0.00    -0.262 NA
ATOM     29  N   UNL     1      36.908 -19.919 -19.658  0.00  0.00    -0.270 NA
ATOM     30  C   UNL     1      35.158 -19.424 -21.197  0.00  0.00    +0.132 C 
ATOM     31  C   UNL     1      36.430 -19.225 -20.710  0.00  0.00    +0.174 C 
ATOM     32  C   UNL     1      36.068 -20.820 -19.112  0.00  0.00    +0.057 C 
ATOM     33  C   UNL     1      34.795 -21.020 -19.601  0.00  0.00    +0.166 C 
ATOM     34  C   UNL     1      36.563 -21.607 -17.949  0.00  0.00    +0.049 C 
ENDBRANCH  26  30
ENDBRANCH  23  25
ENDBRANCH  22  23
ENDBRANCH   2  22
TORSDOF 7
ENDMDL
MODEL 9
REMARK VINA RESULT:      -9.6      4.592     13.303
REMARK  Name = 3478
REMARK  7 active torsions:
REMARK  status: ('A' for Active; 'I' for Inactive)
REMARK    1  A    between atoms: C_1  and  S_7
REMARK    2  A    between atoms: C_2  and  C_22
REMARK    3  A    between atoms: S_7  and  N_12
REMARK    4  A    between atoms: N_11  and  C_16
REMARK    5  A    between atoms: C_22  and  C_23
REMARK    6  A    between atoms: C_23  and  N_25
REMARK    7  A    between atoms: C_26  and  C_30
REMARK                            x       y       z     vdW  Elec       q    Type
REMARK                         _______ _______ _______ _____ _____    ______ ____
ROOT
ATOM      1  C   UNL     1      33.981 -12.719 -23.996  0.00  0.00    +0.125 C 
ATOM      2  C   UNL     1      34.415 -14.632 -22.014  0.00  0.00    -0.020 C 
ATOM      3  C   UNL     1      34.198 -14.052 -24.347  0.00  0.00    +0.020 C 
ATOM      4  C   UNL     1      33.982 -12.343 -22.654  0.00  0.00    +0.020 C 
ATOM      5  C   UNL     1      34.415 -15.008 -23.356  0.00  0.00    -0.003 C 
ATOM      6  C   UNL     1      34.200 -13.300 -21.662  0.00  0.00    -0.003 C 
ENDROOT
BRANCH   1   7
ATOM      7  S   UNL     1      33.706 -11.507 -25.253  0.00  0.00    +0.077 S 
ATOM      8  O   UNL     1      32.629 -11.976 -26.104  0.00  0.00    -0.150 OA
ATOM      9  O   UNL     1      35.003 -11.186 -25.818  0.00  0.00    -0.150 OA
BRANCH   7  12
ATOM     10  O   UNL     1      35.219  -9.303 -23.672  0.00  0.00    -0.251 OA
ATOM     11  N   UNL     1      33.271  -8.284 -22.961  0.00  0.00    -0.289 N 
ATOM     12  N   UNL     1      33.156 -10.186 -24.319  0.00  0.00    -0.169 N 
ATOM     13  C   UNL     1      33.994  -9.245 -23.639  0.00  0.00    +0.319 C 
ATOM     14  H   UNL     1      32.287  -8.324 -22.996  0.00  0.00    +0.151 HD
ATOM     15  H   UNL     1      32.182 -10.062 -24.241  0.00  0.00    +0.178 HD
BRANCH  11  16
ATOM     16  C   UNL     1      33.892  -7.221 -22.203  0.00  0.00    +0.073 C 
ATOM     17  C   UNL     1      32.986  -6.758 -21.057  0.00  0.00    +0.020 C 
ATOM     18  C   UNL     1      34.279  -6.050 -23.113  0.00  0.00    +0.020 C 
ATOM     19  C   UNL     1      31.772  -5.971 -21.553  0.00  0.00    +0.002 C 
ATOM     20  C   UNL     1      33.064  -5.264 -23.606  0.00  0.00    +0.002 C 
ATOM     21  C   UNL     1      32.184  -4.805 -22.447  0.00  0.00    +0.000 C 
ENDBRANCH  11  16
ENDBRANCH   7  12
ENDBRANCH   1   7
BRANCH   2  22
ATOM     22  C   UNL     1      34.648 -15.655 -20.953  0.00  0.00    +0.048 C 
BRANCH  22  23
ATOM     23  C   UNL     1      35.330 -16.928 -21.468  0.00  0.00    +0.094 C 
BRANCH  23  25
ATOM     24  O   UNL     1      34.176 -19.412 -22.329  0.00  0.00    -0.269 OA
ATOM     25  N   UNL     1      35.044 -18.073 -20.645  0.00  0.00    -0.300 N 
ATOM     26  C   UNL     1      34.481 -19.238 -21.152  0.00  0.00    +0.261 C 
ATOM     27  H   UNL     1      35.254 -18.028 -19.684  0.00  0.00    +0.150 HD
BRANCH  26  30
ATOM     28  N   UNL     1      35.303 -20.905 -19.615  0.00  0.00    -0.262 NA
ATOM     29  N   UNL     1      32.691 -21.679 -18.947  0.00  0.00    -0.270 NA
ATOM     30  C   UNL     1      34.222 -20.320 -20.167  0.00  0.00    +0.132 C 
ATOM     31  C   UNL     1      32.939 -20.699 -19.839  0.00  0.00    +0.174 C 
ATOM     32  C   UNL     1      33.771 -22.265 -18.395  0.00  0.00    +0.057 C 
ATOM     33  C   UNL     1      35.055 -21.885 -18.723  0.00  0.00    +0.166 C 
ATOM     34  C   UNL     1      33.535 -23.351 -17.404  0.00  0.00    +0.049 C 
ENDBRANCH  26  30
ENDBRANCH  23  25
ENDBRANCH  22  23
ENDBRANCH   2  22
TORSDOF 7
ENDMDL
