MODEL 1
REMARK VINA RESULT:     -11.9      0.000      0.000
REMARK  Name = 447736
REMARK  4 active torsions:
REMARK  status: ('A' for Active; 'I' for Inactive)
REMARK    1  A    between atoms: N_2  and  C_13
REMARK    2  A    between atoms: C_3  and  C_20
REMARK    3  A    between atoms: C_6  and  C_17
REMARK    4  A    between atoms: C_28  and  C_32
REMARK                            x       y       z     vdW  Elec       q    Type
REMARK                         _______ _______ _______ _____ _____    ______ ____
ROOT
ATOM      1  O   UNL     1      33.624 -23.915 -17.392  0.00  0.00    -0.270 OA
ATOM      2  N   UNL     1      34.961 -22.398 -16.194  0.00  0.00    -0.280 N 
ATOM      3  C   UNL     1      34.204 -22.840 -17.287  0.00  0.00    +0.249 C 
ATOM      4  H   UNL     1      35.360 -21.502 -16.279  0.00  0.00    +0.155 HD
ENDROOT
BRANCH   2  13
ATOM      5  N   UNL     1      38.257 -25.662 -12.090  0.00  0.00    +0.388 N 
ATOM      6  C   UNL     1      38.197 -24.717 -13.223  0.00  0.00    -0.039 C 
ATOM      7  C   UNL     1      36.789 -24.229 -13.538  0.00  0.00    -0.045 C 
ATOM      8  C   UNL     1      35.754 -24.392 -12.594  0.00  0.00    -0.030 C 
ATOM      9  C   UNL     1      36.009 -25.105 -11.290  0.00  0.00    +0.003 C 
ATOM     10  C   UNL     1      37.496 -25.158 -10.949  0.00  0.00    -0.076 C 
ATOM     11  C   UNL     1      36.507 -23.541 -14.729  0.00  0.00    +0.008 C 
ATOM     12  C   UNL     1      34.462 -23.928 -12.880  0.00  0.00    -0.003 C 
ATOM     13  C   UNL     1      35.220 -23.072 -14.999  0.00  0.00    +0.050 C 
ATOM     14  C   UNL     1      34.197 -23.270 -14.079  0.00  0.00    +0.014 C 
ATOM     15  H   UNL     1      39.230 -25.789 -11.812  0.00  0.00    -0.084 HD
ATOM     16  H   UNL     1      37.850 -26.550 -12.385  0.00  0.00    -0.084 HD
BRANCH   6  17
ATOM     17  C   UNL     1      38.876 -25.413 -14.410  0.00  0.00    -0.015 C 
ATOM     18  C   UNL     1      40.377 -25.534 -14.166  0.00  0.00    -0.002 C 
ATOM     19  C   UNL     1      38.253 -26.784 -14.648  0.00  0.00    -0.002 C 
ENDBRANCH   6  17
ENDBRANCH   2  13
BRANCH   3  20
ATOM     20  C   UNL     1      34.136 -21.899 -18.435  0.00  0.00    +0.054 C 
ATOM     21  C   UNL     1      35.253 -20.419 -19.967  0.00  0.00    +0.000 C 
ATOM     22  C   UNL     1      35.301 -21.312 -18.883  0.00  0.00    +0.005 C 
ATOM     23  C   UNL     1      34.008 -20.139 -20.579  0.00  0.00    +0.000 C 
ATOM     24  C   UNL     1      32.914 -21.644 -19.012  0.00  0.00    +0.005 C 
ATOM     25  C   UNL     1      32.847 -20.760 -20.089  0.00  0.00    +0.000 C 
ATOM     26  C   UNL     1      33.961 -19.247 -21.662  0.00  0.00    +0.003 C 
ATOM     27  C   UNL     1      36.414 -19.799 -20.456  0.00  0.00    +0.000 C 
ATOM     28  C   UNL     1      35.124 -18.640 -22.135  0.00  0.00    +0.031 C 
ATOM     29  C   UNL     1      36.348 -18.916 -21.533  0.00  0.00    +0.003 C 
BRANCH  28  32
ATOM     30  N   UNL     1      35.639 -16.452 -23.192  0.00  0.00    -0.343 N 
ATOM     31  N   UNL     1      34.433 -18.073 -24.366  0.00  0.00    -0.285 NA
ATOM     32  C   UNL     1      35.057 -17.717 -23.257  0.00  0.00    +0.117 C 
ATOM     33  H   UNL     1      35.583 -15.844 -23.964  0.00  0.00    +0.144 HD
ATOM     34  H   UNL     1      36.107 -16.168 -22.373  0.00  0.00    +0.144 HD
ATOM     35  H   UNL     1      34.388 -17.450 -25.127  0.00  0.00    +0.188 HD
ENDBRANCH  28  32
ENDBRANCH   3  20
TORSDOF 4
ENDMDL
MODEL 2
REMARK VINA RESULT:     -11.1      9.292     15.803
REMARK  Name = 447736
REMARK  4 active torsions:
REMARK  status: ('A' for Active; 'I' for Inactive)
REMARK    1  A    between atoms: N_2  and  C_13
REMARK    2  A    between atoms: C_3  and  C_20
REMARK    3  A    between atoms: C_6  and  C_17
REMARK    4  A    between atoms: C_28  and  C_32
REMARK                            x       y       z     vdW  Elec       q    Type
REMARK                         _______ _______ _______ _____ _____    ______ ____
ROOT
ATOM      1  O   UNL     1      34.657  -9.960 -24.009  0.00  0.00    -0.270 OA
ATOM      2  N   UNL     1      32.784 -10.232 -22.613  0.00  0.00    -0.280 N 
ATOM      3  C   UNL     1      33.817 -10.663 -23.457  0.00  0.00    +0.249 C 
ATOM      4  H   UNL     1      32.197 -10.937 -22.255  0.00  0.00    +0.155 HD
ENDROOT
BRANCH   2  13
ATOM      5  N   UNL     1      31.904  -4.139 -23.278  0.00  0.00    +0.388 N 
ATOM      6  C   UNL     1      31.916  -5.500 -23.849  0.00  0.00    -0.039 C 
ATOM      7  C   UNL     1      32.075  -6.598 -22.805  0.00  0.00    -0.045 C 
ATOM      8  C   UNL     1      31.852  -6.318 -21.441  0.00  0.00    -0.030 C 
ATOM      9  C   UNL     1      31.515  -4.920 -20.989  0.00  0.00    +0.003 C 
ATOM     10  C   UNL     1      30.995  -4.058 -22.136  0.00  0.00    -0.076 C 
ATOM     11  C   UNL     1      32.367  -7.920 -23.179  0.00  0.00    +0.008 C 
ATOM     12  C   UNL     1      31.984  -7.334 -20.484  0.00  0.00    -0.003 C 
ATOM     13  C   UNL     1      32.485  -8.928 -22.219  0.00  0.00    +0.050 C 
ATOM     14  C   UNL     1      32.300  -8.634 -20.872  0.00  0.00    +0.014 C 
ATOM     15  H   UNL     1      31.599  -3.479 -23.994  0.00  0.00    -0.084 HD
ATOM     16  H   UNL     1      32.846  -3.910 -22.960  0.00  0.00    -0.084 HD
BRANCH   6  17
ATOM     17  C   UNL     1      33.015  -5.517 -24.918  0.00  0.00    -0.015 C 
ATOM     18  C   UNL     1      32.754  -4.440 -25.965  0.00  0.00    -0.002 C 
ATOM     19  C   UNL     1      34.384  -5.328 -24.275  0.00  0.00    -0.002 C 
ENDBRANCH   6  17
ENDBRANCH   2  13
BRANCH   3  20
ATOM     20  C   UNL     1      33.860 -12.126 -23.713  0.00  0.00    +0.054 C 
ATOM     21  C   UNL     1      34.384 -14.346 -22.948  0.00  0.00    +0.000 C 
ATOM     22  C   UNL     1      34.336 -12.960 -22.722  0.00  0.00    +0.005 C 
ATOM     23  C   UNL     1      33.944 -14.860 -24.192  0.00  0.00    +0.000 C 
ATOM     24  C   UNL     1      33.428 -12.600 -24.929  0.00  0.00    +0.005 C 
ATOM     25  C   UNL     1      33.469 -13.973 -25.172  0.00  0.00    +0.000 C 
ATOM     26  C   UNL     1      33.993 -16.245 -24.418  0.00  0.00    +0.003 C 
ATOM     27  C   UNL     1      34.859 -15.232 -21.968  0.00  0.00    +0.000 C 
ATOM     28  C   UNL     1      34.468 -17.111 -23.433  0.00  0.00    +0.031 C 
ATOM     29  C   UNL     1      34.900 -16.605 -22.210  0.00  0.00    +0.003 C 
BRANCH  28  32
ATOM     30  N   UNL     1      35.240 -19.400 -22.860  0.00  0.00    -0.343 N 
ATOM     31  N   UNL     1      33.856 -19.052 -24.711  0.00  0.00    -0.285 NA
ATOM     32  C   UNL     1      34.512 -18.543 -23.683  0.00  0.00    +0.117 C 
ATOM     33  H   UNL     1      35.256 -20.367 -23.048  0.00  0.00    +0.144 HD
ATOM     34  H   UNL     1      35.738 -19.040 -22.091  0.00  0.00    +0.144 HD
ATOM     35  H   UNL     1      33.885 -20.021 -24.881  0.00  0.00    +0.188 HD
ENDBRANCH  28  32
ENDBRANCH   3  20
TORSDOF 4
ENDMDL
MODEL 3
REMARK VINA RESULT:     -10.4      9.268     16.051
REMARK  Name = 447736
REMARK  4 active torsions:
REMARK  status: ('A' for Active; 'I' for Inactive)
REMARK    1  A    between atoms: N_2  and  C_13
REMARK    2  A    between atoms: C_3  and  C_20
REMARK    3  A    between atoms: C_6  and  C_17
REMARK    4  A    between atoms: C_28  and  C_32
REMARK                            x       y       z     vdW  Elec       q    Type
REMARK                         _______ _______ _______ _____ _____    ______ ____
ROOT
ATOM      1  O   UNL     1      31.266 -10.779 -21.711  0.00  0.00    -0.270 OA
ATOM      2  N   UNL     1      33.183  -9.686 -22.523  0.00  0.00    -0.280 N 
ATOM      3  C   UNL     1      32.386 -10.796 -22.210  0.00  0.00    +0.249 C 
ATOM      4  H   UNL     1      34.062  -9.884 -22.921  0.00  0.00    +0.155 HD
ENDROOT
BRANCH   2  13
ATOM      5  N   UNL     1      32.359  -3.761 -24.125  0.00  0.00    +0.388 N 
ATOM      6  C   UNL     1      32.373  -5.194 -24.482  0.00  0.00    -0.039 C 
ATOM      7  C   UNL     1      32.504  -6.120 -23.280  0.00  0.00    -0.045 C 
ATOM      8  C   UNL     1      32.254  -5.635 -21.979  0.00  0.00    -0.030 C 
ATOM      9  C   UNL     1      31.917  -4.184 -21.753  0.00  0.00    +0.003 C 
ATOM     10  C   UNL     1      31.427  -3.504 -23.029  0.00  0.00    -0.076 C 
ATOM     11  C   UNL     1      32.794  -7.485 -23.442  0.00  0.00    +0.008 C 
ATOM     12  C   UNL     1      32.360  -6.495 -20.876  0.00  0.00    -0.003 C 
ATOM     13  C   UNL     1      32.885  -8.335 -22.338  0.00  0.00    +0.050 C 
ATOM     14  C   UNL     1      32.674  -7.840 -21.056  0.00  0.00    +0.014 C 
ATOM     15  H   UNL     1      32.073  -3.217 -24.940  0.00  0.00    -0.084 HD
ATOM     16  H   UNL     1      33.296  -3.490 -23.825  0.00  0.00    -0.084 HD
BRANCH   6  17
ATOM     17  C   UNL     1      33.494  -5.377 -25.513  0.00  0.00    -0.015 C 
ATOM     18  C   UNL     1      33.296  -4.426 -26.687  0.00  0.00    -0.002 C 
ATOM     19  C   UNL     1      34.855  -5.158 -24.861  0.00  0.00    -0.002 C 
ENDBRANCH   6  17
ENDBRANCH   2  13
BRANCH   3  20
ATOM     20  C   UNL     1      32.997 -12.119 -22.500  0.00  0.00    +0.054 C 
ATOM     21  C   UNL     1      33.973 -14.167 -21.701  0.00  0.00    +0.000 C 
ATOM     22  C   UNL     1      33.393 -12.913 -21.444  0.00  0.00    +0.005 C 
ATOM     23  C   UNL     1      34.141 -14.591 -23.042  0.00  0.00    +0.000 C 
ATOM     24  C   UNL     1      33.149 -12.507 -23.811  0.00  0.00    +0.005 C 
ATOM     25  C   UNL     1      33.724 -13.748 -24.085  0.00  0.00    +0.000 C 
ATOM     26  C   UNL     1      34.721 -15.843 -23.298  0.00  0.00    +0.003 C 
ATOM     27  C   UNL     1      34.390 -15.009 -20.658  0.00  0.00    +0.000 C 
ATOM     28  C   UNL     1      35.129 -16.667 -22.249  0.00  0.00    +0.031 C 
ATOM     29  C   UNL     1      34.963 -16.250 -20.931  0.00  0.00    +0.003 C 
BRANCH  28  32
ATOM     30  N   UNL     1      37.021 -18.269 -22.110  0.00  0.00    -0.343 N 
ATOM     31  N   UNL     1      35.046 -18.870 -23.205  0.00  0.00    -0.285 NA
ATOM     32  C   UNL     1      35.729 -17.961 -22.532  0.00  0.00    +0.117 C 
ATOM     33  H   UNL     1      37.407 -19.153 -22.311  0.00  0.00    +0.144 HD
ATOM     34  H   UNL     1      37.546 -17.605 -21.609  0.00  0.00    +0.144 HD
ATOM     35  H   UNL     1      35.450 -19.747 -23.397  0.00  0.00    +0.188 HD
ENDBRANCH  28  32
ENDBRANCH   3  20
TORSDOF 4
ENDMDL
MODEL 4
REMARK VINA RESULT:     -10.4      1.205      2.660
REMARK  Name = 447736
REMARK  4 active torsions:
REMARK  status: ('A' for Active; 'I' for Inactive)
REMARK    1  A    between atoms: N_2  and  C_13
REMARK    2  A    between atoms: C_3  and  C_20
REMARK    3  A    between atoms: C_6  and  C_17
REMARK    4  A    between atoms: C_28  and  C_32
REMARK                            x       y       z     vdW  Elec       q    Type
REMARK                         _______ _______ _______ _____ _____    ______ ____
ROOT
ATOM      1  O   UNL     1      34.260 -23.122 -17.487  0.00  0.00    -0.270 OA
ATOM      2  N   UNL     1      36.331 -22.069 -17.125  0.00  0.00    -0.280 N 
ATOM      3  C   UNL     1      35.099 -22.271 -17.762  0.00  0.00    +0.249 C 
ATOM      4  H   UNL     1      36.885 -21.335 -17.478  0.00  0.00    +0.155 HD
ENDROOT
BRANCH   2  13
ATOM      5  N   UNL     1      36.305 -25.316 -11.851  0.00  0.00    +0.388 N 
ATOM      6  C   UNL     1      35.626 -24.871 -13.084  0.00  0.00    -0.039 C 
ATOM      7  C   UNL     1      36.543 -24.141 -14.057  0.00  0.00    -0.045 C 
ATOM      8  C   UNL     1      37.943 -24.239 -13.922  0.00  0.00    -0.030 C 
ATOM      9  C   UNL     1      38.552 -25.012 -12.780  0.00  0.00    +0.003 C 
ATOM     10  C   UNL     1      37.561 -25.996 -12.163  0.00  0.00    -0.076 C 
ATOM     11  C   UNL     1      36.023 -23.426 -15.148  0.00  0.00    +0.008 C 
ATOM     12  C   UNL     1      38.785 -23.578 -14.828  0.00  0.00    -0.003 C 
ATOM     13  C   UNL     1      36.870 -22.781 -16.052  0.00  0.00    +0.050 C 
ATOM     14  C   UNL     1      38.249 -22.852 -15.889  0.00  0.00    +0.014 C 
ATOM     15  H   UNL     1      35.694 -25.959 -11.347  0.00  0.00    -0.084 HD
ATOM     16  H   UNL     1      36.512 -24.497 -11.280  0.00  0.00    -0.084 HD
BRANCH   6  17
ATOM     17  C   UNL     1      34.420 -24.031 -12.641  0.00  0.00    -0.015 C 
ATOM     18  C   UNL     1      33.123 -24.669 -13.124  0.00  0.00    -0.002 C 
ATOM     19  C   UNL     1      34.415 -23.870 -11.125  0.00  0.00    -0.002 C 
ENDBRANCH   6  17
ENDBRANCH   2  13
BRANCH   3  20
ATOM     20  C   UNL     1      34.817 -21.361 -18.902  0.00  0.00    +0.054 C 
ATOM     21  C   UNL     1      35.618 -19.821 -20.568  0.00  0.00    +0.000 C 
ATOM     22  C   UNL     1      35.868 -20.686 -19.489  0.00  0.00    +0.005 C 
ATOM     23  C   UNL     1      34.290 -19.658 -21.032  0.00  0.00    +0.000 C 
ATOM     24  C   UNL     1      33.519 -21.220 -19.334  0.00  0.00    +0.005 C 
ATOM     25  C   UNL     1      33.252 -20.365 -20.403  0.00  0.00    +0.000 C 
ATOM     26  C   UNL     1      34.041 -18.794 -22.110  0.00  0.00    +0.003 C 
ATOM     27  C   UNL     1      36.656 -19.115 -21.196  0.00  0.00    +0.000 C 
ATOM     28  C   UNL     1      35.084 -18.100 -22.722  0.00  0.00    +0.031 C 
ATOM     29  C   UNL     1      36.390 -18.260 -22.266  0.00  0.00    +0.003 C 
BRANCH  28  32
ATOM     30  N   UNL     1      35.426 -15.962 -23.938  0.00  0.00    -0.343 N 
ATOM     31  N   UNL     1      33.956 -17.574 -24.778  0.00  0.00    -0.285 NA
ATOM     32  C   UNL     1      34.809 -17.208 -23.837  0.00  0.00    +0.117 C 
ATOM     33  H   UNL     1      35.226 -15.374 -24.702  0.00  0.00    +0.144 HD
ATOM     34  H   UNL     1      36.062 -15.671 -23.246  0.00  0.00    +0.144 HD
ATOM     35  H   UNL     1      33.769 -16.971 -25.533  0.00  0.00    +0.188 HD
ENDBRANCH  28  32
ENDBRANCH   3  20
TORSDOF 4
ENDMDL
MODEL 5
REMARK VINA RESULT:     -10.2      9.910     16.577
REMARK  Name = 447736
REMARK  4 active torsions:
REMARK  status: ('A' for Active; 'I' for Inactive)
REMARK    1  A    between atoms: N_2  and  C_13
REMARK    2  A    between atoms: C_3  and  C_20
REMARK    3  A    between atoms: C_6  and  C_17
REMARK    4  A    between atoms: C_28  and  C_32
REMARK                            x       y       z     vdW  Elec       q    Type
REMARK                         _______ _______ _______ _____ _____    ______ ____
ROOT
ATOM      1  O   UNL     1      30.539  -9.862 -21.941  0.00  0.00    -0.270 OA
ATOM      2  N   UNL     1      32.662  -8.866 -21.778  0.00  0.00    -0.280 N 
ATOM      3  C   UNL     1      31.755  -9.934 -21.796  0.00  0.00    +0.249 C 
ATOM      4  H   UNL     1      33.609  -9.106 -21.649  0.00  0.00    +0.155 HD
ENDROOT
BRANCH   2  13
ATOM      5  N   UNL     1      32.214  -3.416 -24.686  0.00  0.00    +0.388 N 
ATOM      6  C   UNL     1      32.220  -4.892 -24.726  0.00  0.00    -0.039 C 
ATOM      7  C   UNL     1      32.187  -5.541 -23.348  0.00  0.00    -0.045 C 
ATOM      8  C   UNL     1      31.812  -4.786 -22.218  0.00  0.00    -0.030 C 
ATOM      9  C   UNL     1      31.500  -3.316 -22.344  0.00  0.00    +0.003 C 
ATOM     10  C   UNL     1      31.175  -2.923 -23.783  0.00  0.00    -0.076 C 
ATOM     11  C   UNL     1      32.449  -6.910 -23.183  0.00  0.00    +0.008 C 
ATOM     12  C   UNL     1      31.767  -5.389 -20.952  0.00  0.00    -0.003 C 
ATOM     13  C   UNL     1      32.390  -7.505 -21.920  0.00  0.00    +0.050 C 
ATOM     14  C   UNL     1      32.056  -6.744 -20.805  0.00  0.00    +0.014 C 
ATOM     15  H   UNL     1      32.037  -3.058 -25.624  0.00  0.00    -0.084 HD
ATOM     16  H   UNL     1      33.120  -3.096 -24.345  0.00  0.00    -0.084 HD
BRANCH   6  17
ATOM     17  C   UNL     1      33.441  -5.302 -25.559  0.00  0.00    -0.015 C 
ATOM     18  C   UNL     1      33.527  -4.458 -26.825  0.00  0.00    -0.002 C 
ATOM     19  C   UNL     1      34.715  -5.171 -24.732  0.00  0.00    -0.002 C 
ENDBRANCH   6  17
ENDBRANCH   2  13
BRANCH   3  20
ATOM     20  C   UNL     1      32.351 -11.279 -21.588  0.00  0.00    +0.054 C 
ATOM     21  C   UNL     1      33.619 -13.135 -22.445  0.00  0.00    +0.000 C 
ATOM     22  C   UNL     1      33.049 -11.863 -22.625  0.00  0.00    +0.005 C 
ATOM     23  C   UNL     1      33.464 -13.793 -21.201  0.00  0.00    +0.000 C 
ATOM     24  C   UNL     1      32.186 -11.897 -20.371  0.00  0.00    +0.005 C 
ATOM     25  C   UNL     1      32.744 -13.161 -20.174  0.00  0.00    +0.000 C 
ATOM     26  C   UNL     1      34.033 -15.064 -21.022  0.00  0.00    +0.003 C 
ATOM     27  C   UNL     1      34.338 -13.767 -23.472  0.00  0.00    +0.000 C 
ATOM     28  C   UNL     1      34.744 -15.678 -22.053  0.00  0.00    +0.031 C 
ATOM     29  C   UNL     1      34.897 -15.030 -23.276  0.00  0.00    +0.003 C 
BRANCH  28  32
ATOM     30  N   UNL     1      35.719 -17.787 -22.929  0.00  0.00    -0.343 N 
ATOM     31  N   UNL     1      35.489 -17.462 -20.626  0.00  0.00    -0.285 NA
ATOM     32  C   UNL     1      35.327 -16.995 -21.852  0.00  0.00    +0.117 C 
ATOM     33  H   UNL     1      36.112 -18.675 -22.770  0.00  0.00    +0.144 HD
ATOM     34  H   UNL     1      35.604 -17.457 -23.850  0.00  0.00    +0.144 HD
ATOM     35  H   UNL     1      35.884 -18.354 -20.488  0.00  0.00    +0.188 HD
ENDBRANCH  28  32
ENDBRANCH   3  20
TORSDOF 4
ENDMDL
MODEL 6
REMARK VINA RESULT:     -10.0      0.678      1.474
REMARK  Name = 447736
REMARK  4 active torsions:
REMARK  status: ('A' for Active; 'I' for Inactive)
REMARK    1  A    between atoms: N_2  and  C_13
REMARK    2  A    between atoms: C_3  and  C_20
REMARK    3  A    between atoms: C_6  and  C_17
REMARK    4  A    between atoms: C_28  and  C_32
REMARK                            x       y       z     vdW  Elec       q    Type
REMARK                         _______ _______ _______ _____ _____    ______ ____
ROOT
ATOM      1  O   UNL     1      34.065 -23.552 -17.286  0.00  0.00    -0.270 OA
ATOM      2  N   UNL     1      35.665 -22.370 -16.033  0.00  0.00    -0.280 N 
ATOM      3  C   UNL     1      34.879 -22.643 -17.160  0.00  0.00    +0.249 C 
ATOM      4  H   UNL     1      36.270 -21.596 -16.106  0.00  0.00    +0.155 HD
ENDROOT
BRANCH   2  13
ATOM      5  N   UNL     1      37.996 -26.042 -11.624  0.00  0.00    +0.388 N 
ATOM      6  C   UNL     1      38.195 -25.114 -12.755  0.00  0.00    -0.039 C 
ATOM      7  C   UNL     1      36.916 -24.422 -13.210  0.00  0.00    -0.045 C 
ATOM      8  C   UNL     1      35.779 -24.414 -12.376  0.00  0.00    -0.030 C 
ATOM      9  C   UNL     1      35.790 -25.140 -11.055  0.00  0.00    +0.003 C 
ATOM     10  C   UNL     1      37.209 -25.413 -10.565  0.00  0.00    -0.076 C 
ATOM     11  C   UNL     1      36.864 -23.715 -14.422  0.00  0.00    +0.008 C 
ATOM     12  C   UNL     1      34.608 -23.763 -12.790  0.00  0.00    -0.003 C 
ATOM     13  C   UNL     1      35.697 -23.059 -14.820  0.00  0.00    +0.050 C 
ATOM     14  C   UNL     1      34.568 -23.088 -14.009  0.00  0.00    +0.014 C 
ATOM     15  H   UNL     1      38.905 -26.311 -11.249  0.00  0.00    -0.084 HD
ATOM     16  H   UNL     1      37.490 -26.862 -11.961  0.00  0.00    -0.084 HD
BRANCH   6  17
ATOM     17  C   UNL     1      38.876 -25.920 -13.869  0.00  0.00    -0.015 C 
ATOM     18  C   UNL     1      40.331 -25.490 -14.020  0.00  0.00    -0.002 C 
ATOM     19  C   UNL     1      38.779 -27.413 -13.577  0.00  0.00    -0.002 C 
ENDBRANCH   6  17
ENDBRANCH   2  13
BRANCH   3  20
ATOM     20  C   UNL     1      35.093 -21.739 -18.320  0.00  0.00    +0.054 C 
ATOM     21  C   UNL     1      34.189 -20.509 -20.179  0.00  0.00    +0.000 C 
ATOM     22  C   UNL     1      34.004 -21.363 -19.079  0.00  0.00    +0.005 C 
ATOM     23  C   UNL     1      35.492 -20.050 -20.488  0.00  0.00    +0.000 C 
ATOM     24  C   UNL     1      36.368 -21.307 -18.598  0.00  0.00    +0.005 C 
ATOM     25  C   UNL     1      36.572 -20.459 -19.687  0.00  0.00    +0.000 C 
ATOM     26  C   UNL     1      35.677 -19.197 -21.587  0.00  0.00    +0.003 C 
ATOM     27  C   UNL     1      33.110 -20.101 -20.979  0.00  0.00    +0.000 C 
ATOM     28  C   UNL     1      34.594 -18.801 -22.371  0.00  0.00    +0.031 C 
ATOM     29  C   UNL     1      33.312 -19.252 -22.068  0.00  0.00    +0.003 C 
BRANCH  28  32
ATOM     30  N   UNL     1      35.583 -16.768 -23.398  0.00  0.00    -0.343 N 
ATOM     31  N   UNL     1      34.244 -18.199 -24.671  0.00  0.00    -0.285 NA
ATOM     32  C   UNL     1      34.803 -17.918 -23.507  0.00  0.00    +0.117 C 
ATOM     33  H   UNL     1      35.712 -16.184 -24.181  0.00  0.00    +0.144 HD
ATOM     34  H   UNL     1      36.005 -16.540 -22.539  0.00  0.00    +0.144 HD
ATOM     35  H   UNL     1      34.385 -17.602 -25.442  0.00  0.00    +0.188 HD
ENDBRANCH  28  32
ENDBRANCH   3  20
TORSDOF 4
ENDMDL
MODEL 7
REMARK VINA RESULT:      -9.9      3.538     11.487
REMARK  Name = 447736
REMARK  4 active torsions:
REMARK  status: ('A' for Active; 'I' for Inactive)
REMARK    1  A    between atoms: N_2  and  C_13
REMARK    2  A    between atoms: C_3  and  C_20
REMARK    3  A    between atoms: C_6  and  C_17
REMARK    4  A    between atoms: C_28  and  C_32
REMARK                            x       y       z     vdW  Elec       q    Type
REMARK                         _______ _______ _______ _____ _____    ______ ____
ROOT
ATOM      1  O   UNL     1      34.521 -19.430 -22.931  0.00  0.00    -0.270 OA
ATOM      2  N   UNL     1      34.895 -17.494 -21.651  0.00  0.00    -0.280 N 
ATOM      3  C   UNL     1      34.824 -18.875 -21.881  0.00  0.00    +0.249 C 
ATOM      4  H   UNL     1      35.156 -17.220 -20.742  0.00  0.00    +0.155 HD
ENDROOT
BRANCH   2  13
ATOM      5  N   UNL     1      32.929 -11.929 -23.529  0.00  0.00    +0.388 N 
ATOM      6  C   UNL     1      33.444 -12.813 -22.464  0.00  0.00    -0.039 C 
ATOM      7  C   UNL     1      33.912 -14.172 -22.971  0.00  0.00    -0.045 C 
ATOM      8  C   UNL     1      34.156 -14.370 -24.346  0.00  0.00    -0.030 C 
ATOM      9  C   UNL     1      33.901 -13.265 -25.339  0.00  0.00    +0.003 C 
ATOM     10  C   UNL     1      33.845 -11.895 -24.668  0.00  0.00    -0.076 C 
ATOM     11  C   UNL     1      34.184 -15.225 -22.083  0.00  0.00    +0.008 C 
ATOM     12  C   UNL     1      34.601 -15.617 -24.808  0.00  0.00    -0.003 C 
ATOM     13  C   UNL     1      34.639 -16.459 -22.551  0.00  0.00    +0.050 C 
ATOM     14  C   UNL     1      34.841 -16.658 -23.913  0.00  0.00    +0.014 C 
ATOM     15  H   UNL     1      32.825 -10.985 -23.157  0.00  0.00    -0.084 HD
ATOM     16  H   UNL     1      32.030 -12.291 -23.846  0.00  0.00    -0.084 HD
BRANCH   6  17
ATOM     17  C   UNL     1      32.341 -12.910 -21.403  0.00  0.00    -0.015 C 
ATOM     18  C   UNL     1      32.915 -13.417 -20.085  0.00  0.00    -0.002 C 
ATOM     19  C   UNL     1      31.666 -11.555 -21.215  0.00  0.00    -0.002 C 
ENDBRANCH   6  17
ENDBRANCH   2  13
BRANCH   3  20
ATOM     20  C   UNL     1      35.129 -19.732 -20.706  0.00  0.00    +0.054 C 
ATOM     21  C   UNL     1      34.367 -21.224 -18.980  0.00  0.00    +0.000 C 
ATOM     22  C   UNL     1      34.096 -20.411 -20.094  0.00  0.00    +0.005 C 
ATOM     23  C   UNL     1      35.697 -21.331 -18.508  0.00  0.00    +0.000 C 
ATOM     24  C   UNL     1      36.429 -19.818 -20.267  0.00  0.00    +0.005 C 
ATOM     25  C   UNL     1      36.717 -20.620 -19.162  0.00  0.00    +0.000 C 
ATOM     26  C   UNL     1      35.967 -22.144 -17.396  0.00  0.00    +0.003 C 
ATOM     27  C   UNL     1      33.347 -21.934 -18.327  0.00  0.00    +0.000 C 
ATOM     28  C   UNL     1      34.942 -22.842 -16.758  0.00  0.00    +0.031 C 
ATOM     29  C   UNL     1      33.634 -22.737 -17.223  0.00  0.00    +0.003 C 
BRANCH  28  32
ATOM     30  N   UNL     1      34.234 -24.096 -14.735  0.00  0.00    -0.343 N 
ATOM     31  N   UNL     1      36.483 -24.057 -15.371  0.00  0.00    -0.285 NA
ATOM     32  C   UNL     1      35.239 -23.679 -15.607  0.00  0.00    +0.117 C 
ATOM     33  H   UNL     1      34.457 -24.663 -13.962  0.00  0.00    +0.144 HD
ATOM     34  H   UNL     1      33.302 -23.823 -14.893  0.00  0.00    +0.144 HD
ATOM     35  H   UNL     1      36.685 -24.624 -14.592  0.00  0.00    +0.188 HD
ENDBRANCH  28  32
ENDBRANCH   3  20
TORSDOF 4
ENDMDL
MODEL 8
REMARK VINA RESULT:      -9.7     10.725     17.670
REMARK  Name = 447736
REMARK  4 active torsions:
REMARK  status: ('A' for Active; 'I' for Inactive)
REMARK    1  A    between atoms: N_2  and  C_13
REMARK    2  A    between atoms: C_3  and  C_20
REMARK    3  A    between atoms: C_6  and  C_17
REMARK    4  A    between atoms: C_28  and  C_32
REMARK                            x       y       z     vdW  Elec       q    Type
REMARK                         _______ _______ _______ _____ _____    ______ ____
ROOT
ATOM      1  O   UNL     1      31.340  -9.009 -21.901  0.00  0.00    -0.270 OA
ATOM      2  N   UNL     1      32.899  -7.951 -23.307  0.00  0.00    -0.280 N 
ATOM      3  C   UNL     1      32.267  -9.046 -22.703  0.00  0.00    +0.249 C 
ATOM      4  H   UNL     1      33.631  -8.165 -23.930  0.00  0.00    +0.155 HD
ENDROOT
BRANCH   2  13
ATOM      5  N   UNL     1      31.889  -2.078 -24.991  0.00  0.00    +0.388 N 
ATOM      6  C   UNL     1      31.866  -3.521 -25.302  0.00  0.00    -0.039 C 
ATOM      7  C   UNL     1      32.132  -4.410 -24.094  0.00  0.00    -0.045 C 
ATOM      8  C   UNL     1      32.028  -3.884 -22.789  0.00  0.00    -0.030 C 
ATOM      9  C   UNL     1      31.716  -2.425 -22.572  0.00  0.00    +0.003 C 
ATOM     10  C   UNL     1      31.085  -1.786 -23.806  0.00  0.00    -0.076 C 
ATOM     11  C   UNL     1      32.405  -5.779 -24.245  0.00  0.00    +0.008 C 
ATOM     12  C   UNL     1      32.258  -4.709 -21.679  0.00  0.00    -0.003 C 
ATOM     13  C   UNL     1      32.621  -6.595 -23.132  0.00  0.00    +0.050 C 
ATOM     14  C   UNL     1      32.554  -6.059 -21.851  0.00  0.00    +0.014 C 
ATOM     15  H   UNL     1      31.513  -1.559 -25.785  0.00  0.00    -0.084 HD
ATOM     16  H   UNL     1      32.853  -1.799 -24.806  0.00  0.00    -0.084 HD
BRANCH   6  17
ATOM     17  C   UNL     1      32.866  -3.738 -26.445  0.00  0.00    -0.015 C 
ATOM     18  C   UNL     1      32.593  -2.758 -27.581  0.00  0.00    -0.002 C 
ATOM     19  C   UNL     1      34.295  -3.594 -25.935  0.00  0.00    -0.002 C 
ENDBRANCH   6  17
ENDBRANCH   2  13
BRANCH   3  20
ATOM     20  C   UNL     1      32.812 -10.378 -23.071  0.00  0.00    +0.054 C 
ATOM     21  C   UNL     1      33.460 -12.601 -22.419  0.00  0.00    +0.000 C 
ATOM     22  C   UNL     1      32.944 -11.337 -22.088  0.00  0.00    +0.005 C 
ATOM     23  C   UNL     1      33.835 -12.867 -23.758  0.00  0.00    +0.000 C 
ATOM     24  C   UNL     1      33.170 -10.611 -24.379  0.00  0.00    +0.005 C 
ATOM     25  C   UNL     1      33.684 -11.860 -24.726  0.00  0.00    +0.000 C 
ATOM     26  C   UNL     1      34.350 -14.130 -24.089  0.00  0.00    +0.003 C 
ATOM     27  C   UNL     1      33.610 -13.607 -21.452  0.00  0.00    +0.000 C 
ATOM     28  C   UNL     1      34.493 -15.118 -23.115  0.00  0.00    +0.031 C 
ATOM     29  C   UNL     1      34.123 -14.857 -21.798  0.00  0.00    +0.003 C 
BRANCH  28  32
ATOM     30  N   UNL     1      35.785 -17.168 -22.572  0.00  0.00    -0.343 N 
ATOM     31  N   UNL     1      34.803 -16.917 -24.677  0.00  0.00    -0.285 NA
ATOM     32  C   UNL     1      35.029 -16.422 -23.474  0.00  0.00    +0.117 C 
ATOM     33  H   UNL     1      36.138 -18.049 -22.835  0.00  0.00    +0.144 HD
ATOM     34  H   UNL     1      35.966 -16.815 -21.671  0.00  0.00    +0.144 HD
ATOM     35  H   UNL     1      35.165 -17.800 -24.922  0.00  0.00    +0.188 HD
ENDBRANCH  28  32
ENDBRANCH   3  20
TORSDOF 4
ENDMDL
MODEL 9
REMARK VINA RESULT:      -9.3      8.053     14.995
REMARK  Name = 447736
REMARK  4 active torsions:
REMARK  status: ('A' for Active; 'I' for Inactive)
REMARK    1  A    between atoms: N_2  and  C_13
REMARK    2  A    between atoms: C_3  and  C_20
REMARK    3  A    between atoms: C_6  and  C_17
REMARK    4  A    between atoms: C_28  and  C_32
REMARK                            x       y       z     vdW  Elec       q    Type
REMARK                         _______ _______ _______ _____ _____    ______ ____
ROOT
ATOM      1  O   UNL     1      33.262 -12.423 -24.471  0.00  0.00    -0.270 OA
ATOM      2  N   UNL     1      34.576 -11.187 -22.963  0.00  0.00    -0.280 N 
ATOM      3  C   UNL     1      33.986 -12.347 -23.484  0.00  0.00    +0.249 C 
ATOM      4  H   UNL     1      35.132 -11.309 -22.159  0.00  0.00    +0.155 HD
ENDROOT
BRANCH   2  13
ATOM      5  N   UNL     1      32.772  -5.263 -23.021  0.00  0.00    +0.388 N 
ATOM      6  C   UNL     1      33.080  -6.501 -22.277  0.00  0.00    -0.039 C 
ATOM      7  C   UNL     1      33.729  -7.582 -23.132  0.00  0.00    -0.045 C 
ATOM      8  C   UNL     1      34.293  -7.254 -24.382  0.00  0.00    -0.030 C 
ATOM      9  C   UNL     1      34.207  -5.848 -24.919  0.00  0.00    +0.003 C 
ATOM     10  C   UNL     1      33.920  -4.832 -23.817  0.00  0.00    -0.076 C 
ATOM     11  C   UNL     1      33.852  -8.901 -22.666  0.00  0.00    +0.008 C 
ATOM     12  C   UNL     1      34.904  -8.248 -25.160  0.00  0.00    -0.003 C 
ATOM     13  C   UNL     1      34.473  -9.881 -23.443  0.00  0.00    +0.050 C 
ATOM     14  C   UNL     1      34.993  -9.557 -24.691  0.00  0.00    +0.014 C 
ATOM     15  H   UNL     1      32.530  -4.527 -22.358  0.00  0.00    -0.084 HD
ATOM     16  H   UNL     1      31.991  -5.448 -23.651  0.00  0.00    -0.084 HD
BRANCH   6  17
ATOM     17  C   UNL     1      31.771  -6.954 -21.619  0.00  0.00    -0.015 C 
ATOM     18  C   UNL     1      32.003  -7.286 -20.149  0.00  0.00    -0.002 C 
ATOM     19  C   UNL     1      30.702  -5.877 -21.769  0.00  0.00    -0.002 C 
ENDBRANCH   6  17
ENDBRANCH   2  13
BRANCH   3  20
ATOM     20  C   UNL     1      34.262 -13.596 -22.728  0.00  0.00    +0.054 C 
ATOM     21  C   UNL     1      34.821 -15.935 -22.731  0.00  0.00    +0.000 C 
ATOM     22  C   UNL     1      34.559 -14.745 -23.431  0.00  0.00    +0.005 C 
ATOM     23  C   UNL     1      34.775 -15.931 -21.316  0.00  0.00    +0.000 C 
ATOM     24  C   UNL     1      34.210 -13.565 -21.354  0.00  0.00    +0.005 C 
ATOM     25  C   UNL     1      34.467 -14.737 -20.643  0.00  0.00    +0.000 C 
ATOM     26  C   UNL     1      35.037 -17.120 -20.617  0.00  0.00    +0.003 C 
ATOM     27  C   UNL     1      35.129 -17.128 -23.404  0.00  0.00    +0.000 C 
ATOM     28  C   UNL     1      35.341 -18.296 -21.302  0.00  0.00    +0.031 C 
ATOM     29  C   UNL     1      35.387 -18.300 -22.693  0.00  0.00    +0.003 C 
BRANCH  28  32
ATOM     30  N   UNL     1      36.825 -19.722 -19.912  0.00  0.00    -0.343 N 
ATOM     31  N   UNL     1      34.690 -20.467 -20.503  0.00  0.00    -0.285 NA
ATOM     32  C   UNL     1      35.609 -19.520 -20.563  0.00  0.00    +0.117 C 
ATOM     33  H   UNL     1      36.985 -20.558 -19.416  0.00  0.00    +0.144 HD
ATOM     34  H   UNL     1      37.523 -19.029 -19.947  0.00  0.00    +0.144 HD
ATOM     35  H   UNL     1      34.870 -21.296 -20.003  0.00  0.00    +0.188 HD
ENDBRANCH  28  32
ENDBRANCH   3  20
TORSDOF 4
ENDMDL
