MODEL 1
REMARK VINA RESULT:     -11.8      0.000      0.000
REMARK  Name = 11282283
REMARK  4 active torsions:
REMARK  status: ('A' for Active; 'I' for Inactive)
REMARK    1  A    between atoms: N_3  and  C_21
REMARK    2  A    between atoms: C_21  and  N_22
REMARK    3  A    between atoms: N_22  and  C_24
REMARK    4  A    between atoms: C_24  and  C_27
REMARK                            x       y       z     vdW  Elec       q    Type
REMARK                         _______ _______ _______ _____ _____    ______ ____
ROOT
ATOM      1  O   UNL     1      33.867  -9.930 -23.023  0.00  0.00    -0.466 OA
ATOM      2  N   UNL     1      33.104 -12.526 -21.869  0.00  0.00    -0.290 N 
ATOM      3  N   UNL     1      34.257 -15.037 -22.677  0.00  0.00    -0.288 N 
ATOM      4  N   UNL     1      31.591 -11.260 -20.520  0.00  0.00    -0.230 NA
ATOM      5  N   UNL     1      31.426  -8.830 -20.703  0.00  0.00    -0.245 NA
ATOM      6  C   UNL     1      33.218 -13.639 -20.921  0.00  0.00    +0.113 C 
ATOM      7  C   UNL     1      33.592 -12.721 -23.239  0.00  0.00    +0.113 C 
ATOM      8  C   UNL     1      34.373 -14.561 -21.307  0.00  0.00    +0.114 C 
ATOM      9  C   UNL     1      33.540 -14.198 -23.625  0.00  0.00    +0.114 C 
ATOM     10  C   UNL     1      32.543 -11.312 -21.478  0.00  0.00    +0.152 C 
ATOM     11  C   UNL     1      32.939 -10.121 -22.052  0.00  0.00    +0.258 C 
ATOM     12  C   UNL     1      32.381  -8.912 -21.662  0.00  0.00    +0.106 C 
ATOM     13  C   UNL     1      33.010  -7.909 -22.445  0.00  0.00    +0.051 C 
ATOM     14  C   UNL     1      33.913  -8.586 -23.264  0.00  0.00    +0.141 C 
ATOM     15  C   UNL     1      31.099 -10.040 -20.196  0.00  0.00    +0.251 C 
ATOM     16  C   UNL     1      32.920  -6.511 -22.557  0.00  0.00    +0.004 C 
ATOM     17  C   UNL     1      34.740  -7.959 -24.195  0.00  0.00    +0.037 C 
ATOM     18  C   UNL     1      33.740  -5.855 -23.485  0.00  0.00    +0.000 C 
ATOM     19  C   UNL     1      34.633  -6.569 -24.288  0.00  0.00    +0.003 C 
ENDROOT
BRANCH   3  21
ATOM     20  S   UNL     1      34.488 -16.871 -24.567  0.00  0.00    -0.019 S 
ATOM     21  C   UNL     1      34.800 -16.221 -23.057  0.00  0.00    +0.135 C 
BRANCH  21  22
ATOM     22  N   UNL     1      35.614 -16.866 -22.161  0.00  0.00    -0.312 N 
ATOM     23  H   UNL     1      35.824 -16.390 -21.326  0.00  0.00    +0.149 HD
BRANCH  22  24
ATOM     24  C   UNL     1      36.194 -18.184 -22.331  0.00  0.00    +0.116 C 
BRANCH  24  27
ATOM     25  O   UNL     1      32.673 -20.659 -19.911  0.00  0.00    -0.435 OA
ATOM     26  O   UNL     1      34.268 -21.755 -18.475  0.00  0.00    -0.435 OA
ATOM     27  C   UNL     1      35.711 -19.148 -21.286  0.00  0.00    +0.001 C 
ATOM     28  C   UNL     1      34.348 -19.396 -21.160  0.00  0.00    +0.038 C 
ATOM     29  C   UNL     1      36.645 -19.781 -20.454  0.00  0.00    +0.001 C 
ATOM     30  C   UNL     1      33.953 -20.290 -20.186  0.00  0.00    +0.176 C 
ATOM     31  C   UNL     1      34.864 -20.916 -19.366  0.00  0.00    +0.176 C 
ATOM     32  C   UNL     1      36.220 -20.682 -19.475  0.00  0.00    +0.040 C 
ATOM     33  C   UNL     1      32.880 -21.588 -18.827  0.00  0.00    +0.429 C 
ENDBRANCH  24  27
ENDBRANCH  22  24
ENDBRANCH  21  22
ENDBRANCH   3  21
TORSDOF 4
ENDMDL
MODEL 2
REMARK VINA RESULT:     -11.7      2.204      3.492
REMARK  Name = 11282283
REMARK  4 active torsions:
REMARK  status: ('A' for Active; 'I' for Inactive)
REMARK    1  A    between atoms: N_3  and  C_21
REMARK    2  A    between atoms: C_21  and  N_22
REMARK    3  A    between atoms: N_22  and  C_24
REMARK    4  A    between atoms: C_24  and  C_27
REMARK                            x       y       z     vdW  Elec       q    Type
REMARK                         _______ _______ _______ _____ _____    ______ ____
ROOT
ATOM      1  O   UNL     1      32.895 -12.360 -21.507  0.00  0.00    -0.466 OA
ATOM      2  N   UNL     1      34.096 -14.192 -23.471  0.00  0.00    -0.290 N 
ATOM      3  N   UNL     1      34.686 -16.957 -22.927  0.00  0.00    -0.288 N 
ATOM      4  N   UNL     1      34.083 -12.309 -24.943  0.00  0.00    -0.230 NA
ATOM      5  N   UNL     1      33.224 -10.133 -24.243  0.00  0.00    -0.245 NA
ATOM      6  C   UNL     1      34.062 -15.192 -24.543  0.00  0.00    +0.113 C 
ATOM      7  C   UNL     1      34.437 -14.634 -22.114  0.00  0.00    +0.113 C 
ATOM      8  C   UNL     1      33.756 -16.578 -23.980  0.00  0.00    +0.114 C 
ATOM      9  C   UNL     1      35.306 -15.889 -22.157  0.00  0.00    +0.114 C 
ATOM     10  C   UNL     1      33.813 -12.853 -23.735  0.00  0.00    +0.152 C 
ATOM     11  C   UNL     1      33.248 -12.037 -22.778  0.00  0.00    +0.258 C 
ATOM     12  C   UNL     1      32.965 -10.704 -23.041  0.00  0.00    +0.106 C 
ATOM     13  C   UNL     1      32.400 -10.172 -21.854  0.00  0.00    +0.051 C 
ATOM     14  C   UNL     1      32.379 -11.228 -20.943  0.00  0.00    +0.141 C 
ATOM     15  C   UNL     1      33.776 -11.002 -25.120  0.00  0.00    +0.251 C 
ATOM     16  C   UNL     1      31.905  -8.922 -21.444  0.00  0.00    +0.004 C 
ATOM     17  C   UNL     1      31.894 -11.123 -19.641  0.00  0.00    +0.037 C 
ATOM     18  C   UNL     1      31.411  -8.788 -20.139  0.00  0.00    +0.000 C 
ATOM     19  C   UNL     1      31.407  -9.871 -19.256  0.00  0.00    +0.003 C 
ENDROOT
BRANCH   3  21
ATOM     20  S   UNL     1      34.695 -19.444 -23.823  0.00  0.00    -0.019 S 
ATOM     21  C   UNL     1      34.965 -18.260 -22.672  0.00  0.00    +0.135 C 
BRANCH  21  22
ATOM     22  N   UNL     1      35.478 -18.573 -21.439  0.00  0.00    -0.312 N 
ATOM     23  H   UNL     1      35.550 -17.840 -20.786  0.00  0.00    +0.149 HD
BRANCH  22  24
ATOM     24  C   UNL     1      35.923 -19.884 -21.007  0.00  0.00    +0.116 C 
BRANCH  24  27
ATOM     25  O   UNL     1      34.609 -22.940 -17.359  0.00  0.00    -0.435 OA
ATOM     26  O   UNL     1      32.266 -22.451 -17.637  0.00  0.00    -0.435 OA
ATOM     27  C   UNL     1      34.915 -20.555 -20.120  0.00  0.00    +0.001 C 
ATOM     28  C   UNL     1      35.347 -21.451 -19.148  0.00  0.00    +0.038 C 
ATOM     29  C   UNL     1      33.553 -20.265 -20.287  0.00  0.00    +0.001 C 
ATOM     30  C   UNL     1      34.384 -22.042 -18.356  0.00  0.00    +0.176 C 
ATOM     31  C   UNL     1      33.045 -21.762 -18.514  0.00  0.00    +0.176 C 
ATOM     32  C   UNL     1      32.598 -20.876 -19.473  0.00  0.00    +0.040 C 
ATOM     33  C   UNL     1      33.263 -23.194 -16.907  0.00  0.00    +0.429 C 
ENDBRANCH  24  27
ENDBRANCH  22  24
ENDBRANCH  21  22
ENDBRANCH   3  21
TORSDOF 4
ENDMDL
MODEL 3
REMARK VINA RESULT:     -10.7      9.383     13.377
REMARK  Name = 11282283
REMARK  4 active torsions:
REMARK  status: ('A' for Active; 'I' for Inactive)
REMARK    1  A    between atoms: N_3  and  C_21
REMARK    2  A    between atoms: C_21  and  N_22
REMARK    3  A    between atoms: N_22  and  C_24
REMARK    4  A    between atoms: C_24  and  C_27
REMARK                            x       y       z     vdW  Elec       q    Type
REMARK                         _______ _______ _______ _____ _____    ______ ____
ROOT
ATOM      1  O   UNL     1      34.920 -22.510 -17.267  0.00  0.00    -0.466 OA
ATOM      2  N   UNL     1      34.398 -24.087 -14.838  0.00  0.00    -0.290 N 
ATOM      3  N   UNL     1      36.469 -25.234 -13.200  0.00  0.00    -0.288 N 
ATOM      4  N   UNL     1      32.090 -23.697 -15.318  0.00  0.00    -0.230 NA
ATOM      5  N   UNL     1      31.380 -22.397 -17.260  0.00  0.00    -0.245 NA
ATOM      6  C   UNL     1      34.198 -24.274 -13.397  0.00  0.00    +0.113 C 
ATOM      7  C   UNL     1      35.678 -24.498 -15.425  0.00  0.00    +0.113 C 
ATOM      8  C   UNL     1      35.536 -24.257 -12.659  0.00  0.00    +0.114 C 
ATOM      9  C   UNL     1      36.320 -25.610 -14.598  0.00  0.00    +0.114 C 
ATOM     10  C   UNL     1      33.394 -23.535 -15.632  0.00  0.00    +0.152 C 
ATOM     11  C   UNL     1      33.694 -22.801 -16.761  0.00  0.00    +0.258 C 
ATOM     12  C   UNL     1      32.696 -22.250 -17.550  0.00  0.00    +0.106 C 
ATOM     13  C   UNL     1      33.351 -21.574 -18.612  0.00  0.00    +0.051 C 
ATOM     14  C   UNL     1      34.714 -21.764 -18.391  0.00  0.00    +0.141 C 
ATOM     15  C   UNL     1      31.176 -23.127 -16.140  0.00  0.00    +0.251 C 
ATOM     16  C   UNL     1      32.949 -20.825 -19.731  0.00  0.00    +0.004 C 
ATOM     17  C   UNL     1      35.715 -21.254 -19.218  0.00  0.00    +0.037 C 
ATOM     18  C   UNL     1      33.934 -20.300 -20.579  0.00  0.00    +0.000 C 
ATOM     19  C   UNL     1      35.291 -20.512 -20.325  0.00  0.00    +0.003 C 
ENDROOT
BRANCH   3  21
ATOM     20  S   UNL     1      38.945 -25.050 -12.293  0.00  0.00    -0.019 S 
ATOM     21  C   UNL     1      37.443 -25.776 -12.427  0.00  0.00    +0.135 C 
BRANCH  21  22
ATOM     22  N   UNL     1      37.154 -26.937 -11.756  0.00  0.00    -0.312 N 
ATOM     23  H   UNL     1      36.359 -26.932 -11.176  0.00  0.00    +0.149 HD
BRANCH  22  24
ATOM     24  C   UNL     1      37.909 -28.173 -11.826  0.00  0.00    +0.116 C 
BRANCH  24  27
ATOM     25  O   UNL     1      40.546 -28.951 -15.927  0.00  0.00    -0.435 OA
ATOM     26  O   UNL     1      38.668 -29.910 -17.092  0.00  0.00    -0.435 OA
ATOM     27  C   UNL     1      38.078 -28.649 -13.240  0.00  0.00    +0.001 C 
ATOM     28  C   UNL     1      39.318 -28.531 -13.859  0.00  0.00    +0.038 C 
ATOM     29  C   UNL     1      36.980 -29.206 -13.911  0.00  0.00    +0.001 C 
ATOM     30  C   UNL     1      39.424 -28.983 -15.158  0.00  0.00    +0.176 C 
ATOM     31  C   UNL     1      38.351 -29.531 -15.824  0.00  0.00    +0.176 C 
ATOM     32  C   UNL     1      37.113 -29.656 -15.226  0.00  0.00    +0.040 C 
ATOM     33  C   UNL     1      40.060 -29.540 -17.150  0.00  0.00    +0.429 C 
ENDBRANCH  24  27
ENDBRANCH  22  24
ENDBRANCH  21  22
ENDBRANCH   3  21
TORSDOF 4
ENDMDL
MODEL 4
REMARK VINA RESULT:     -10.4      3.548     11.254
REMARK  Name = 11282283
REMARK  4 active torsions:
REMARK  status: ('A' for Active; 'I' for Inactive)
REMARK    1  A    between atoms: N_3  and  C_21
REMARK    2  A    between atoms: C_21  and  N_22
REMARK    3  A    between atoms: N_22  and  C_24
REMARK    4  A    between atoms: C_24  and  C_27
REMARK                            x       y       z     vdW  Elec       q    Type
REMARK                         _______ _______ _______ _____ _____    ______ ____
ROOT
ATOM      1  O   UNL     1      34.077 -13.917 -22.043  0.00  0.00    -0.466 OA
ATOM      2  N   UNL     1      33.118 -11.431 -23.292  0.00  0.00    -0.290 N 
ATOM      3  N   UNL     1      32.492  -9.039 -21.818  0.00  0.00    -0.288 N 
ATOM      4  N   UNL     1      33.281 -12.634 -25.350  0.00  0.00    -0.230 NA
ATOM      5  N   UNL     1      34.040 -14.954 -25.430  0.00  0.00    -0.245 NA
ATOM      6  C   UNL     1      33.279 -10.109 -23.904  0.00  0.00    +0.113 C 
ATOM      7  C   UNL     1      32.631 -11.507 -21.910  0.00  0.00    +0.113 C 
ATOM      8  C   UNL     1      33.531  -9.046 -22.837  0.00  0.00    +0.114 C 
ATOM      9  C   UNL     1      31.782 -10.284 -21.569  0.00  0.00    +0.114 C 
ATOM     10  C   UNL     1      33.418 -12.590 -24.006  0.00  0.00    +0.152 C 
ATOM     11  C   UNL     1      33.867 -13.729 -23.371  0.00  0.00    +0.258 C 
ATOM     12  C   UNL     1      34.167 -14.882 -24.082  0.00  0.00    +0.106 C 
ATOM     13  C   UNL     1      34.592 -15.842 -23.129  0.00  0.00    +0.051 C 
ATOM     14  C   UNL     1      34.519 -15.200 -21.893  0.00  0.00    +0.141 C 
ATOM     15  C   UNL     1      33.596 -13.797 -25.971  0.00  0.00    +0.251 C 
ATOM     16  C   UNL     1      35.028 -17.178 -23.167  0.00  0.00    +0.004 C 
ATOM     17  C   UNL     1      34.854 -15.804 -20.682  0.00  0.00    +0.037 C 
ATOM     18  C   UNL     1      35.372 -17.809 -21.964  0.00  0.00    +0.000 C 
ATOM     19  C   UNL     1      35.286 -17.132 -20.745  0.00  0.00    +0.003 C 
ENDROOT
BRANCH   3  21
ATOM     20  S   UNL     1      32.393  -7.839 -19.465  0.00  0.00    -0.019 S 
ATOM     21  C   UNL     1      32.197  -7.911 -21.125  0.00  0.00    +0.135 C 
BRANCH  21  22
ATOM     22  N   UNL     1      31.734  -6.830 -21.833  0.00  0.00    -0.312 N 
ATOM     23  H   UNL     1      30.913  -6.960 -22.360  0.00  0.00    +0.149 HD
BRANCH  22  24
ATOM     24  C   UNL     1      32.342  -5.515 -21.876  0.00  0.00    +0.116 C 
BRANCH  24  27
ATOM     25  O   UNL     1      32.141  -3.424 -26.344  0.00  0.00    -0.435 OA
ATOM     26  O   UNL     1      34.313  -4.265 -26.963  0.00  0.00    -0.435 OA
ATOM     27  C   UNL     1      32.901  -5.198 -23.232  0.00  0.00    +0.001 C 
ATOM     28  C   UNL     1      32.157  -4.423 -24.116  0.00  0.00    +0.038 C 
ATOM     29  C   UNL     1      34.165  -5.691 -23.585  0.00  0.00    +0.001 C 
ATOM     30  C   UNL     1      32.713  -4.158 -25.351  0.00  0.00    +0.176 C 
ATOM     31  C   UNL     1      33.953  -4.638 -25.704  0.00  0.00    +0.176 C 
ATOM     32  C   UNL     1      34.706  -5.409 -24.841  0.00  0.00    +0.040 C 
ATOM     33  C   UNL     1      33.161  -3.495 -27.361  0.00  0.00    +0.429 C 
ENDBRANCH  24  27
ENDBRANCH  22  24
ENDBRANCH  21  22
ENDBRANCH   3  21
TORSDOF 4
ENDMDL
MODEL 5
REMARK VINA RESULT:     -10.4      8.424     14.872
REMARK  Name = 11282283
REMARK  4 active torsions:
REMARK  status: ('A' for Active; 'I' for Inactive)
REMARK    1  A    between atoms: N_3  and  C_21
REMARK    2  A    between atoms: C_21  and  N_22
REMARK    3  A    between atoms: N_22  and  C_24
REMARK    4  A    between atoms: C_24  and  C_27
REMARK                            x       y       z     vdW  Elec       q    Type
REMARK                         _______ _______ _______ _____ _____    ______ ____
ROOT
ATOM      1  O   UNL     1      36.616 -26.444 -14.871  0.00  0.00    -0.466 OA
ATOM      2  N   UNL     1      34.679 -24.441 -13.928  0.00  0.00    -0.290 N 
ATOM      3  N   UNL     1      32.622 -23.300 -15.589  0.00  0.00    -0.288 N 
ATOM      4  N   UNL     1      35.808 -24.623 -11.830  0.00  0.00    -0.230 NA
ATOM      5  N   UNL     1      37.706 -26.128 -11.515  0.00  0.00    -0.245 NA
ATOM      6  C   UNL     1      33.406 -23.999 -13.349  0.00  0.00    +0.113 C 
ATOM      7  C   UNL     1      34.879 -24.289 -15.374  0.00  0.00    +0.113 C 
ATOM      8  C   UNL     1      32.290 -24.056 -14.391  0.00  0.00    +0.114 C 
ATOM      9  C   UNL     1      34.030 -23.142 -15.919  0.00  0.00    +0.114 C 
ATOM     10  C   UNL     1      35.675 -24.991 -13.124  0.00  0.00    +0.152 C 
ATOM     11  C   UNL     1      36.558 -25.929 -13.616  0.00  0.00    +0.258 C 
ATOM     12  C   UNL     1      37.550 -26.478 -12.816  0.00  0.00    +0.106 C 
ATOM     13  C   UNL     1      38.265 -27.392 -13.632  0.00  0.00    +0.051 C 
ATOM     14  C   UNL     1      37.652 -27.334 -14.883  0.00  0.00    +0.141 C 
ATOM     15  C   UNL     1      36.801 -25.206 -11.116  0.00  0.00    +0.251 C 
ATOM     16  C   UNL     1      39.356 -28.260 -13.458  0.00  0.00    +0.004 C 
ATOM     17  C   UNL     1      38.057 -28.089 -15.983  0.00  0.00    +0.037 C 
ATOM     18  C   UNL     1      39.785 -29.030 -14.547  0.00  0.00    +0.000 C 
ATOM     19  C   UNL     1      39.145 -28.945 -15.786  0.00  0.00    +0.003 C 
ENDROOT
BRANCH   3  21
ATOM     20  S   UNL     1      30.062 -22.698 -15.854  0.00  0.00    -0.019 S 
ATOM     21  C   UNL     1      31.652 -22.761 -16.370  0.00  0.00    +0.135 C 
BRANCH  21  22
ATOM     22  N   UNL     1      32.022 -22.268 -17.595  0.00  0.00    -0.312 N 
ATOM     23  H   UNL     1      31.460 -21.556 -17.978  0.00  0.00    +0.149 HD
BRANCH  22  24
ATOM     24  C   UNL     1      33.165 -22.696 -18.378  0.00  0.00    +0.116 C 
BRANCH  24  27
ATOM     25  O   UNL     1      36.884 -19.858 -19.955  0.00  0.00    -0.435 OA
ATOM     26  O   UNL     1      35.436 -18.539 -21.359  0.00  0.00    -0.435 OA
ATOM     27  C   UNL     1      33.741 -21.573 -19.191  0.00  0.00    +0.001 C 
ATOM     28  C   UNL     1      35.106 -21.309 -19.123  0.00  0.00    +0.038 C 
ATOM     29  C   UNL     1      32.893 -20.811 -20.005  0.00  0.00    +0.001 C 
ATOM     30  C   UNL     1      35.588 -20.268 -19.889  0.00  0.00    +0.176 C 
ATOM     31  C   UNL     1      34.762 -19.515 -20.691  0.00  0.00    +0.176 C 
ATOM     32  C   UNL     1      33.406 -19.762 -20.771  0.00  0.00    +0.040 C 
ATOM     33  C   UNL     1      36.781 -18.763 -20.888  0.00  0.00    +0.429 C 
ENDBRANCH  24  27
ENDBRANCH  22  24
ENDBRANCH  21  22
ENDBRANCH   3  21
TORSDOF 4
ENDMDL
MODEL 6
REMARK VINA RESULT:     -10.3      4.089      6.641
REMARK  Name = 11282283
REMARK  4 active torsions:
REMARK  status: ('A' for Active; 'I' for Inactive)
REMARK    1  A    between atoms: N_3  and  C_21
REMARK    2  A    between atoms: C_21  and  N_22
REMARK    3  A    between atoms: N_22  and  C_24
REMARK    4  A    between atoms: C_24  and  C_27
REMARK                            x       y       z     vdW  Elec       q    Type
REMARK                         _______ _______ _______ _____ _____    ______ ____
ROOT
ATOM      1  O   UNL     1      33.531  -5.100 -24.560  0.00  0.00    -0.466 OA
ATOM      2  N   UNL     1      31.877  -6.082 -22.333  0.00  0.00    -0.290 N 
ATOM      3  N   UNL     1      31.872  -8.815 -21.428  0.00  0.00    -0.288 N 
ATOM      4  N   UNL     1      31.092  -3.830 -22.181  0.00  0.00    -0.230 NA
ATOM      5  N   UNL     1      31.898  -2.081 -23.683  0.00  0.00    -0.245 NA
ATOM      6  C   UNL     1      31.602  -6.408 -20.930  0.00  0.00    +0.113 C 
ATOM      7  C   UNL     1      32.150  -7.182 -23.265  0.00  0.00    +0.113 C 
ATOM      8  C   UNL     1      32.263  -7.729 -20.542  0.00  0.00    +0.114 C 
ATOM      9  C   UNL     1      31.485  -8.472 -22.788  0.00  0.00    +0.114 C 
ATOM     10  C   UNL     1      31.875  -4.759 -22.772  0.00  0.00    +0.152 C 
ATOM     11  C   UNL     1      32.672  -4.351 -23.821  0.00  0.00    +0.258 C 
ATOM     12  C   UNL     1      32.673  -3.034 -24.257  0.00  0.00    +0.106 C 
ATOM     13  C   UNL     1      33.593  -2.968 -25.335  0.00  0.00    +0.051 C 
ATOM     14  C   UNL     1      34.092  -4.262 -25.480  0.00  0.00    +0.141 C 
ATOM     15  C   UNL     1      31.151  -2.566 -22.666  0.00  0.00    +0.251 C 
ATOM     16  C   UNL     1      34.061  -1.967 -26.203  0.00  0.00    +0.004 C 
ATOM     17  C   UNL     1      35.034  -4.630 -26.440  0.00  0.00    +0.037 C 
ATOM     18  C   UNL     1      35.008  -2.309 -27.178  0.00  0.00    +0.000 C 
ATOM     19  C   UNL     1      35.485  -3.617 -27.292  0.00  0.00    +0.003 C 
ENDROOT
BRANCH   3  21
ATOM     20  S   UNL     1      31.782 -10.472 -19.371  0.00  0.00    -0.019 S 
ATOM     21  C   UNL     1      31.869 -10.102 -21.000  0.00  0.00    +0.135 C 
BRANCH  21  22
ATOM     22  N   UNL     1      31.937 -11.090 -21.950  0.00  0.00    -0.312 N 
ATOM     23  H   UNL     1      31.184 -11.722 -21.992  0.00  0.00    +0.149 HD
BRANCH  22  24
ATOM     24  C   UNL     1      33.016 -11.289 -22.898  0.00  0.00    +0.116 C 
BRANCH  24  27
ATOM     25  O   UNL     1      34.017 -15.629 -25.028  0.00  0.00    -0.435 OA
ATOM     26  O   UNL     1      34.872 -16.568 -22.981  0.00  0.00    -0.435 OA
ATOM     27  C   UNL     1      33.522 -12.702 -22.885  0.00  0.00    +0.001 C 
ATOM     28  C   UNL     1      33.491 -13.452 -24.057  0.00  0.00    +0.038 C 
ATOM     29  C   UNL     1      34.018 -13.241 -21.690  0.00  0.00    +0.001 C 
ATOM     30  C   UNL     1      33.967 -14.745 -23.995  0.00  0.00    +0.176 C 
ATOM     31  C   UNL     1      34.456 -15.282 -22.826  0.00  0.00    +0.176 C 
ATOM     32  C   UNL     1      34.495 -14.553 -21.654  0.00  0.00    +0.040 C 
ATOM     33  C   UNL     1      34.592 -16.781 -24.379  0.00  0.00    +0.429 C 
ENDBRANCH  24  27
ENDBRANCH  22  24
ENDBRANCH  21  22
ENDBRANCH   3  21
TORSDOF 4
ENDMDL
MODEL 7
REMARK VINA RESULT:     -10.0      4.865     12.243
REMARK  Name = 11282283
REMARK  4 active torsions:
REMARK  status: ('A' for Active; 'I' for Inactive)
REMARK    1  A    between atoms: N_3  and  C_21
REMARK    2  A    between atoms: C_21  and  N_22
REMARK    3  A    between atoms: N_22  and  C_24
REMARK    4  A    between atoms: C_24  and  C_27
REMARK                            x       y       z     vdW  Elec       q    Type
REMARK                         _______ _______ _______ _____ _____    ______ ____
ROOT
ATOM      1  O   UNL     1      33.011 -22.721 -16.167  0.00  0.00    -0.466 OA
ATOM      2  N   UNL     1      35.614 -22.137 -17.409  0.00  0.00    -0.290 N 
ATOM      3  N   UNL     1      35.942 -20.447 -19.716  0.00  0.00    -0.288 N 
ATOM      4  N   UNL     1      36.522 -23.546 -15.705  0.00  0.00    -0.230 NA
ATOM      5  N   UNL     1      35.105 -24.616 -14.028  0.00  0.00    -0.245 NA
ATOM      6  C   UNL     1      36.845 -21.365 -17.604  0.00  0.00    +0.113 C 
ATOM      7  C   UNL     1      34.553 -22.028 -18.416  0.00  0.00    +0.113 C 
ATOM      8  C   UNL     1      36.574 -20.119 -18.446  0.00  0.00    +0.114 C 
ATOM      9  C   UNL     1      35.137 -21.657 -19.778  0.00  0.00    +0.114 C 
ATOM     10  C   UNL     1      35.456 -22.958 -16.294  0.00  0.00    +0.152 C 
ATOM     11  C   UNL     1      34.212 -23.198 -15.749  0.00  0.00    +0.258 C 
ATOM     12  C   UNL     1      34.055 -24.014 -14.638  0.00  0.00    +0.106 C 
ATOM     13  C   UNL     1      32.666 -24.040 -14.352  0.00  0.00    +0.051 C 
ATOM     14  C   UNL     1      32.070 -23.231 -15.319  0.00  0.00    +0.141 C 
ATOM     15  C   UNL     1      36.284 -24.328 -14.624  0.00  0.00    +0.251 C 
ATOM     16  C   UNL     1      31.844 -24.653 -13.391  0.00  0.00    +0.004 C 
ATOM     17  C   UNL     1      30.699 -22.988 -15.394  0.00  0.00    +0.037 C 
ATOM     18  C   UNL     1      30.462 -24.426 -13.442  0.00  0.00    +0.000 C 
ATOM     19  C   UNL     1      29.902 -23.608 -14.427  0.00  0.00    +0.003 C 
ENDROOT
BRANCH   3  21
ATOM     20  S   UNL     1      37.562 -18.907 -21.128  0.00  0.00    -0.019 S 
ATOM     21  C   UNL     1      36.098 -19.650 -20.803  0.00  0.00    +0.135 C 
BRANCH  21  22
ATOM     22  N   UNL     1      35.016 -19.477 -21.627  0.00  0.00    -0.312 N 
ATOM     23  H   UNL     1      34.132 -19.700 -21.257  0.00  0.00    +0.149 HD
BRANCH  22  24
ATOM     24  C   UNL     1      35.053 -18.995 -22.994  0.00  0.00    +0.116 C 
BRANCH  24  27
ATOM     25  O   UNL     1      33.672 -14.889 -25.363  0.00  0.00    -0.435 OA
ATOM     26  O   UNL     1      34.056 -13.505 -23.429  0.00  0.00    -0.435 OA
ATOM     27  C   UNL     1      34.796 -17.518 -23.076  0.00  0.00    +0.001 C 
ATOM     28  C   UNL     1      34.338 -16.968 -24.269  0.00  0.00    +0.038 C 
ATOM     29  C   UNL     1      35.021 -16.719 -21.947  0.00  0.00    +0.001 C 
ATOM     30  C   UNL     1      34.115 -15.606 -24.295  0.00  0.00    +0.176 C 
ATOM     31  C   UNL     1      34.335 -14.815 -23.190  0.00  0.00    +0.176 C 
ATOM     32  C   UNL     1      34.789 -15.344 -21.999  0.00  0.00    +0.040 C 
ATOM     33  C   UNL     1      33.636 -13.559 -24.807  0.00  0.00    +0.429 C 
ENDBRANCH  24  27
ENDBRANCH  22  24
ENDBRANCH  21  22
ENDBRANCH   3  21
TORSDOF 4
ENDMDL
MODEL 8
REMARK VINA RESULT:      -9.7      6.481     13.934
REMARK  Name = 11282283
REMARK  4 active torsions:
REMARK  status: ('A' for Active; 'I' for Inactive)
REMARK    1  A    between atoms: N_3  and  C_21
REMARK    2  A    between atoms: C_21  and  N_22
REMARK    3  A    between atoms: N_22  and  C_24
REMARK    4  A    between atoms: C_24  and  C_27
REMARK                            x       y       z     vdW  Elec       q    Type
REMARK                         _______ _______ _______ _____ _____    ______ ____
ROOT
ATOM      1  O   UNL     1      36.803 -25.464 -15.116  0.00  0.00    -0.466 OA
ATOM      2  N   UNL     1      34.919 -23.237 -15.498  0.00  0.00    -0.290 N 
ATOM      3  N   UNL     1      34.487 -21.922 -18.022  0.00  0.00    -0.288 N 
ATOM      4  N   UNL     1      34.459 -23.484 -13.166  0.00  0.00    -0.230 NA
ATOM      5  N   UNL     1      35.574 -25.179 -11.805  0.00  0.00    -0.245 NA
ATOM      6  C   UNL     1      33.618 -22.642 -15.821  0.00  0.00    +0.113 C 
ATOM      7  C   UNL     1      35.996 -23.146 -16.490  0.00  0.00    +0.113 C 
ATOM      8  C   UNL     1      33.402 -22.605 -17.333  0.00  0.00    +0.114 C 
ATOM      9  C   UNL     1      35.798 -21.929 -17.391  0.00  0.00    +0.114 C 
ATOM     10  C   UNL     1      35.129 -23.870 -14.274  0.00  0.00    +0.152 C 
ATOM     11  C   UNL     1      36.024 -24.912 -14.150  0.00  0.00    +0.258 C 
ATOM     12  C   UNL     1      36.232 -25.544 -12.932  0.00  0.00    +0.106 C 
ATOM     13  C   UNL     1      37.203 -26.553 -13.165  0.00  0.00    +0.051 C 
ATOM     14  C   UNL     1      37.520 -26.462 -14.520  0.00  0.00    +0.141 C 
ATOM     15  C   UNL     1      34.719 -24.153 -12.016  0.00  0.00    +0.251 C 
ATOM     16  C   UNL     1      37.849 -27.530 -12.388  0.00  0.00    +0.004 C 
ATOM     17  C   UNL     1      38.444 -27.286 -15.159  0.00  0.00    +0.037 C 
ATOM     18  C   UNL     1      38.784 -28.372 -13.006  0.00  0.00    +0.000 C 
ATOM     19  C   UNL     1      39.074 -28.250 -14.367  0.00  0.00    +0.003 C 
ENDROOT
BRANCH   3  21
ATOM     20  S   UNL     1      32.745 -20.859 -19.702  0.00  0.00    -0.019 S 
ATOM     21  C   UNL     1      34.282 -21.302 -19.211  0.00  0.00    +0.135 C 
BRANCH  21  22
ATOM     22  N   UNL     1      35.379 -21.048 -19.995  0.00  0.00    -0.312 N 
ATOM     23  H   UNL     1      35.755 -21.807 -20.496  0.00  0.00    +0.149 HD
BRANCH  22  24
ATOM     24  C   UNL     1      36.035 -19.765 -20.155  0.00  0.00    +0.116 C 
BRANCH  24  27
ATOM     25  O   UNL     1      35.324 -15.687 -22.847  0.00  0.00    -0.435 OA
ATOM     26  O   UNL     1      34.239 -16.906 -24.619  0.00  0.00    -0.435 OA
ATOM     27  C   UNL     1      35.541 -19.029 -21.367  0.00  0.00    +0.001 C 
ATOM     28  C   UNL     1      35.717 -17.651 -21.451  0.00  0.00    +0.038 C 
ATOM     29  C   UNL     1      34.912 -19.745 -22.394  0.00  0.00    +0.001 C 
ATOM     30  C   UNL     1      35.247 -17.020 -22.584  0.00  0.00    +0.176 C 
ATOM     31  C   UNL     1      34.628 -17.716 -23.597  0.00  0.00    +0.176 C 
ATOM     32  C   UNL     1      34.444 -19.083 -23.531  0.00  0.00    +0.040 C 
ATOM     33  C   UNL     1      34.685 -15.623 -24.138  0.00  0.00    +0.429 C 
ENDBRANCH  24  27
ENDBRANCH  22  24
ENDBRANCH  21  22
ENDBRANCH   3  21
TORSDOF 4
ENDMDL
MODEL 9
REMARK VINA RESULT:      -9.7      3.137      5.105
REMARK  Name = 11282283
REMARK  4 active torsions:
REMARK  status: ('A' for Active; 'I' for Inactive)
REMARK    1  A    between atoms: N_3  and  C_21
REMARK    2  A    between atoms: C_21  and  N_22
REMARK    3  A    between atoms: N_22  and  C_24
REMARK    4  A    between atoms: C_24  and  C_27
REMARK                            x       y       z     vdW  Elec       q    Type
REMARK                         _______ _______ _______ _____ _____    ______ ____
ROOT
ATOM      1  O   UNL     1      33.319 -14.125 -21.463  0.00  0.00    -0.466 OA
ATOM      2  N   UNL     1      34.561 -16.500 -22.678  0.00  0.00    -0.290 N 
ATOM      3  N   UNL     1      35.277 -18.863 -21.199  0.00  0.00    -0.288 N 
ATOM      4  N   UNL     1      34.443 -15.272 -24.725  0.00  0.00    -0.230 NA
ATOM      5  N   UNL     1      33.505 -13.020 -24.824  0.00  0.00    -0.245 NA
ATOM      6  C   UNL     1      34.551 -17.818 -23.319  0.00  0.00    +0.113 C 
ATOM      7  C   UNL     1      34.944 -16.413 -21.264  0.00  0.00    +0.113 C 
ATOM      8  C   UNL     1      34.314 -18.920 -22.288  0.00  0.00    +0.114 C 
ATOM      9  C   UNL     1      35.865 -17.570 -20.882  0.00  0.00    +0.114 C 
ATOM     10  C   UNL     1      34.218 -15.355 -23.395  0.00  0.00    +0.152 C 
ATOM     11  C   UNL     1      33.635 -14.269 -22.776  0.00  0.00    +0.258 C 
ATOM     12  C   UNL     1      33.291 -13.130 -23.490  0.00  0.00    +0.106 C 
ATOM     13  C   UNL     1      32.725 -12.226 -22.554  0.00  0.00    +0.051 C 
ATOM     14  C   UNL     1      32.765 -12.885 -21.326  0.00  0.00    +0.141 C 
ATOM     15  C   UNL     1      34.077 -14.126 -25.349  0.00  0.00    +0.251 C 
ATOM     16  C   UNL     1      32.184 -10.929 -22.604  0.00  0.00    +0.004 C 
ATOM     17  C   UNL     1      32.298 -12.335 -20.133  0.00  0.00    +0.037 C 
ATOM     18  C   UNL     1      31.708 -10.352 -21.419  0.00  0.00    +0.000 C 
ATOM     19  C   UNL     1      31.765 -11.045 -20.206  0.00  0.00    +0.003 C 
ENDROOT
BRANCH   3  21
ATOM     20  S   UNL     1      37.120 -20.128 -19.787  0.00  0.00    -0.019 S 
ATOM     21  C   UNL     1      35.616 -19.978 -20.503  0.00  0.00    +0.135 C 
BRANCH  21  22
ATOM     22  N   UNL     1      34.680 -20.977 -20.406  0.00  0.00    -0.312 N 
ATOM     23  H   UNL     1      34.867 -21.813 -20.891  0.00  0.00    +0.149 HD
BRANCH  22  24
ATOM     24  C   UNL     1      33.443 -20.916 -19.653  0.00  0.00    +0.116 C 
BRANCH  24  27
ATOM     25  O   UNL     1      35.854 -23.216 -16.010  0.00  0.00    -0.435 OA
ATOM     26  O   UNL     1      33.813 -23.987 -14.989  0.00  0.00    -0.435 OA
ATOM     27  C   UNL     1      33.506 -21.742 -18.401  0.00  0.00    +0.001 C 
ATOM     28  C   UNL     1      34.743 -22.051 -17.846  0.00  0.00    +0.038 C 
ATOM     29  C   UNL     1      32.314 -22.186 -17.812  0.00  0.00    +0.001 C 
ATOM     30  C   UNL     1      34.750 -22.812 -16.695  0.00  0.00    +0.176 C 
ATOM     31  C   UNL     1      33.584 -23.253 -16.111  0.00  0.00    +0.176 C 
ATOM     32  C   UNL     1      32.347 -22.956 -16.648  0.00  0.00    +0.040 C 
ATOM     33  C   UNL     1      35.253 -23.959 -14.930  0.00  0.00    +0.429 C 
ENDBRANCH  24  27
ENDBRANCH  22  24
ENDBRANCH  21  22
ENDBRANCH   3  21
TORSDOF 4
ENDMDL
