MODEL 1
REMARK VINA RESULT:     -13.7      0.000      0.000
REMARK  Name = 89670174
REMARK  4 active torsions:
REMARK  status: ('A' for Active; 'I' for Inactive)
REMARK    1  A    between atoms: C_3  and  C_13
REMARK    2  A    between atoms: C_9  and  O_26
REMARK    3  A    between atoms: C_18  and  C_25
REMARK    4  A    between atoms: O_26  and  C_30
REMARK                            x       y       z     vdW  Elec       q    Type
REMARK                         _______ _______ _______ _____ _____    ______ ____
ROOT
ATOM      1  O   UNL     1      34.626 -19.452 -23.449  0.00  0.00    -0.479 OA
ATOM      2  C   UNL     1      35.565 -18.600 -21.359  0.00  0.00    +0.072 C 
ATOM      3  C   UNL     1      34.535 -19.615 -20.889  0.00  0.00    +0.085 C 
ATOM      4  C   UNL     1      35.280 -19.848 -22.186  0.00  0.00    +0.174 C 
ATOM      5  C   UNL     1      35.175 -17.514 -22.294  0.00  0.00    +0.018 C 
ATOM      6  C   UNL     1      34.655 -18.067 -23.472  0.00  0.00    +0.135 C 
ATOM      7  C   UNL     1      35.252 -16.136 -22.165  0.00  0.00    +0.036 C 
ATOM      8  C   UNL     1      34.203 -17.297 -24.526  0.00  0.00    +0.040 C 
ATOM      9  C   UNL     1      34.803 -15.335 -23.220  0.00  0.00    +0.145 C 
ATOM     10  C   UNL     1      34.283 -15.912 -24.392  0.00  0.00    +0.041 C 
ENDROOT
BRANCH   3  13
ATOM     11  N   UNL     1      36.060 -20.561 -19.084  0.00  0.00    -0.318 N 
ATOM     12  N   UNL     1      33.943 -21.237 -19.086  0.00  0.00    -0.318 N 
ATOM     13  C   UNL     1      34.833 -20.478 -19.682  0.00  0.00    +0.148 C 
ATOM     14  C   UNL     1      35.953 -21.432 -18.030  0.00  0.00    +0.059 C 
ATOM     15  C   UNL     1      34.623 -21.840 -18.051  0.00  0.00    +0.059 C 
ATOM     16  C   UNL     1      36.879 -21.884 -17.088  0.00  0.00    +0.019 C 
ATOM     17  C   UNL     1      34.170 -22.753 -17.084  0.00  0.00    +0.016 C 
ATOM     18  C   UNL     1      36.411 -22.793 -16.132  0.00  0.00    +0.073 C 
ATOM     19  C   UNL     1      35.082 -23.220 -16.129  0.00  0.00    +0.005 C 
ATOM     20  H   UNL     1      36.874 -20.081 -19.360  0.00  0.00    +0.148 HD
ATOM     21  H   UNL     1      32.994 -21.351 -19.325  0.00  0.00    +0.148 HD
BRANCH  18  25
ATOM     22  F   UNL     1      37.271 -22.647 -13.906  0.00  0.00    -0.166 F 
ATOM     23  F   UNL     1      37.156 -24.625 -14.787  0.00  0.00    -0.166 F 
ATOM     24  F   UNL     1      38.658 -23.215 -15.481  0.00  0.00    -0.166 F 
ATOM     25  C   UNL     1      37.353 -23.310 -15.096  0.00  0.00    +0.419 C 
ENDBRANCH  18  25
ENDBRANCH   3  13
BRANCH   9  26
ATOM     26  O   UNL     1      34.870 -13.957 -23.109  0.00  0.00    -0.454 OA
BRANCH  26  30
ATOM     27  O   UNL     1      32.020  -8.305 -23.433  0.00  0.00    -0.275 OA
ATOM     28  N   UNL     1      31.979 -10.221 -22.168  0.00  0.00    -0.270 N 
ATOM     29  N   UNL     1      31.949 -12.138 -20.782  0.00  0.00    -0.229 NA
ATOM     30  C   UNL     1      33.927 -13.337 -22.346  0.00  0.00    +0.146 C 
ATOM     31  C   UNL     1      33.465 -12.058 -22.663  0.00  0.00    +0.045 C 
ATOM     32  C   UNL     1      33.921 -11.345 -23.899  0.00  0.00    +0.042 C 
ATOM     33  C   UNL     1      33.414 -14.004 -21.239  0.00  0.00    +0.058 C 
ATOM     34  C   UNL     1      32.479 -11.499 -21.852  0.00  0.00    +0.133 C 
ATOM     35  C   UNL     1      33.843  -9.838 -23.712  0.00  0.00    +0.090 C 
ATOM     36  C   UNL     1      32.518  -9.389 -23.128  0.00  0.00    +0.227 C 
ATOM     37  C   UNL     1      32.433 -13.368 -20.500  0.00  0.00    +0.103 C 
ATOM     38  H   UNL     1      31.193  -9.899 -21.671  0.00  0.00    +0.156 HD
ENDBRANCH  26  30
ENDBRANCH   9  26
TORSDOF 4
ENDMDL
MODEL 2
REMARK VINA RESULT:     -13.3      1.941      2.553
REMARK  Name = 89670174
REMARK  4 active torsions:
REMARK  status: ('A' for Active; 'I' for Inactive)
REMARK    1  A    between atoms: C_3  and  C_13
REMARK    2  A    between atoms: C_9  and  O_26
REMARK    3  A    between atoms: C_18  and  C_25
REMARK    4  A    between atoms: O_26  and  C_30
REMARK                            x       y       z     vdW  Elec       q    Type
REMARK                         _______ _______ _______ _____ _____    ______ ____
ROOT
ATOM      1  O   UNL     1      34.565 -19.581 -23.354  0.00  0.00    -0.479 OA
ATOM      2  C   UNL     1      34.933 -18.812 -21.063  0.00  0.00    +0.072 C 
ATOM      3  C   UNL     1      33.753 -19.762 -20.926  0.00  0.00    +0.085 C 
ATOM      4  C   UNL     1      34.815 -20.031 -21.970  0.00  0.00    +0.174 C 
ATOM      5  C   UNL     1      34.886 -17.694 -22.039  0.00  0.00    +0.018 C 
ATOM      6  C   UNL     1      34.683 -18.200 -23.330  0.00  0.00    +0.135 C 
ATOM      7  C   UNL     1      35.007 -16.325 -21.855  0.00  0.00    +0.036 C 
ATOM      8  C   UNL     1      34.591 -17.391 -24.446  0.00  0.00    +0.040 C 
ATOM      9  C   UNL     1      34.920 -15.486 -22.971  0.00  0.00    +0.145 C 
ATOM     10  C   UNL     1      34.714 -16.016 -24.256  0.00  0.00    +0.041 C 
ENDROOT
BRANCH   3  13
ATOM     11  N   UNL     1      32.471 -20.975 -19.092  0.00  0.00    -0.318 N 
ATOM     12  N   UNL     1      34.682 -21.210 -19.116  0.00  0.00    -0.318 N 
ATOM     13  C   UNL     1      33.649 -20.654 -19.708  0.00  0.00    +0.148 C 
ATOM     14  C   UNL     1      32.764 -21.795 -18.032  0.00  0.00    +0.059 C 
ATOM     15  C   UNL     1      34.149 -21.927 -18.068  0.00  0.00    +0.059 C 
ATOM     16  C   UNL     1      31.959 -22.413 -17.074  0.00  0.00    +0.019 C 
ATOM     17  C   UNL     1      34.787 -22.718 -17.099  0.00  0.00    +0.016 C 
ATOM     18  C   UNL     1      32.611 -23.197 -16.116  0.00  0.00    +0.073 C 
ATOM     19  C   UNL     1      33.999 -23.348 -16.127  0.00  0.00    +0.005 C 
ATOM     20  H   UNL     1      31.574 -20.673 -19.362  0.00  0.00    +0.148 HD
ATOM     21  H   UNL     1      35.630 -21.133 -19.367  0.00  0.00    +0.148 HD
BRANCH  18  25
ATOM     22  F   UNL     1      30.810 -24.674 -15.572  0.00  0.00    -0.166 F 
ATOM     23  F   UNL     1      32.541 -24.712 -14.266  0.00  0.00    -0.166 F 
ATOM     24  F   UNL     1      31.188 -23.011 -14.222  0.00  0.00    -0.166 F 
ATOM     25  C   UNL     1      31.805 -23.887 -15.066  0.00  0.00    +0.419 C 
ENDBRANCH  18  25
ENDBRANCH   3  13
BRANCH   9  26
ATOM     26  O   UNL     1      35.037 -14.117 -22.808  0.00  0.00    -0.454 OA
BRANCH  26  30
ATOM     27  O   UNL     1      32.168  -8.517 -23.566  0.00  0.00    -0.275 OA
ATOM     28  N   UNL     1      32.064 -10.374 -22.219  0.00  0.00    -0.270 N 
ATOM     29  N   UNL     1      31.963 -12.226 -20.750  0.00  0.00    -0.229 NA
ATOM     30  C   UNL     1      34.044 -13.473 -22.133  0.00  0.00    +0.146 C 
ATOM     31  C   UNL     1      33.592 -12.215 -22.537  0.00  0.00    +0.045 C 
ATOM     32  C   UNL     1      34.118 -11.554 -23.773  0.00  0.00    +0.042 C 
ATOM     33  C   UNL     1      33.469 -14.094 -21.030  0.00  0.00    +0.058 C 
ATOM     34  C   UNL     1      32.553 -11.630 -21.814  0.00  0.00    +0.133 C 
ATOM     35  C   UNL     1      34.016 -10.041 -23.662  0.00  0.00    +0.090 C 
ATOM     36  C   UNL     1      32.654  -9.580 -23.182  0.00  0.00    +0.227 C 
ATOM     37  C   UNL     1      32.439 -13.436 -20.383  0.00  0.00    +0.103 C 
ATOM     38  H   UNL     1      31.246 -10.038 -21.786  0.00  0.00    +0.156 HD
ENDBRANCH  26  30
ENDBRANCH   9  26
TORSDOF 4
ENDMDL
MODEL 3
REMARK VINA RESULT:     -12.9      3.190      5.594
REMARK  Name = 89670174
REMARK  4 active torsions:
REMARK  status: ('A' for Active; 'I' for Inactive)
REMARK    1  A    between atoms: C_3  and  C_13
REMARK    2  A    between atoms: C_9  and  O_26
REMARK    3  A    between atoms: C_18  and  C_25
REMARK    4  A    between atoms: O_26  and  C_30
REMARK                            x       y       z     vdW  Elec       q    Type
REMARK                         _______ _______ _______ _____ _____    ______ ____
ROOT
ATOM      1  O   UNL     1      32.449 -22.215 -18.069  0.00  0.00    -0.479 OA
ATOM      2  C   UNL     1      34.849 -22.652 -17.907  0.00  0.00    +0.072 C 
ATOM      3  C   UNL     1      34.425 -22.496 -16.455  0.00  0.00    +0.085 C 
ATOM      4  C   UNL     1      33.463 -23.097 -17.456  0.00  0.00    +0.174 C 
ATOM      5  C   UNL     1      34.527 -21.595 -18.899  0.00  0.00    +0.018 C 
ATOM      6  C   UNL     1      33.140 -21.401 -18.952  0.00  0.00    +0.135 C 
ATOM      7  C   UNL     1      35.353 -20.838 -19.716  0.00  0.00    +0.036 C 
ATOM      8  C   UNL     1      32.544 -20.474 -19.784  0.00  0.00    +0.040 C 
ATOM      9  C   UNL     1      34.772 -19.895 -20.570  0.00  0.00    +0.145 C 
ATOM     10  C   UNL     1      33.378 -19.715 -20.604  0.00  0.00    +0.041 C 
ENDROOT
BRANCH   3  13
ATOM     11  N   UNL     1      35.499 -24.645 -15.616  0.00  0.00    -0.318 N 
ATOM     12  N   UNL     1      35.239 -22.997 -14.148  0.00  0.00    -0.318 N 
ATOM     13  C   UNL     1      35.055 -23.371 -15.394  0.00  0.00    +0.148 C 
ATOM     14  C   UNL     1      36.004 -25.124 -14.435  0.00  0.00    +0.059 C 
ATOM     15  C   UNL     1      35.831 -24.078 -13.534  0.00  0.00    +0.059 C 
ATOM     16  C   UNL     1      36.581 -26.347 -14.087  0.00  0.00    +0.019 C 
ATOM     17  C   UNL     1      36.251 -24.242 -12.204  0.00  0.00    +0.016 C 
ATOM     18  C   UNL     1      36.993 -26.494 -12.759  0.00  0.00    +0.073 C 
ATOM     19  C   UNL     1      36.832 -25.461 -11.832  0.00  0.00    +0.005 C 
ATOM     20  H   UNL     1      35.463 -25.132 -16.471  0.00  0.00    +0.148 HD
ATOM     21  H   UNL     1      35.005 -22.131 -13.741  0.00  0.00    +0.148 HD
BRANCH  18  25
ATOM     22  F   UNL     1      37.798 -27.869 -10.976  0.00  0.00    -0.166 F 
ATOM     23  F   UNL     1      36.892 -28.882 -12.666  0.00  0.00    -0.166 F 
ATOM     24  F   UNL     1      38.854 -27.968 -12.874  0.00  0.00    -0.166 F 
ATOM     25  C   UNL     1      37.619 -27.778 -12.326  0.00  0.00    +0.419 C 
ENDBRANCH  18  25
ENDBRANCH   3  13
BRANCH   9  26
ATOM     26  O   UNL     1      35.579 -19.128 -21.392  0.00  0.00    -0.454 OA
BRANCH  26  30
ATOM     27  O   UNL     1      34.310 -13.183 -23.189  0.00  0.00    -0.275 OA
ATOM     28  N   UNL     1      34.160 -15.330 -23.992  0.00  0.00    -0.270 N 
ATOM     29  N   UNL     1      33.908 -17.524 -24.841  0.00  0.00    -0.229 NA
ATOM     30  C   UNL     1      35.014 -18.585 -22.507  0.00  0.00    +0.146 C 
ATOM     31  C   UNL     1      34.861 -17.204 -22.642  0.00  0.00    +0.045 C 
ATOM     32  C   UNL     1      35.381 -16.253 -21.608  0.00  0.00    +0.042 C 
ATOM     33  C   UNL     1      34.598 -19.431 -23.529  0.00  0.00    +0.058 C 
ATOM     34  C   UNL     1      34.301 -16.720 -23.823  0.00  0.00    +0.133 C 
ATOM     35  C   UNL     1      34.576 -14.964 -21.605  0.00  0.00    +0.090 C 
ATOM     36  C   UNL     1      34.373 -14.398 -22.996  0.00  0.00    +0.227 C 
ATOM     37  C   UNL     1      34.060 -18.855 -24.665  0.00  0.00    +0.103 C 
ATOM     38  H   UNL     1      33.892 -14.999 -24.880  0.00  0.00    +0.156 HD
ENDBRANCH  26  30
ENDBRANCH   9  26
TORSDOF 4
ENDMDL
MODEL 4
REMARK VINA RESULT:     -12.7      5.863     11.460
REMARK  Name = 89670174
REMARK  4 active torsions:
REMARK  status: ('A' for Active; 'I' for Inactive)
REMARK    1  A    between atoms: C_3  and  C_13
REMARK    2  A    between atoms: C_9  and  O_26
REMARK    3  A    between atoms: C_18  and  C_25
REMARK    4  A    between atoms: O_26  and  C_30
REMARK                            x       y       z     vdW  Elec       q    Type
REMARK                         _______ _______ _______ _____ _____    ______ ____
ROOT
ATOM      1  O   UNL     1      37.086 -19.467 -20.707  0.00  0.00    -0.479 OA
ATOM      2  C   UNL     1      34.757 -18.948 -21.240  0.00  0.00    +0.072 C 
ATOM      3  C   UNL     1      35.369 -17.580 -20.984  0.00  0.00    +0.085 C 
ATOM      4  C   UNL     1      36.213 -18.675 -21.597  0.00  0.00    +0.174 C 
ATOM      5  C   UNL     1      34.884 -20.027 -20.228  0.00  0.00    +0.018 C 
ATOM      6  C   UNL     1      36.238 -20.283 -19.975  0.00  0.00    +0.135 C 
ATOM      7  C   UNL     1      33.916 -20.756 -19.555  0.00  0.00    +0.036 C 
ATOM      8  C   UNL     1      36.665 -21.236 -19.071  0.00  0.00    +0.040 C 
ATOM      9  C   UNL     1      34.324 -21.730 -18.637  0.00  0.00    +0.145 C 
ATOM     10  C   UNL     1      35.688 -21.968 -18.397  0.00  0.00    +0.041 C 
ENDROOT
BRANCH   3  13
ATOM     11  N   UNL     1      34.861 -15.114 -21.362  0.00  0.00    -0.318 N 
ATOM     12  N   UNL     1      34.589 -16.487 -23.089  0.00  0.00    -0.318 N 
ATOM     13  C   UNL     1      34.937 -16.399 -21.825  0.00  0.00    +0.148 C 
ATOM     14  C   UNL     1      34.436 -14.321 -22.396  0.00  0.00    +0.059 C 
ATOM     15  C   UNL     1      34.274 -15.200 -23.463  0.00  0.00    +0.059 C 
ATOM     16  C   UNL     1      34.187 -12.950 -22.487  0.00  0.00    +0.019 C 
ATOM     17  C   UNL     1      33.838 -14.700 -24.702  0.00  0.00    +0.016 C 
ATOM     18  C   UNL     1      33.754 -12.470 -23.728  0.00  0.00    +0.073 C 
ATOM     19  C   UNL     1      33.583 -13.328 -24.817  0.00  0.00    +0.005 C 
ATOM     20  H   UNL     1      35.072 -14.814 -20.449  0.00  0.00    +0.148 HD
ATOM     21  H   UNL     1      34.561 -17.296 -23.649  0.00  0.00    +0.148 HD
BRANCH  18  25
ATOM     22  F   UNL     1      32.487 -10.554 -23.066  0.00  0.00    -0.166 F 
ATOM     23  F   UNL     1      34.553 -10.218 -23.632  0.00  0.00    -0.166 F 
ATOM     24  F   UNL     1      33.075 -10.695 -25.154  0.00  0.00    -0.166 F 
ATOM     25  C   UNL     1      33.474 -11.013 -23.889  0.00  0.00    +0.419 C 
ENDBRANCH  18  25
ENDBRANCH   3  13
BRANCH   9  26
ATOM     26  O   UNL     1      33.372 -22.467 -17.954  0.00  0.00    -0.454 OA
BRANCH  26  30
ATOM     27  O   UNL     1      29.800 -24.348 -13.068  0.00  0.00    -0.275 OA
ATOM     28  N   UNL     1      32.009 -24.021 -13.604  0.00  0.00    -0.270 N 
ATOM     29  N   UNL     1      34.294 -23.627 -14.073  0.00  0.00    -0.229 NA
ATOM     30  C   UNL     1      33.654 -22.831 -16.671  0.00  0.00    +0.146 C 
ATOM     31  C   UNL     1      32.642 -23.217 -15.790  0.00  0.00    +0.045 C 
ATOM     32  C   UNL     1      31.216 -23.327 -16.234  0.00  0.00    +0.042 C 
ATOM     33  C   UNL     1      34.978 -22.826 -16.247  0.00  0.00    +0.058 C 
ATOM     34  C   UNL     1      33.009 -23.603 -14.502  0.00  0.00    +0.133 C 
ATOM     35  C   UNL     1      30.268 -23.108 -15.066  0.00  0.00    +0.090 C 
ATOM     36  C   UNL     1      30.653 -23.911 -13.840  0.00  0.00    +0.227 C 
ATOM     37  C   UNL     1      35.242 -23.233 -14.952  0.00  0.00    +0.103 C 
ATOM     38  H   UNL     1      32.295 -24.418 -12.749  0.00  0.00    +0.156 HD
ENDBRANCH  26  30
ENDBRANCH   9  26
TORSDOF 4
ENDMDL
MODEL 5
REMARK VINA RESULT:     -12.2      5.776     11.386
REMARK  Name = 89670174
REMARK  4 active torsions:
REMARK  status: ('A' for Active; 'I' for Inactive)
REMARK    1  A    between atoms: C_3  and  C_13
REMARK    2  A    between atoms: C_9  and  O_26
REMARK    3  A    between atoms: C_18  and  C_25
REMARK    4  A    between atoms: O_26  and  C_30
REMARK                            x       y       z     vdW  Elec       q    Type
REMARK                         _______ _______ _______ _____ _____    ______ ____
ROOT
ATOM      1  O   UNL     1      37.312 -19.385 -19.546  0.00  0.00    -0.479 OA
ATOM      2  C   UNL     1      35.273 -19.436 -20.893  0.00  0.00    +0.072 C 
ATOM      3  C   UNL     1      35.402 -17.969 -20.512  0.00  0.00    +0.085 C 
ATOM      4  C   UNL     1      36.648 -18.800 -20.728  0.00  0.00    +0.174 C 
ATOM      5  C   UNL     1      35.290 -20.487 -19.844  0.00  0.00    +0.018 C 
ATOM      6  C   UNL     1      36.485 -20.412 -19.117  0.00  0.00    +0.135 C 
ATOM      7  C   UNL     1      34.354 -21.456 -19.518  0.00  0.00    +0.036 C 
ATOM      8  C   UNL     1      36.781 -21.263 -18.070  0.00  0.00    +0.040 C 
ATOM      9  C   UNL     1      34.633 -22.333 -18.463  0.00  0.00    +0.145 C 
ATOM     10  C   UNL     1      35.837 -22.236 -17.745  0.00  0.00    +0.041 C 
ENDROOT
BRANCH   3  13
ATOM     11  N   UNL     1      34.907 -15.573 -21.210  0.00  0.00    -0.318 N 
ATOM     12  N   UNL     1      34.767 -17.140 -22.780  0.00  0.00    -0.318 N 
ATOM     13  C   UNL     1      35.024 -16.901 -21.514  0.00  0.00    +0.148 C 
ATOM     14  C   UNL     1      34.552 -14.911 -22.358  0.00  0.00    +0.059 C 
ATOM     15  C   UNL     1      34.472 -15.910 -23.324  0.00  0.00    +0.059 C 
ATOM     16  C   UNL     1      34.302 -13.564 -22.626  0.00  0.00    +0.019 C 
ATOM     17  C   UNL     1      34.122 -15.565 -24.640  0.00  0.00    +0.016 C 
ATOM     18  C   UNL     1      33.955 -13.238 -23.942  0.00  0.00    +0.073 C 
ATOM     19  C   UNL     1      33.867 -14.220 -24.932  0.00  0.00    +0.005 C 
ATOM     20  H   UNL     1      35.051 -15.164 -20.327  0.00  0.00    +0.148 HD
ATOM     21  H   UNL     1      34.784 -18.010 -23.241  0.00  0.00    +0.148 HD
BRANCH  18  25
ATOM     22  F   UNL     1      34.799 -11.033 -24.323  0.00  0.00    -0.166 F 
ATOM     23  F   UNL     1      33.099 -11.655 -25.517  0.00  0.00    -0.166 F 
ATOM     24  F   UNL     1      32.836 -11.212 -23.405  0.00  0.00    -0.166 F 
ATOM     25  C   UNL     1      33.679 -11.814 -24.292  0.00  0.00    +0.419 C 
ENDBRANCH  18  25
ENDBRANCH   3  13
BRANCH   9  26
ATOM     26  O   UNL     1      33.711 -23.306 -18.121  0.00  0.00    -0.454 OA
BRANCH  26  30
ATOM     27  O   UNL     1      34.644 -24.221 -11.919  0.00  0.00    -0.275 OA
ATOM     28  N   UNL     1      33.057 -23.378 -13.349  0.00  0.00    -0.270 N 
ATOM     29  N   UNL     1      31.355 -22.570 -14.779  0.00  0.00    -0.229 NA
ATOM     30  C   UNL     1      32.944 -23.091 -17.015  0.00  0.00    +0.146 C 
ATOM     31  C   UNL     1      33.419 -23.386 -15.736  0.00  0.00    +0.045 C 
ATOM     32  C   UNL     1      34.818 -23.875 -15.514  0.00  0.00    +0.042 C 
ATOM     33  C   UNL     1      31.671 -22.554 -17.174  0.00  0.00    +0.058 C 
ATOM     34  C   UNL     1      32.589 -23.112 -14.650  0.00  0.00    +0.133 C 
ATOM     35  C   UNL     1      34.901 -24.717 -14.251  0.00  0.00    +0.090 C 
ATOM     36  C   UNL     1      34.222 -24.062 -13.065  0.00  0.00    +0.227 C 
ATOM     37  C   UNL     1      30.926 -22.312 -16.035  0.00  0.00    +0.103 C 
ATOM     38  H   UNL     1      32.518 -23.055 -12.592  0.00  0.00    +0.156 HD
ENDBRANCH  26  30
ENDBRANCH   9  26
TORSDOF 4
ENDMDL
MODEL 6
REMARK VINA RESULT:     -12.0      5.089      8.964
REMARK  Name = 89670174
REMARK  4 active torsions:
REMARK  status: ('A' for Active; 'I' for Inactive)
REMARK    1  A    between atoms: C_3  and  C_13
REMARK    2  A    between atoms: C_9  and  O_26
REMARK    3  A    between atoms: C_18  and  C_25
REMARK    4  A    between atoms: O_26  and  C_30
REMARK                            x       y       z     vdW  Elec       q    Type
REMARK                         _______ _______ _______ _____ _____    ______ ____
ROOT
ATOM      1  O   UNL     1      31.559  -9.984 -21.044  0.00  0.00    -0.479 OA
ATOM      2  C   UNL     1      32.987 -10.510 -22.958  0.00  0.00    +0.072 C 
ATOM      3  C   UNL     1      33.407 -11.536 -21.917  0.00  0.00    +0.085 C 
ATOM      4  C   UNL     1      31.971 -11.062 -21.965  0.00  0.00    +0.174 C 
ATOM      5  C   UNL     1      32.988  -9.062 -22.626  0.00  0.00    +0.018 C 
ATOM      6  C   UNL     1      32.146  -8.826 -21.531  0.00  0.00    +0.135 C 
ATOM      7  C   UNL     1      33.659  -8.000 -23.211  0.00  0.00    +0.036 C 
ATOM      8  C   UNL     1      31.951  -7.569 -20.993  0.00  0.00    +0.040 C 
ATOM      9  C   UNL     1      33.475  -6.716 -22.685  0.00  0.00    +0.145 C 
ATOM     10  C   UNL     1      32.627  -6.503 -21.584  0.00  0.00    +0.041 C 
ENDROOT
BRANCH   3  13
ATOM     11  N   UNL     1      34.322 -13.880 -21.535  0.00  0.00    -0.318 N 
ATOM     12  N   UNL     1      33.542 -13.409 -23.563  0.00  0.00    -0.318 N 
ATOM     13  C   UNL     1      33.753 -12.944 -22.353  0.00  0.00    +0.148 C 
ATOM     14  C   UNL     1      34.489 -15.028 -22.267  0.00  0.00    +0.059 C 
ATOM     15  C   UNL     1      33.994 -14.709 -23.529  0.00  0.00    +0.059 C 
ATOM     16  C   UNL     1      35.014 -16.280 -21.943  0.00  0.00    +0.019 C 
ATOM     17  C   UNL     1      34.017 -15.684 -24.540  0.00  0.00    +0.016 C 
ATOM     18  C   UNL     1      35.029 -17.239 -22.962  0.00  0.00    +0.073 C 
ATOM     19  C   UNL     1      34.540 -16.948 -24.238  0.00  0.00    +0.005 C 
ATOM     20  H   UNL     1      34.568 -13.754 -20.590  0.00  0.00    +0.148 HD
ATOM     21  H   UNL     1      33.146 -12.933 -24.328  0.00  0.00    +0.148 HD
BRANCH  18  25
ATOM     22  F   UNL     1      35.236 -19.530 -23.615  0.00  0.00    -0.166 F 
ATOM     23  F   UNL     1      36.939 -18.636 -22.614  0.00  0.00    -0.166 F 
ATOM     24  F   UNL     1      35.138 -19.098 -21.486  0.00  0.00    -0.166 F 
ATOM     25  C   UNL     1      35.576 -18.598 -22.677  0.00  0.00    +0.419 C 
ENDBRANCH  18  25
ENDBRANCH   3  13
BRANCH   9  26
ATOM     26  O   UNL     1      34.137  -5.643 -23.254  0.00  0.00    -0.454 OA
BRANCH  26  30
ATOM     27  O   UNL     1      35.548  -3.447 -29.030  0.00  0.00    -0.275 OA
ATOM     28  N   UNL     1      33.801  -3.471 -27.540  0.00  0.00    -0.270 N 
ATOM     29  N   UNL     1      31.995  -3.395 -26.014  0.00  0.00    -0.229 NA
ATOM     30  C   UNL     1      33.457  -4.889 -24.163  0.00  0.00    +0.146 C 
ATOM     31  C   UNL     1      34.025  -4.551 -25.393  0.00  0.00    +0.045 C 
ATOM     32  C   UNL     1      35.370  -5.067 -25.803  0.00  0.00    +0.042 C 
ATOM     33  C   UNL     1      32.170  -4.465 -23.855  0.00  0.00    +0.058 C 
ATOM     34  C   UNL     1      33.258  -3.802 -26.284  0.00  0.00    +0.133 C 
ATOM     35  C   UNL     1      36.040  -4.114 -26.780  0.00  0.00    +0.090 C 
ATOM     36  C   UNL     1      35.116  -3.682 -27.901  0.00  0.00    +0.227 C 
ATOM     37  C   UNL     1      31.487  -3.731 -24.807  0.00  0.00    +0.103 C 
ATOM     38  H   UNL     1      33.202  -3.062 -28.206  0.00  0.00    +0.156 HD
ENDBRANCH  26  30
ENDBRANCH   9  26
TORSDOF 4
ENDMDL
MODEL 7
REMARK VINA RESULT:     -11.7      3.171      5.381
REMARK  Name = 89670174
REMARK  4 active torsions:
REMARK  status: ('A' for Active; 'I' for Inactive)
REMARK    1  A    between atoms: C_3  and  C_13
REMARK    2  A    between atoms: C_9  and  O_26
REMARK    3  A    between atoms: C_18  and  C_25
REMARK    4  A    between atoms: O_26  and  C_30
REMARK                            x       y       z     vdW  Elec       q    Type
REMARK                         _______ _______ _______ _____ _____    ______ ____
ROOT
ATOM      1  O   UNL     1      32.446 -22.295 -18.518  0.00  0.00    -0.479 OA
ATOM      2  C   UNL     1      34.834 -22.363 -17.996  0.00  0.00    +0.072 C 
ATOM      3  C   UNL     1      34.182 -22.226 -16.629  0.00  0.00    +0.085 C 
ATOM      4  C   UNL     1      33.474 -22.996 -17.722  0.00  0.00    +0.174 C 
ATOM      5  C   UNL     1      34.514 -21.399 -19.079  0.00  0.00    +0.018 C 
ATOM      6  C   UNL     1      33.136 -21.415 -19.337  0.00  0.00    +0.135 C 
ATOM      7  C   UNL     1      35.334 -20.553 -19.810  0.00  0.00    +0.036 C 
ATOM      8  C   UNL     1      32.543 -20.614 -20.293  0.00  0.00    +0.040 C 
ATOM      9  C   UNL     1      34.756 -19.735 -20.787  0.00  0.00    +0.145 C 
ATOM     10  C   UNL     1      33.371 -19.766 -21.027  0.00  0.00    +0.041 C 
ENDROOT
BRANCH   3  13
ATOM     11  N   UNL     1      34.614 -22.569 -14.144  0.00  0.00    -0.318 N 
ATOM     12  N   UNL     1      35.487 -24.058 -15.545  0.00  0.00    -0.318 N 
ATOM     13  C   UNL     1      34.768 -22.963 -15.445  0.00  0.00    +0.148 C 
ATOM     14  C   UNL     1      35.278 -23.471 -13.353  0.00  0.00    +0.059 C 
ATOM     15  C   UNL     1      35.814 -24.391 -14.249  0.00  0.00    +0.059 C 
ATOM     16  C   UNL     1      35.450 -23.559 -11.970  0.00  0.00    +0.019 C 
ATOM     17  C   UNL     1      36.569 -25.468 -13.757  0.00  0.00    +0.016 C 
ATOM     18  C   UNL     1      36.205 -24.637 -11.497  0.00  0.00    +0.073 C 
ATOM     19  C   UNL     1      36.755 -25.576 -12.373  0.00  0.00    +0.005 C 
ATOM     20  H   UNL     1      34.117 -21.779 -13.832  0.00  0.00    +0.148 HD
ATOM     21  H   UNL     1      35.737 -24.538 -16.367  0.00  0.00    +0.148 HD
BRANCH  18  25
ATOM     22  F   UNL     1      36.715 -23.612  -9.398  0.00  0.00    -0.166 F 
ATOM     23  F   UNL     1      35.340 -25.289  -9.364  0.00  0.00    -0.166 F 
ATOM     24  F   UNL     1      37.455 -25.629  -9.736  0.00  0.00    -0.166 F 
ATOM     25  C   UNL     1      36.422 -24.788 -10.028  0.00  0.00    +0.419 C 
ENDBRANCH  18  25
ENDBRANCH   3  13
BRANCH   9  26
ATOM     26  O   UNL     1      35.557 -18.883 -21.527  0.00  0.00    -0.454 OA
BRANCH  26  30
ATOM     27  O   UNL     1      34.227 -12.857 -22.974  0.00  0.00    -0.275 OA
ATOM     28  N   UNL     1      34.126 -14.951 -23.912  0.00  0.00    -0.270 N 
ATOM     29  N   UNL     1      33.924 -17.091 -24.900  0.00  0.00    -0.229 NA
ATOM     30  C   UNL     1      35.004 -18.280 -22.616  0.00  0.00    +0.146 C 
ATOM     31  C   UNL     1      34.832 -16.896 -22.668  0.00  0.00    +0.045 C 
ATOM     32  C   UNL     1      35.318 -16.004 -21.567  0.00  0.00    +0.042 C 
ATOM     33  C   UNL     1      34.620 -19.067 -23.697  0.00  0.00    +0.058 C 
ATOM     34  C   UNL     1      34.286 -16.347 -23.827  0.00  0.00    +0.133 C 
ATOM     35  C   UNL     1      34.492 -14.729 -21.499  0.00  0.00    +0.090 C 
ATOM     36  C   UNL     1      34.306 -14.080 -22.856  0.00  0.00    +0.227 C 
ATOM     37  C   UNL     1      34.094 -18.428 -24.805  0.00  0.00    +0.103 C 
ATOM     38  H   UNL     1      33.869 -14.570 -24.783  0.00  0.00    +0.156 HD
ENDBRANCH  26  30
ENDBRANCH   9  26
TORSDOF 4
ENDMDL
MODEL 8
REMARK VINA RESULT:     -11.5      5.097      8.945
REMARK  Name = 89670174
REMARK  4 active torsions:
REMARK  status: ('A' for Active; 'I' for Inactive)
REMARK    1  A    between atoms: C_3  and  C_13
REMARK    2  A    between atoms: C_9  and  O_26
REMARK    3  A    between atoms: C_18  and  C_25
REMARK    4  A    between atoms: O_26  and  C_30
REMARK                            x       y       z     vdW  Elec       q    Type
REMARK                         _______ _______ _______ _____ _____    ______ ____
ROOT
ATOM      1  O   UNL     1      31.734  -9.815 -21.346  0.00  0.00    -0.479 OA
ATOM      2  C   UNL     1      33.247 -10.438 -23.162  0.00  0.00    +0.072 C 
ATOM      3  C   UNL     1      33.547 -11.473 -22.088  0.00  0.00    +0.085 C 
ATOM      4  C   UNL     1      32.144 -10.925 -22.230  0.00  0.00    +0.174 C 
ATOM      5  C   UNL     1      33.305  -8.989 -22.843  0.00  0.00    +0.018 C 
ATOM      6  C   UNL     1      32.411  -8.696 -21.805  0.00  0.00    +0.135 C 
ATOM      7  C   UNL     1      34.067  -7.970 -23.393  0.00  0.00    +0.036 C 
ATOM      8  C   UNL     1      32.250  -7.425 -21.290  0.00  0.00    +0.040 C 
ATOM      9  C   UNL     1      33.919  -6.673 -22.891  0.00  0.00    +0.145 C 
ATOM     10  C   UNL     1      33.017  -6.403 -21.847  0.00  0.00    +0.041 C 
ENDROOT
BRANCH   3  13
ATOM     11  N   UNL     1      34.373 -13.840 -21.647  0.00  0.00    -0.318 N 
ATOM     12  N   UNL     1      33.624 -13.387 -23.690  0.00  0.00    -0.318 N 
ATOM     13  C   UNL     1      33.844 -12.902 -22.490  0.00  0.00    +0.148 C 
ATOM     14  C   UNL     1      34.502 -15.009 -22.352  0.00  0.00    +0.059 C 
ATOM     15  C   UNL     1      34.028 -14.702 -23.624  0.00  0.00    +0.059 C 
ATOM     16  C   UNL     1      34.979 -16.272 -21.997  0.00  0.00    +0.019 C 
ATOM     17  C   UNL     1      34.022 -15.699 -24.613  0.00  0.00    +0.016 C 
ATOM     18  C   UNL     1      34.966 -17.253 -22.994  0.00  0.00    +0.073 C 
ATOM     19  C   UNL     1      34.496 -16.974 -24.278  0.00  0.00    +0.005 C 
ATOM     20  H   UNL     1      34.618 -13.701 -20.704  0.00  0.00    +0.148 HD
ATOM     21  H   UNL     1      33.250 -12.915 -24.469  0.00  0.00    +0.148 HD
BRANCH  18  25
ATOM     22  F   UNL     1      36.813 -18.687 -22.493  0.00  0.00    -0.166 F 
ATOM     23  F   UNL     1      34.924 -19.148 -21.534  0.00  0.00    -0.166 F 
ATOM     24  F   UNL     1      35.180 -19.525 -23.659  0.00  0.00    -0.166 F 
ATOM     25  C   UNL     1      35.461 -18.625 -22.674  0.00  0.00    +0.419 C 
ENDBRANCH  18  25
ENDBRANCH   3  13
BRANCH   9  26
ATOM     26  O   UNL     1      34.671  -5.642 -23.426  0.00  0.00    -0.454 OA
BRANCH  26  30
ATOM     27  O   UNL     1      29.843  -1.786 -24.837  0.00  0.00    -0.275 OA
ATOM     28  N   UNL     1      31.634  -2.800 -25.855  0.00  0.00    -0.270 N 
ATOM     29  N   UNL     1      33.416  -3.882 -26.973  0.00  0.00    -0.229 NA
ATOM     30  C   UNL     1      34.233  -5.073 -24.584  0.00  0.00    +0.146 C 
ATOM     31  C   UNL     1      33.115  -4.237 -24.601  0.00  0.00    +0.045 C 
ATOM     32  C   UNL     1      32.397  -3.863 -23.341  0.00  0.00    +0.042 C 
ATOM     33  C   UNL     1      34.927  -5.326 -25.761  0.00  0.00    +0.058 C 
ATOM     34  C   UNL     1      32.743  -3.667 -25.818  0.00  0.00    +0.133 C 
ATOM     35  C   UNL     1      30.938  -3.542 -23.625  0.00  0.00    +0.090 C 
ATOM     36  C   UNL     1      30.764  -2.602 -24.801  0.00  0.00    +0.227 C 
ATOM     37  C   UNL     1      34.484  -4.709 -26.917  0.00  0.00    +0.103 C 
ATOM     38  H   UNL     1      31.467  -2.302 -26.688  0.00  0.00    +0.156 HD
ENDBRANCH  26  30
ENDBRANCH   9  26
TORSDOF 4
ENDMDL
MODEL 9
REMARK VINA RESULT:     -11.3      2.288      3.566
REMARK  Name = 89670174
REMARK  4 active torsions:
REMARK  status: ('A' for Active; 'I' for Inactive)
REMARK    1  A    between atoms: C_3  and  C_13
REMARK    2  A    between atoms: C_9  and  O_26
REMARK    3  A    between atoms: C_18  and  C_25
REMARK    4  A    between atoms: O_26  and  C_30
REMARK                            x       y       z     vdW  Elec       q    Type
REMARK                         _______ _______ _______ _____ _____    ______ ____
ROOT
ATOM      1  O   UNL     1      34.953 -16.734 -24.721  0.00  0.00    -0.479 OA
ATOM      2  C   UNL     1      34.775 -16.373 -22.309  0.00  0.00    +0.072 C 
ATOM      3  C   UNL     1      34.158 -17.749 -22.502  0.00  0.00    +0.085 C 
ATOM      4  C   UNL     1      35.291 -17.303 -23.401  0.00  0.00    +0.174 C 
ATOM      5  C   UNL     1      34.283 -15.214 -23.098  0.00  0.00    +0.018 C 
ATOM      6  C   UNL     1      34.422 -15.479 -24.467  0.00  0.00    +0.135 C 
ATOM      7  C   UNL     1      33.749 -14.002 -22.689  0.00  0.00    +0.036 C 
ATOM      8  C   UNL     1      34.042 -14.582 -25.446  0.00  0.00    +0.040 C 
ATOM      9  C   UNL     1      33.360 -13.076 -23.663  0.00  0.00    +0.145 C 
ATOM     10  C   UNL     1      33.506 -13.364 -25.031  0.00  0.00    +0.041 C 
ENDROOT
BRANCH   3  13
ATOM     11  N   UNL     1      33.397 -19.500 -20.819  0.00  0.00    -0.318 N 
ATOM     12  N   UNL     1      35.587 -19.223 -21.081  0.00  0.00    -0.318 N 
ATOM     13  C   UNL     1      34.396 -18.826 -21.466  0.00  0.00    +0.148 C 
ATOM     14  C   UNL     1      33.985 -20.393 -19.959  0.00  0.00    +0.059 C 
ATOM     15  C   UNL     1      35.351 -20.201 -20.141  0.00  0.00    +0.059 C 
ATOM     16  C   UNL     1      33.453 -21.323 -19.064  0.00  0.00    +0.019 C 
ATOM     17  C   UNL     1      36.257 -20.974 -19.395  0.00  0.00    +0.016 C 
ATOM     18  C   UNL     1      34.369 -22.084 -18.330  0.00  0.00    +0.073 C 
ATOM     19  C   UNL     1      35.746 -21.914 -18.491  0.00  0.00    +0.005 C 
ATOM     20  H   UNL     1      32.430 -19.368 -20.947  0.00  0.00    +0.148 HD
ATOM     21  H   UNL     1      36.460 -18.894 -21.396  0.00  0.00    +0.148 HD
BRANCH  18  25
ATOM     22  F   UNL     1      34.774 -23.438 -16.401  0.00  0.00    -0.166 F 
ATOM     23  F   UNL     1      32.757 -22.691 -16.670  0.00  0.00    -0.166 F 
ATOM     24  F   UNL     1      33.509 -24.269 -17.962  0.00  0.00    -0.166 F 
ATOM     25  C   UNL     1      33.863 -23.098 -17.359  0.00  0.00    +0.419 C 
ENDBRANCH  18  25
ENDBRANCH   3  13
BRANCH   9  26
ATOM     26  O   UNL     1      32.823 -11.861 -23.276  0.00  0.00    -0.454 OA
BRANCH  26  30
ATOM     27  O   UNL     1      32.619  -5.894 -21.147  0.00  0.00    -0.275 OA
ATOM     28  N   UNL     1      33.820  -7.196 -22.609  0.00  0.00    -0.270 N 
ATOM     29  N   UNL     1      35.040  -8.468 -24.187  0.00  0.00    -0.229 NA
ATOM     30  C   UNL     1      33.526 -10.733 -23.576  0.00  0.00    +0.146 C 
ATOM     31  C   UNL     1      33.267  -9.524 -22.928  0.00  0.00    +0.045 C 
ATOM     32  C   UNL     1      32.264  -9.429 -21.819  0.00  0.00    +0.042 C 
ATOM     33  C   UNL     1      34.526 -10.802 -24.539  0.00  0.00    +0.058 C 
ATOM     34  C   UNL     1      34.046  -8.419 -23.268  0.00  0.00    +0.133 C 
ATOM     35  C   UNL     1      31.687  -8.025 -21.731  0.00  0.00    +0.090 C 
ATOM     36  C   UNL     1      32.755  -6.950 -21.764  0.00  0.00    +0.227 C 
ATOM     37  C   UNL     1      35.249  -9.653 -24.802  0.00  0.00    +0.103 C 
ATOM     38  H   UNL     1      34.463  -6.466 -22.760  0.00  0.00    +0.156 HD
ENDBRANCH  26  30
ENDBRANCH   9  26
TORSDOF 4
ENDMDL
