MODEL 1
REMARK VINA RESULT:     -10.5      0.000      0.000
REMARK  Name = 77993
REMARK  6 active torsions:
REMARK  status: ('A' for Active; 'I' for Inactive)
REMARK    1  A    between atoms: C_2  and  C_11
REMARK    2  A    between atoms: C_7  and  C_19
REMARK    3  A    between atoms: C_11  and  C_13
REMARK    4  A    between atoms: C_19  and  C_20
REMARK    5  A    between atoms: C_20  and  S_21
REMARK    6  A    between atoms: S_21  and  C_24
REMARK                            x       y       z     vdW  Elec       q    Type
REMARK                         _______ _______ _______ _____ _____    ______ ____
ROOT
ATOM      1  N   UNL     1      33.027 -23.539 -15.665  0.00  0.00    -0.312 N 
ATOM      2  C   UNL     1      35.121 -23.228 -15.065  0.00  0.00    -0.008 C 
ATOM      3  C   UNL     1      34.968 -22.681 -16.356  0.00  0.00    +0.010 C 
ATOM      4  C   UNL     1      33.929 -23.748 -14.656  0.00  0.00    +0.058 C 
ATOM      5  C   UNL     1      33.634 -22.889 -16.717  0.00  0.00    +0.048 C 
ATOM      6  C   UNL     1      35.822 -22.027 -17.266  0.00  0.00    -0.003 C 
ATOM      7  C   UNL     1      35.312 -21.607 -18.499  0.00  0.00    -0.020 C 
ATOM      8  C   UNL     1      33.111 -22.474 -17.945  0.00  0.00    +0.014 C 
ATOM      9  C   UNL     1      33.977 -21.828 -18.832  0.00  0.00    -0.003 C 
ATOM     10  H   UNL     1      32.082 -23.812 -15.642  0.00  0.00    +0.152 HD
ENDROOT
BRANCH   2  11
ATOM     11  C   UNL     1      36.385 -23.241 -14.262  0.00  0.00    +0.007 C 
BRANCH  11  13
ATOM     12  N   UNL     1      36.861 -24.555 -12.187  0.00  0.00    +0.387 N 
ATOM     13  C   UNL     1      36.668 -24.604 -13.643  0.00  0.00    -0.054 C 
ATOM     14  C   UNL     1      37.993 -25.189 -14.137  0.00  0.00    -0.023 C 
ATOM     15  C   UNL     1      38.545 -25.987 -12.962  0.00  0.00    -0.025 C 
ATOM     16  C   UNL     1      37.520 -25.820 -11.851  0.00  0.00    -0.077 C 
ATOM     17  C   UNL     1      35.616 -24.389 -11.446  0.00  0.00    -0.101 C 
ATOM     18  H   UNL     1      37.417 -23.742 -11.924  0.00  0.00    -0.080 HD
ENDBRANCH  11  13
ENDBRANCH   2  11
BRANCH   7  19
ATOM     19  C   UNL     1      36.211 -20.914 -19.470  0.00  0.00    +0.052 C 
BRANCH  19  20
ATOM     20  C   UNL     1      35.473 -20.204 -20.608  0.00  0.00    +0.161 C 
BRANCH  20  21
ATOM     21  S   UNL     1      36.241 -18.683 -21.067  0.00  0.00    +0.009 S 
ATOM     22  O   UNL     1      37.595 -18.960 -21.515  0.00  0.00    -0.169 OA
ATOM     23  O   UNL     1      36.004 -17.726 -20.001  0.00  0.00    -0.169 OA
BRANCH  21  24
ATOM     24  C   UNL     1      35.327 -18.154 -22.485  0.00  0.00    +0.106 C 
ATOM     25  C   UNL     1      35.360 -16.820 -22.853  0.00  0.00    +0.018 C 
ATOM     26  C   UNL     1      34.594 -19.085 -23.202  0.00  0.00    +0.018 C 
ATOM     27  C   UNL     1      34.639 -16.403 -23.971  0.00  0.00    +0.001 C 
ATOM     28  C   UNL     1      33.873 -18.668 -24.322  0.00  0.00    +0.001 C 
ATOM     29  C   UNL     1      33.896 -17.328 -24.706  0.00  0.00    +0.000 C 
ENDBRANCH  21  24
ENDBRANCH  20  21
ENDBRANCH  19  20
ENDBRANCH   7  19
TORSDOF 6
ENDMDL
MODEL 2
REMARK VINA RESULT:     -10.4      4.551      9.343
REMARK  Name = 77993
REMARK  6 active torsions:
REMARK  status: ('A' for Active; 'I' for Inactive)
REMARK    1  A    between atoms: C_2  and  C_11
REMARK    2  A    between atoms: C_7  and  C_19
REMARK    3  A    between atoms: C_11  and  C_13
REMARK    4  A    between atoms: C_19  and  C_20
REMARK    5  A    between atoms: C_20  and  S_21
REMARK    6  A    between atoms: S_21  and  C_24
REMARK                            x       y       z     vdW  Elec       q    Type
REMARK                         _______ _______ _______ _____ _____    ______ ____
ROOT
ATOM      1  N   UNL     1      31.144 -22.777 -15.519  0.00  0.00    -0.312 N 
ATOM      2  C   UNL     1      32.734 -22.946 -17.031  0.00  0.00    -0.008 C 
ATOM      3  C   UNL     1      33.298 -23.299 -15.786  0.00  0.00    +0.010 C 
ATOM      4  C   UNL     1      31.420 -22.631 -16.853  0.00  0.00    +0.058 C 
ATOM      5  C   UNL     1      32.273 -23.184 -14.843  0.00  0.00    +0.048 C 
ATOM      6  C   UNL     1      34.576 -23.705 -15.353  0.00  0.00    -0.003 C 
ATOM      7  C   UNL     1      34.781 -23.981 -13.997  0.00  0.00    -0.020 C 
ATOM      8  C   UNL     1      32.464 -23.457 -13.485  0.00  0.00    +0.014 C 
ATOM      9  C   UNL     1      33.740 -23.858 -13.078  0.00  0.00    -0.003 C 
ATOM     10  H   UNL     1      30.267 -22.616 -15.104  0.00  0.00    +0.152 HD
ENDROOT
BRANCH   2  11
ATOM     11  C   UNL     1      33.455 -22.920 -18.344  0.00  0.00    +0.007 C 
BRANCH  11  13
ATOM     12  N   UNL     1      33.953 -21.060 -19.940  0.00  0.00    +0.387 N 
ATOM     13  C   UNL     1      34.168 -21.597 -18.589  0.00  0.00    -0.054 C 
ATOM     14  C   UNL     1      35.690 -21.753 -18.530  0.00  0.00    -0.023 C 
ATOM     15  C   UNL     1      36.237 -20.744 -19.533  0.00  0.00    -0.025 C 
ATOM     16  C   UNL     1      35.012 -20.065 -20.124  0.00  0.00    -0.077 C 
ATOM     17  C   UNL     1      32.631 -20.472 -20.123  0.00  0.00    -0.101 C 
ATOM     18  H   UNL     1      33.990 -21.805 -20.635  0.00  0.00    -0.080 HD
ENDBRANCH  11  13
ENDBRANCH   2  11
BRANCH   7  19
ATOM     19  C   UNL     1      36.133 -24.411 -13.530  0.00  0.00    +0.052 C 
BRANCH  19  20
ATOM     20  C   UNL     1      36.758 -23.479 -12.488  0.00  0.00    +0.161 C 
BRANCH  20  21
ATOM     21  S   UNL     1      37.964 -24.294 -11.489  0.00  0.00    +0.009 S 
ATOM     22  O   UNL     1      37.282 -25.023 -10.434  0.00  0.00    -0.169 OA
ATOM     23  O   UNL     1      38.996 -23.326 -11.161  0.00  0.00    -0.169 OA
BRANCH  21  24
ATOM     24  C   UNL     1      38.673 -25.497 -12.573  0.00  0.00    +0.106 C 
ATOM     25  C   UNL     1      38.099 -26.754 -12.657  0.00  0.00    +0.018 C 
ATOM     26  C   UNL     1      39.790 -25.160 -13.319  0.00  0.00    +0.018 C 
ATOM     27  C   UNL     1      38.658 -27.703 -13.512  0.00  0.00    +0.001 C 
ATOM     28  C   UNL     1      40.349 -26.109 -14.175  0.00  0.00    +0.001 C 
ATOM     29  C   UNL     1      39.783 -27.380 -14.272  0.00  0.00    +0.000 C 
ENDBRANCH  21  24
ENDBRANCH  20  21
ENDBRANCH  19  20
ENDBRANCH   7  19
TORSDOF 6
ENDMDL
MODEL 3
REMARK VINA RESULT:     -10.3      2.311      4.009
REMARK  Name = 77993
REMARK  6 active torsions:
REMARK  status: ('A' for Active; 'I' for Inactive)
REMARK    1  A    between atoms: C_2  and  C_11
REMARK    2  A    between atoms: C_7  and  C_19
REMARK    3  A    between atoms: C_11  and  C_13
REMARK    4  A    between atoms: C_19  and  C_20
REMARK    5  A    between atoms: C_20  and  S_21
REMARK    6  A    between atoms: S_21  and  C_24
REMARK                            x       y       z     vdW  Elec       q    Type
REMARK                         _______ _______ _______ _____ _____    ______ ____
ROOT
ATOM      1  N   UNL     1      36.087 -22.744 -15.827  0.00  0.00    -0.312 N 
ATOM      2  C   UNL     1      34.015 -23.169 -16.433  0.00  0.00    -0.008 C 
ATOM      3  C   UNL     1      34.591 -22.367 -17.440  0.00  0.00    +0.010 C 
ATOM      4  C   UNL     1      34.938 -23.391 -15.455  0.00  0.00    +0.058 C 
ATOM      5  C   UNL     1      35.904 -22.110 -17.036  0.00  0.00    +0.048 C 
ATOM      6  C   UNL     1      34.141 -21.827 -18.661  0.00  0.00    -0.003 C 
ATOM      7  C   UNL     1      35.016 -21.053 -19.429  0.00  0.00    -0.020 C 
ATOM      8  C   UNL     1      36.790 -21.338 -17.793  0.00  0.00    +0.014 C 
ATOM      9  C   UNL     1      36.320 -20.812 -19.000  0.00  0.00    -0.003 C 
ATOM     10  H   UNL     1      36.922 -22.734 -15.306  0.00  0.00    +0.152 HD
ENDROOT
BRANCH   2  11
ATOM     11  C   UNL     1      32.613 -23.697 -16.428  0.00  0.00    +0.007 C 
BRANCH  11  13
ATOM     12  N   UNL     1      31.315 -24.137 -14.335  0.00  0.00    +0.387 N 
ATOM     13  C   UNL     1      31.778 -23.122 -15.292  0.00  0.00    -0.054 C 
ATOM     14  C   UNL     1      30.466 -22.518 -15.800  0.00  0.00    -0.023 C 
ATOM     15  C   UNL     1      29.454 -22.760 -14.686  0.00  0.00    -0.025 C 
ATOM     16  C   UNL     1      30.224 -23.493 -13.599  0.00  0.00    -0.077 C 
ATOM     17  C   UNL     1      32.364 -24.601 -13.435  0.00  0.00    -0.101 C 
ATOM     18  H   UNL     1      31.015 -24.981 -14.822  0.00  0.00    -0.080 HD
ENDBRANCH  11  13
ENDBRANCH   2  11
BRANCH   7  19
ATOM     19  C   UNL     1      34.545 -20.476 -20.724  0.00  0.00    +0.052 C 
BRANCH  19  20
ATOM     20  C   UNL     1      34.885 -18.994 -20.907  0.00  0.00    +0.161 C 
BRANCH  20  21
ATOM     21  S   UNL     1      35.589 -18.652 -22.489  0.00  0.00    +0.009 S 
ATOM     22  O   UNL     1      35.007 -19.557 -23.465  0.00  0.00    -0.169 OA
ATOM     23  O   UNL     1      37.031 -18.579 -22.327  0.00  0.00    -0.169 OA
BRANCH  21  24
ATOM     24  C   UNL     1      35.003 -17.030 -22.876  0.00  0.00    +0.106 C 
ATOM     25  C   UNL     1      35.012 -16.055 -21.893  0.00  0.00    +0.018 C 
ATOM     26  C   UNL     1      34.546 -16.764 -24.156  0.00  0.00    +0.018 C 
ATOM     27  C   UNL     1      34.550 -14.775 -22.199  0.00  0.00    +0.001 C 
ATOM     28  C   UNL     1      34.084 -15.483 -24.461  0.00  0.00    +0.001 C 
ATOM     29  C   UNL     1      34.086 -14.490 -23.483  0.00  0.00    +0.000 C 
ENDBRANCH  21  24
ENDBRANCH  20  21
ENDBRANCH  19  20
ENDBRANCH   7  19
TORSDOF 6
ENDMDL
MODEL 4
REMARK VINA RESULT:     -10.3      2.141      4.159
REMARK  Name = 77993
REMARK  6 active torsions:
REMARK  status: ('A' for Active; 'I' for Inactive)
REMARK    1  A    between atoms: C_2  and  C_11
REMARK    2  A    between atoms: C_7  and  C_19
REMARK    3  A    between atoms: C_11  and  C_13
REMARK    4  A    between atoms: C_19  and  C_20
REMARK    5  A    between atoms: C_20  and  S_21
REMARK    6  A    between atoms: S_21  and  C_24
REMARK                            x       y       z     vdW  Elec       q    Type
REMARK                         _______ _______ _______ _____ _____    ______ ____
ROOT
ATOM      1  N   UNL     1      35.375 -22.891 -14.569  0.00  0.00    -0.312 N 
ATOM      2  C   UNL     1      33.678 -23.199 -15.936  0.00  0.00    -0.008 C 
ATOM      3  C   UNL     1      34.709 -22.583 -16.677  0.00  0.00    +0.010 C 
ATOM      4  C   UNL     1      34.099 -23.381 -14.652  0.00  0.00    +0.058 C 
ATOM      5  C   UNL     1      35.774 -22.398 -15.792  0.00  0.00    +0.048 C 
ATOM      6  C   UNL     1      34.857 -22.160 -18.013  0.00  0.00    -0.003 C 
ATOM      7  C   UNL     1      36.060 -21.568 -18.412  0.00  0.00    -0.020 C 
ATOM      8  C   UNL     1      36.982 -21.808 -16.177  0.00  0.00    +0.014 C 
ATOM      9  C   UNL     1      37.105 -21.395 -17.507  0.00  0.00    -0.003 C 
ATOM     10  H   UNL     1      35.928 -22.892 -13.755  0.00  0.00    +0.152 HD
ENDROOT
BRANCH   2  11
ATOM     11  C   UNL     1      32.334 -23.594 -16.465  0.00  0.00    +0.007 C 
BRANCH  11  13
ATOM     12  N   UNL     1      30.514 -24.400 -14.950  0.00  0.00    +0.387 N 
ATOM     13  C   UNL     1      31.204 -23.230 -15.512  0.00  0.00    -0.054 C 
ATOM     14  C   UNL     1      30.073 -22.487 -16.229  0.00  0.00    -0.023 C 
ATOM     15  C   UNL     1      28.795 -22.912 -15.514  0.00  0.00    -0.025 C 
ATOM     16  C   UNL     1      29.247 -23.878 -14.430  0.00  0.00    -0.077 C 
ATOM     17  C   UNL     1      31.280 -25.075 -13.909  0.00  0.00    -0.101 C 
ATOM     18  H   UNL     1      30.379 -25.116 -15.663  0.00  0.00    -0.080 HD
ENDBRANCH  11  13
ENDBRANCH   2  11
BRANCH   7  19
ATOM     19  C   UNL     1      36.223 -21.116 -19.826  0.00  0.00    +0.052 C 
BRANCH  19  20
ATOM     20  C   UNL     1      35.248 -20.011 -20.244  0.00  0.00    +0.161 C 
BRANCH  20  21
ATOM     21  S   UNL     1      36.071 -18.597 -20.906  0.00  0.00    +0.009 S 
ATOM     22  O   UNL     1      37.430 -18.970 -21.258  0.00  0.00    -0.169 OA
ATOM     23  O   UNL     1      35.828 -17.481 -20.009  0.00  0.00    -0.169 OA
BRANCH  21  24
ATOM     24  C   UNL     1      35.216 -18.274 -22.419  0.00  0.00    +0.106 C 
ATOM     25  C   UNL     1      34.554 -19.310 -23.056  0.00  0.00    +0.018 C 
ATOM     26  C   UNL     1      35.223 -16.991 -22.939  0.00  0.00    +0.018 C 
ATOM     27  C   UNL     1      33.878 -19.055 -24.249  0.00  0.00    +0.001 C 
ATOM     28  C   UNL     1      34.547 -16.736 -24.133  0.00  0.00    +0.001 C 
ATOM     29  C   UNL     1      33.875 -17.768 -24.787  0.00  0.00    +0.000 C 
ENDBRANCH  21  24
ENDBRANCH  20  21
ENDBRANCH  19  20
ENDBRANCH   7  19
TORSDOF 6
ENDMDL
MODEL 5
REMARK VINA RESULT:     -10.1      4.379     10.507
REMARK  Name = 77993
REMARK  6 active torsions:
REMARK  status: ('A' for Active; 'I' for Inactive)
REMARK    1  A    between atoms: C_2  and  C_11
REMARK    2  A    between atoms: C_7  and  C_19
REMARK    3  A    between atoms: C_11  and  C_13
REMARK    4  A    between atoms: C_19  and  C_20
REMARK    5  A    between atoms: C_20  and  S_21
REMARK    6  A    between atoms: S_21  and  C_24
REMARK                            x       y       z     vdW  Elec       q    Type
REMARK                         _______ _______ _______ _____ _____    ______ ____
ROOT
ATOM      1  N   UNL     1      34.286 -16.912 -24.635  0.00  0.00    -0.312 N 
ATOM      2  C   UNL     1      34.571 -15.635 -22.867  0.00  0.00    -0.008 C 
ATOM      3  C   UNL     1      34.864 -16.960 -22.480  0.00  0.00    +0.010 C 
ATOM      4  C   UNL     1      34.220 -15.621 -24.184  0.00  0.00    +0.058 C 
ATOM      5  C   UNL     1      34.677 -17.752 -23.616  0.00  0.00    +0.048 C 
ATOM      6  C   UNL     1      35.271 -17.579 -21.282  0.00  0.00    -0.003 C 
ATOM      7  C   UNL     1      35.475 -18.963 -21.264  0.00  0.00    -0.020 C 
ATOM      8  C   UNL     1      34.877 -19.135 -23.612  0.00  0.00    +0.014 C 
ATOM      9  C   UNL     1      35.280 -19.728 -22.412  0.00  0.00    -0.003 C 
ATOM     10  H   UNL     1      34.084 -17.199 -25.555  0.00  0.00    +0.152 HD
ENDROOT
BRANCH   2  11
ATOM     11  C   UNL     1      34.633 -14.429 -21.980  0.00  0.00    +0.007 C 
BRANCH  11  13
ATOM     12  N   UNL     1      33.525 -12.223 -22.385  0.00  0.00    +0.387 N 
ATOM     13  C   UNL     1      33.337 -13.628 -21.996  0.00  0.00    -0.054 C 
ATOM     14  C   UNL     1      32.725 -13.510 -20.598  0.00  0.00    -0.023 C 
ATOM     15  C   UNL     1      32.047 -12.145 -20.570  0.00  0.00    -0.025 C 
ATOM     16  C   UNL     1      32.305 -11.543 -21.942  0.00  0.00    -0.077 C 
ATOM     17  C   UNL     1      33.745 -12.045 -23.815  0.00  0.00    -0.101 C 
ATOM     18  H   UNL     1      34.366 -11.839 -21.954  0.00  0.00    -0.080 HD
ENDBRANCH  11  13
ENDBRANCH   2  11
BRANCH   7  19
ATOM     19  C   UNL     1      35.904 -19.626 -19.996  0.00  0.00    +0.052 C 
BRANCH  19  20
ATOM     20  C   UNL     1      35.921 -21.156 -20.068  0.00  0.00    +0.161 C 
BRANCH  20  21
ATOM     21  S   UNL     1      34.706 -21.895 -19.023  0.00  0.00    +0.009 S 
ATOM     22  O   UNL     1      34.417 -23.231 -19.515  0.00  0.00    -0.169 OA
ATOM     23  O   UNL     1      33.632 -20.934 -18.841  0.00  0.00    -0.169 OA
BRANCH  21  24
ATOM     24  C   UNL     1      35.534 -22.084 -17.473  0.00  0.00    +0.106 C 
ATOM     25  C   UNL     1      34.871 -22.694 -16.421  0.00  0.00    +0.018 C 
ATOM     26  C   UNL     1      36.832 -21.619 -17.339  0.00  0.00    +0.018 C 
ATOM     27  C   UNL     1      35.525 -22.843 -15.198  0.00  0.00    +0.001 C 
ATOM     28  C   UNL     1      37.485 -21.769 -16.115  0.00  0.00    +0.001 C 
ATOM     29  C   UNL     1      36.832 -22.380 -15.046  0.00  0.00    +0.000 C 
ENDBRANCH  21  24
ENDBRANCH  20  21
ENDBRANCH  19  20
ENDBRANCH   7  19
TORSDOF 6
ENDMDL
MODEL 6
REMARK VINA RESULT:      -9.9      5.298      8.965
REMARK  Name = 77993
REMARK  6 active torsions:
REMARK  status: ('A' for Active; 'I' for Inactive)
REMARK    1  A    between atoms: C_2  and  C_11
REMARK    2  A    between atoms: C_7  and  C_19
REMARK    3  A    between atoms: C_11  and  C_13
REMARK    4  A    between atoms: C_19  and  C_20
REMARK    5  A    between atoms: C_20  and  S_21
REMARK    6  A    between atoms: S_21  and  C_24
REMARK                            x       y       z     vdW  Elec       q    Type
REMARK                         _______ _______ _______ _____ _____    ______ ____
ROOT
ATOM      1  N   UNL     1      34.843 -21.728 -18.632  0.00  0.00    -0.312 N 
ATOM      2  C   UNL     1      33.671 -22.980 -17.253  0.00  0.00    -0.008 C 
ATOM      3  C   UNL     1      34.907 -22.709 -16.628  0.00  0.00    +0.010 C 
ATOM      4  C   UNL     1      33.646 -22.375 -18.474  0.00  0.00    +0.058 C 
ATOM      5  C   UNL     1      35.633 -21.915 -17.520  0.00  0.00    +0.048 C 
ATOM      6  C   UNL     1      35.495 -23.054 -15.395  0.00  0.00    -0.003 C 
ATOM      7  C   UNL     1      36.782 -22.593 -15.100  0.00  0.00    -0.020 C 
ATOM      8  C   UNL     1      36.920 -21.447 -17.237  0.00  0.00    +0.014 C 
ATOM      9  C   UNL     1      37.483 -21.802 -16.008  0.00  0.00    -0.003 C 
ATOM     10  H   UNL     1      35.101 -21.204 -19.424  0.00  0.00    +0.152 HD
ENDROOT
BRANCH   2  11
ATOM     11  C   UNL     1      32.558 -23.799 -16.676  0.00  0.00    +0.007 C 
BRANCH  11  13
ATOM     12  N   UNL     1      31.525 -23.833 -14.398  0.00  0.00    +0.387 N 
ATOM     13  C   UNL     1      31.771 -23.044 -15.613  0.00  0.00    -0.054 C 
ATOM     14  C   UNL     1      30.355 -22.708 -16.087  0.00  0.00    -0.023 C 
ATOM     15  C   UNL     1      29.487 -22.764 -14.835  0.00  0.00    -0.025 C 
ATOM     16  C   UNL     1      30.438 -23.134 -13.707  0.00  0.00    -0.077 C 
ATOM     17  C   UNL     1      32.702 -23.963 -13.547  0.00  0.00    -0.101 C 
ATOM     18  H   UNL     1      31.283 -24.795 -14.635  0.00  0.00    -0.080 HD
ENDBRANCH  11  13
ENDBRANCH   2  11
BRANCH   7  19
ATOM     19  C   UNL     1      37.411 -22.956 -13.795  0.00  0.00    +0.052 C 
BRANCH  19  20
ATOM     20  C   UNL     1      36.541 -23.853 -12.910  0.00  0.00    +0.161 C 
BRANCH  20  21
ATOM     21  S   UNL     1      37.494 -24.823 -11.785  0.00  0.00    +0.009 S 
ATOM     22  O   UNL     1      36.601 -25.707 -11.057  0.00  0.00    -0.169 OA
ATOM     23  O   UNL     1      38.382 -23.925 -11.067  0.00  0.00    -0.169 OA
BRANCH  21  24
ATOM     24  C   UNL     1      38.486 -25.843 -12.835  0.00  0.00    +0.106 C 
ATOM     25  C   UNL     1      38.028 -27.102 -13.184  0.00  0.00    +0.018 C 
ATOM     26  C   UNL     1      39.703 -25.363 -13.290  0.00  0.00    +0.018 C 
ATOM     27  C   UNL     1      38.811 -27.906 -14.013  0.00  0.00    +0.001 C 
ATOM     28  C   UNL     1      40.485 -26.168 -14.119  0.00  0.00    +0.001 C 
ATOM     29  C   UNL     1      40.039 -27.438 -14.480  0.00  0.00    +0.000 C 
ENDBRANCH  21  24
ENDBRANCH  20  21
ENDBRANCH  19  20
ENDBRANCH   7  19
TORSDOF 6
ENDMDL
MODEL 7
REMARK VINA RESULT:      -9.9      9.155     14.834
REMARK  Name = 77993
REMARK  6 active torsions:
REMARK  status: ('A' for Active; 'I' for Inactive)
REMARK    1  A    between atoms: C_2  and  C_11
REMARK    2  A    between atoms: C_7  and  C_19
REMARK    3  A    between atoms: C_11  and  C_13
REMARK    4  A    between atoms: C_19  and  C_20
REMARK    5  A    between atoms: C_20  and  S_21
REMARK    6  A    between atoms: S_21  and  C_24
REMARK                            x       y       z     vdW  Elec       q    Type
REMARK                         _______ _______ _______ _____ _____    ______ ____
ROOT
ATOM      1  N   UNL     1      32.307  -7.268 -19.136  0.00  0.00    -0.312 N 
ATOM      2  C   UNL     1      31.925  -7.217 -21.302  0.00  0.00    -0.008 C 
ATOM      3  C   UNL     1      31.892  -8.569 -20.901  0.00  0.00    +0.010 C 
ATOM      4  C   UNL     1      32.179  -6.434 -20.215  0.00  0.00    +0.058 C 
ATOM      5  C   UNL     1      32.136  -8.578 -19.525  0.00  0.00    +0.048 C 
ATOM      6  C   UNL     1      31.680  -9.796 -21.559  0.00  0.00    -0.003 C 
ATOM      7  C   UNL     1      31.719 -10.983 -20.820  0.00  0.00    -0.020 C 
ATOM      8  C   UNL     1      32.178  -9.756 -18.773  0.00  0.00    +0.014 C 
ATOM      9  C   UNL     1      31.965 -10.962 -19.448  0.00  0.00    -0.003 C 
ATOM     10  H   UNL     1      32.492  -6.974 -18.215  0.00  0.00    +0.152 HD
ENDROOT
BRANCH   2  11
ATOM     11  C   UNL     1      31.717  -6.711 -22.696  0.00  0.00    +0.007 C 
BRANCH  11  13
ATOM     12  N   UNL     1      32.465  -5.021 -24.382  0.00  0.00    +0.387 N 
ATOM     13  C   UNL     1      32.766  -5.685 -23.106  0.00  0.00    -0.054 C 
ATOM     14  C   UNL     1      34.122  -6.339 -23.381  0.00  0.00    -0.023 C 
ATOM     15  C   UNL     1      34.754  -5.506 -24.490  0.00  0.00    -0.025 C 
ATOM     16  C   UNL     1      33.735  -4.422 -24.804  0.00  0.00    -0.077 C 
ATOM     17  C   UNL     1      31.412  -4.017 -24.275  0.00  0.00    -0.101 C 
ATOM     18  H   UNL     1      32.102  -5.690 -25.060  0.00  0.00    -0.080 HD
ENDBRANCH  11  13
ENDBRANCH   2  11
BRANCH   7  19
ATOM     19  C   UNL     1      31.496 -12.288 -21.511  0.00  0.00    +0.052 C 
BRANCH  19  20
ATOM     20  C   UNL     1      32.701 -13.232 -21.464  0.00  0.00    +0.161 C 
BRANCH  20  21
ATOM     21  S   UNL     1      33.586 -13.277 -22.991  0.00  0.00    +0.009 S 
ATOM     22  O   UNL     1      34.732 -12.390 -22.892  0.00  0.00    -0.169 OA
ATOM     23  O   UNL     1      32.623 -13.112 -24.067  0.00  0.00    -0.169 OA
BRANCH  21  24
ATOM     24  C   UNL     1      34.215 -14.927 -23.072  0.00  0.00    +0.106 C 
ATOM     25  C   UNL     1      34.840 -15.468 -21.962  0.00  0.00    +0.018 C 
ATOM     26  C   UNL     1      34.069 -15.648 -24.245  0.00  0.00    +0.018 C 
ATOM     27  C   UNL     1      35.335 -16.770 -22.026  0.00  0.00    +0.001 C 
ATOM     28  C   UNL     1      34.565 -16.951 -24.309  0.00  0.00    +0.001 C 
ATOM     29  C   UNL     1      35.198 -17.511 -23.200  0.00  0.00    +0.000 C 
ENDBRANCH  21  24
ENDBRANCH  20  21
ENDBRANCH  19  20
ENDBRANCH   7  19
TORSDOF 6
ENDMDL
MODEL 8
REMARK VINA RESULT:      -9.9      3.818      9.474
REMARK  Name = 77993
REMARK  6 active torsions:
REMARK  status: ('A' for Active; 'I' for Inactive)
REMARK    1  A    between atoms: C_2  and  C_11
REMARK    2  A    between atoms: C_7  and  C_19
REMARK    3  A    between atoms: C_11  and  C_13
REMARK    4  A    between atoms: C_19  and  C_20
REMARK    5  A    between atoms: C_20  and  S_21
REMARK    6  A    between atoms: S_21  and  C_24
REMARK                            x       y       z     vdW  Elec       q    Type
REMARK                         _______ _______ _______ _____ _____    ______ ____
ROOT
ATOM      1  N   UNL     1      32.585 -21.564 -19.172  0.00  0.00    -0.312 N 
ATOM      2  C   UNL     1      34.491 -20.698 -19.849  0.00  0.00    -0.008 C 
ATOM      3  C   UNL     1      34.757 -21.433 -18.675  0.00  0.00    +0.010 C 
ATOM      4  C   UNL     1      33.162 -20.786 -20.140  0.00  0.00    +0.058 C 
ATOM      5  C   UNL     1      33.536 -21.973 -18.263  0.00  0.00    +0.048 C 
ATOM      6  C   UNL     1      35.909 -21.702 -17.910  0.00  0.00    -0.003 C 
ATOM      7  C   UNL     1      35.798 -22.499 -16.766  0.00  0.00    -0.020 C 
ATOM      8  C   UNL     1      33.410 -22.771 -17.122  0.00  0.00    +0.014 C 
ATOM      9  C   UNL     1      34.567 -23.024 -16.378  0.00  0.00    -0.003 C 
ATOM     10  H   UNL     1      31.630 -21.797 -19.131  0.00  0.00    +0.152 HD
ENDROOT
BRANCH   2  11
ATOM     11  C   UNL     1      35.499 -19.937 -20.655  0.00  0.00    +0.007 C 
BRANCH  11  13
ATOM     12  N   UNL     1      35.299 -18.700 -22.820  0.00  0.00    +0.387 N 
ATOM     13  C   UNL     1      34.878 -18.772 -21.414  0.00  0.00    -0.054 C 
ATOM     14  C   UNL     1      35.338 -17.422 -20.857  0.00  0.00    -0.023 C 
ATOM     15  C   UNL     1      35.388 -16.487 -22.060  0.00  0.00    -0.025 C 
ATOM     16  C   UNL     1      34.964 -17.338 -23.245  0.00  0.00    -0.077 C 
ATOM     17  C   UNL     1      34.655 -19.697 -23.666  0.00  0.00    -0.101 C 
ATOM     18  H   UNL     1      36.294 -18.905 -22.909  0.00  0.00    -0.080 HD
ENDBRANCH  11  13
ENDBRANCH   2  11
BRANCH   7  19
ATOM     19  C   UNL     1      37.015 -22.787 -15.949  0.00  0.00    +0.052 C 
BRANCH  19  20
ATOM     20  C   UNL     1      37.029 -22.093 -14.584  0.00  0.00    +0.161 C 
BRANCH  20  21
ATOM     21  S   UNL     1      36.823 -23.227 -13.247  0.00  0.00    +0.009 S 
ATOM     22  O   UNL     1      35.402 -23.414 -13.007  0.00  0.00    -0.169 OA
ATOM     23  O   UNL     1      37.698 -22.804 -12.167  0.00  0.00    -0.169 OA
BRANCH  21  24
ATOM     24  C   UNL     1      37.445 -24.755 -13.883  0.00  0.00    +0.106 C 
ATOM     25  C   UNL     1      36.557 -25.689 -14.390  0.00  0.00    +0.018 C 
ATOM     26  C   UNL     1      38.810 -24.989 -13.865  0.00  0.00    +0.018 C 
ATOM     27  C   UNL     1      37.048 -26.893 -14.892  0.00  0.00    +0.001 C 
ATOM     28  C   UNL     1      39.300 -26.194 -14.367  0.00  0.00    +0.001 C 
ATOM     29  C   UNL     1      38.420 -27.146 -14.881  0.00  0.00    +0.000 C 
ENDBRANCH  21  24
ENDBRANCH  20  21
ENDBRANCH  19  20
ENDBRANCH   7  19
TORSDOF 6
ENDMDL
MODEL 9
REMARK VINA RESULT:      -9.7      7.346     13.184
REMARK  Name = 77993
REMARK  6 active torsions:
REMARK  status: ('A' for Active; 'I' for Inactive)
REMARK    1  A    between atoms: C_2  and  C_11
REMARK    2  A    between atoms: C_7  and  C_19
REMARK    3  A    between atoms: C_11  and  C_13
REMARK    4  A    between atoms: C_19  and  C_20
REMARK    5  A    between atoms: C_20  and  S_21
REMARK    6  A    between atoms: S_21  and  C_24
REMARK                            x       y       z     vdW  Elec       q    Type
REMARK                         _______ _______ _______ _____ _____    ______ ____
ROOT
ATOM      1  N   UNL     1      31.469 -10.619 -20.027  0.00  0.00    -0.312 N 
ATOM      2  C   UNL     1      32.201  -9.961 -21.995  0.00  0.00    -0.008 C 
ATOM      3  C   UNL     1      32.603 -11.302 -21.824  0.00  0.00    +0.010 C 
ATOM      4  C   UNL     1      31.511  -9.557 -20.891  0.00  0.00    +0.058 C 
ATOM      5  C   UNL     1      32.128 -11.699 -20.571  0.00  0.00    +0.048 C 
ATOM      6  C   UNL     1      33.323 -12.231 -22.601  0.00  0.00    -0.003 C 
ATOM      7  C   UNL     1      33.541 -13.518 -22.098  0.00  0.00    -0.020 C 
ATOM      8  C   UNL     1      32.338 -12.982 -20.056  0.00  0.00    +0.014 C 
ATOM      9  C   UNL     1      33.056 -13.886 -20.844  0.00  0.00    -0.003 C 
ATOM     10  H   UNL     1      31.031 -10.612 -19.146  0.00  0.00    +0.152 HD
ENDROOT
BRANCH   2  11
ATOM     11  C   UNL     1      32.484  -9.107 -23.193  0.00  0.00    +0.007 C 
BRANCH  11  13
ATOM     12  N   UNL     1      32.399  -6.613 -23.361  0.00  0.00    +0.387 N 
ATOM     13  C   UNL     1      33.120  -7.774 -22.821  0.00  0.00    -0.054 C 
ATOM     14  C   UNL     1      34.513  -7.619 -23.435  0.00  0.00    -0.023 C 
ATOM     15  C   UNL     1      34.662  -6.130 -23.725  0.00  0.00    -0.025 C 
ATOM     16  C   UNL     1      33.352  -5.503 -23.273  0.00  0.00    -0.077 C 
ATOM     17  C   UNL     1      31.166  -6.314 -22.642  0.00  0.00    -0.101 C 
ATOM     18  H   UNL     1      32.093  -6.791 -24.317  0.00  0.00    -0.080 HD
ENDBRANCH  11  13
ENDBRANCH   2  11
BRANCH   7  19
ATOM     19  C   UNL     1      34.304 -14.508 -22.915  0.00  0.00    +0.052 C 
BRANCH  19  20
ATOM     20  C   UNL     1      33.424 -15.413 -23.781  0.00  0.00    +0.161 C 
BRANCH  20  21
ATOM     21  S   UNL     1      34.298 -16.817 -24.398  0.00  0.00    +0.009 S 
ATOM     22  O   UNL     1      35.536 -16.365 -25.010  0.00  0.00    -0.169 OA
ATOM     23  O   UNL     1      33.360 -17.627 -25.157  0.00  0.00    -0.169 OA
BRANCH  21  24
ATOM     24  C   UNL     1      34.740 -17.718 -22.943  0.00  0.00    +0.106 C 
ATOM     25  C   UNL     1      34.184 -18.968 -22.726  0.00  0.00    +0.018 C 
ATOM     26  C   UNL     1      35.634 -17.158 -22.047  0.00  0.00    +0.018 C 
ATOM     27  C   UNL     1      34.534 -19.679 -21.578  0.00  0.00    +0.001 C 
ATOM     28  C   UNL     1      35.983 -17.869 -20.898  0.00  0.00    +0.001 C 
ATOM     29  C   UNL     1      35.433 -19.129 -20.664  0.00  0.00    +0.000 C 
ENDBRANCH  21  24
ENDBRANCH  20  21
ENDBRANCH  19  20
ENDBRANCH   7  19
TORSDOF 6
ENDMDL
