MODEL 1
REMARK VINA RESULT:     -12.0      0.000      0.000
REMARK  Name = 60149
REMARK  5 active torsions:
REMARK  status: ('A' for Active; 'I' for Inactive)
REMARK    1  A    between atoms: N_2  and  C_12
REMARK    2  A    between atoms: C_3  and  C_19
REMARK    3  A    between atoms: N_18  and  C_25
REMARK    4  A    between atoms: C_25  and  C_26
REMARK    5  A    between atoms: C_26  and  N_28
REMARK                            x       y       z     vdW  Elec       q    Type
REMARK                         _______ _______ _______ _____ _____    ______ ____
ROOT
ATOM      1 CL   UNL     1      28.876 -22.920 -15.729  0.00  0.00    -0.082 Cl
ATOM      2  N   UNL     1      34.661 -23.510 -15.153  0.00  0.00    -0.265 N 
ATOM      3  C   UNL     1      33.996 -22.696 -17.103  0.00  0.00    -0.006 C 
ATOM      4  C   UNL     1      32.842 -22.938 -16.312  0.00  0.00    +0.012 C 
ATOM      5  C   UNL     1      35.098 -23.056 -16.368  0.00  0.00    +0.065 C 
ATOM      6  C   UNL     1      33.287 -23.448 -15.091  0.00  0.00    +0.055 C 
ATOM      7  C   UNL     1      31.457 -22.772 -16.515  0.00  0.00    +0.012 C 
ATOM      8  C   UNL     1      32.412 -23.802 -14.057  0.00  0.00    +0.016 C 
ATOM      9  C   UNL     1      30.571 -23.122 -15.490  0.00  0.00    +0.058 C 
ATOM     10  C   UNL     1      31.043 -23.630 -14.281  0.00  0.00    +0.013 C 
ENDROOT
BRANCH   2  12
ATOM     11  F   UNL     1      37.990 -25.294 -11.140  0.00  0.00    -0.204 F 
ATOM     12  C   UNL     1      35.505 -23.962 -14.136  0.00  0.00    +0.056 C 
ATOM     13  C   UNL     1      35.820 -23.115 -13.083  0.00  0.00    +0.017 C 
ATOM     14  C   UNL     1      36.014 -25.251 -14.195  0.00  0.00    +0.017 C 
ATOM     15  C   UNL     1      36.664 -23.567 -12.068  0.00  0.00    +0.031 C 
ATOM     16  C   UNL     1      36.858 -25.703 -13.180  0.00  0.00    +0.031 C 
ATOM     17  C   UNL     1      37.182 -24.861 -12.116  0.00  0.00    +0.140 C 
ENDBRANCH   2  12
BRANCH   3  19
ATOM     18  N   UNL     1      34.204 -19.957 -20.458  0.00  0.00    +0.388 N 
ATOM     19  C   UNL     1      34.018 -22.142 -18.510  0.00  0.00    +0.019 C 
ATOM     20  C   UNL     1      32.850 -21.182 -18.789  0.00  0.00    -0.018 C 
ATOM     21  C   UNL     1      35.349 -21.456 -18.857  0.00  0.00    -0.018 C 
ATOM     22  C   UNL     1      32.918 -20.623 -20.212  0.00  0.00    -0.077 C 
ATOM     23  C   UNL     1      35.326 -20.886 -20.278  0.00  0.00    -0.077 C 
ATOM     24  H   UNL     1      34.305 -19.205 -19.776  0.00  0.00    -0.080 HD
BRANCH  18  25
ATOM     25  C   UNL     1      34.230 -19.378 -21.802  0.00  0.00    -0.055 C 
BRANCH  25  26
ATOM     26  C   UNL     1      35.404 -18.421 -21.942  0.00  0.00    +0.077 C 
BRANCH  26  28
ATOM     27  O   UNL     1      34.371 -18.178 -24.754  0.00  0.00    -0.252 OA
ATOM     28  N   UNL     1      35.034 -17.249 -22.689  0.00  0.00    -0.243 N 
ATOM     29  N   UNL     1      34.287 -15.879 -24.325  0.00  0.00    -0.266 N 
ATOM     30  C   UNL     1      35.043 -15.919 -22.104  0.00  0.00    +0.085 C 
ATOM     31  C   UNL     1      34.651 -14.995 -23.247  0.00  0.00    +0.082 C 
ATOM     32  C   UNL     1      34.546 -17.222 -24.009  0.00  0.00    +0.311 C 
ATOM     33  H   UNL     1      33.903 -15.576 -25.180  0.00  0.00    +0.157 HD
ENDBRANCH  26  28
ENDBRANCH  25  26
ENDBRANCH  18  25
ENDBRANCH   3  19
TORSDOF 5
ENDMDL
MODEL 2
REMARK VINA RESULT:     -11.0      2.878      4.372
REMARK  Name = 60149
REMARK  5 active torsions:
REMARK  status: ('A' for Active; 'I' for Inactive)
REMARK    1  A    between atoms: N_2  and  C_12
REMARK    2  A    between atoms: C_3  and  C_19
REMARK    3  A    between atoms: N_18  and  C_25
REMARK    4  A    between atoms: C_25  and  C_26
REMARK    5  A    between atoms: C_26  and  N_28
REMARK                            x       y       z     vdW  Elec       q    Type
REMARK                         _______ _______ _______ _____ _____    ______ ____
ROOT
ATOM      1 CL   UNL     1      38.402 -23.138 -14.886  0.00  0.00    -0.082 Cl
ATOM      2  N   UNL     1      32.773 -23.057 -16.449  0.00  0.00    -0.265 N 
ATOM      3  C   UNL     1      34.162 -22.163 -17.924  0.00  0.00    -0.006 C 
ATOM      4  C   UNL     1      34.929 -22.613 -16.816  0.00  0.00    +0.012 C 
ATOM      5  C   UNL     1      32.844 -22.448 -17.673  0.00  0.00    +0.065 C 
ATOM      6  C   UNL     1      34.032 -23.172 -15.903  0.00  0.00    +0.055 C 
ATOM      7  C   UNL     1      36.301 -22.601 -16.498  0.00  0.00    +0.012 C 
ATOM      8  C   UNL     1      34.441 -23.722 -14.683  0.00  0.00    +0.016 C 
ATOM      9  C   UNL     1      36.724 -23.147 -15.281  0.00  0.00    +0.058 C 
ATOM     10  C   UNL     1      35.807 -23.699 -14.389  0.00  0.00    +0.013 C 
ENDROOT
BRANCH   2  12
ATOM     11  F   UNL     1      28.083 -24.785 -14.126  0.00  0.00    -0.204 F 
ATOM     12  C   UNL     1      31.584 -23.495 -15.860  0.00  0.00    +0.056 C 
ATOM     13  C   UNL     1      30.384 -22.898 -16.219  0.00  0.00    +0.017 C 
ATOM     14  C   UNL     1      31.623 -24.520 -14.926  0.00  0.00    +0.017 C 
ATOM     15  C   UNL     1      29.197 -23.334 -15.629  0.00  0.00    +0.031 C 
ATOM     16  C   UNL     1      30.436 -24.957 -14.337  0.00  0.00    +0.031 C 
ATOM     17  C   UNL     1      29.223 -24.365 -14.689  0.00  0.00    +0.140 C 
ENDBRANCH   2  12
BRANCH   3  19
ATOM     18  N   UNL     1      35.621 -19.149 -20.679  0.00  0.00    +0.388 N 
ATOM     19  C   UNL     1      34.696 -21.486 -19.166  0.00  0.00    +0.019 C 
ATOM     20  C   UNL     1      33.730 -20.432 -19.730  0.00  0.00    -0.018 C 
ATOM     21  C   UNL     1      36.083 -20.859 -18.951  0.00  0.00    -0.018 C 
ATOM     22  C   UNL     1      34.313 -19.751 -20.970  0.00  0.00    -0.077 C 
ATOM     23  C   UNL     1      36.581 -20.162 -20.220  0.00  0.00    -0.077 C 
ATOM     24  H   UNL     1      35.495 -18.471 -19.928  0.00  0.00    -0.080 HD
BRANCH  18  25
ATOM     25  C   UNL     1      36.138 -18.454 -21.859  0.00  0.00    -0.055 C 
BRANCH  25  26
ATOM     26  C   UNL     1      35.014 -18.188 -22.849  0.00  0.00    +0.077 C 
BRANCH  26  28
ATOM     27  O   UNL     1      33.875 -16.628 -25.152  0.00  0.00    -0.252 OA
ATOM     28  N   UNL     1      34.742 -16.781 -22.962  0.00  0.00    -0.243 N 
ATOM     29  N   UNL     1      34.073 -14.768 -23.745  0.00  0.00    -0.266 N 
ATOM     30  C   UNL     1      34.930 -15.861 -21.854  0.00  0.00    +0.085 C 
ATOM     31  C   UNL     1      34.588 -14.495 -22.427  0.00  0.00    +0.082 C 
ATOM     32  C   UNL     1      34.194 -16.125 -24.082  0.00  0.00    +0.311 C 
ATOM     33  H   UNL     1      33.683 -14.084 -24.337  0.00  0.00    +0.157 HD
ENDBRANCH  26  28
ENDBRANCH  25  26
ENDBRANCH  18  25
ENDBRANCH   3  19
TORSDOF 5
ENDMDL
MODEL 3
REMARK VINA RESULT:     -10.1      8.103     14.582
REMARK  Name = 60149
REMARK  5 active torsions:
REMARK  status: ('A' for Active; 'I' for Inactive)
REMARK    1  A    between atoms: N_2  and  C_12
REMARK    2  A    between atoms: C_3  and  C_19
REMARK    3  A    between atoms: N_18  and  C_25
REMARK    4  A    between atoms: C_25  and  C_26
REMARK    5  A    between atoms: C_26  and  N_28
REMARK                            x       y       z     vdW  Elec       q    Type
REMARK                         _______ _______ _______ _____ _____    ______ ____
ROOT
ATOM      1 CL   UNL     1      31.535 -10.004 -17.839  0.00  0.00    -0.082 Cl
ATOM      2  N   UNL     1      33.009  -8.153 -23.181  0.00  0.00    -0.265 N 
ATOM      3  C   UNL     1      32.816 -10.349 -22.977  0.00  0.00    -0.006 C 
ATOM      4  C   UNL     1      32.534  -9.765 -21.713  0.00  0.00    +0.012 C 
ATOM      5  C   UNL     1      33.104  -9.338 -23.859  0.00  0.00    +0.065 C 
ATOM      6  C   UNL     1      32.661  -8.383 -21.869  0.00  0.00    +0.055 C 
ATOM      7  C   UNL     1      32.180 -10.276 -20.448  0.00  0.00    +0.012 C 
ATOM      8  C   UNL     1      32.452  -7.483 -20.818  0.00  0.00    +0.016 C 
ATOM      9  C   UNL     1      31.969  -9.387 -19.389  0.00  0.00    +0.058 C 
ATOM     10  C   UNL     1      32.103  -8.012 -19.572  0.00  0.00    +0.013 C 
ENDROOT
BRANCH   2  12
ATOM     11  F   UNL     1      33.893  -3.213 -25.460  0.00  0.00    -0.204 F 
ATOM     12  C   UNL     1      33.233  -6.900 -23.759  0.00  0.00    +0.056 C 
ATOM     13  C   UNL     1      34.533  -6.489 -24.013  0.00  0.00    +0.017 C 
ATOM     14  C   UNL     1      32.151  -6.088 -24.069  0.00  0.00    +0.017 C 
ATOM     15  C   UNL     1      34.757  -5.238 -24.589  0.00  0.00    +0.031 C 
ATOM     16  C   UNL     1      32.375  -4.837 -24.644  0.00  0.00    +0.031 C 
ATOM     17  C   UNL     1      33.678  -4.412 -24.906  0.00  0.00    +0.140 C 
ENDBRANCH   2  12
BRANCH   3  19
ATOM     18  N   UNL     1      34.112 -14.374 -23.939  0.00  0.00    +0.388 N 
ATOM     19  C   UNL     1      32.805 -11.826 -23.303  0.00  0.00    +0.019 C 
ATOM     20  C   UNL     1      33.386 -12.131 -24.693  0.00  0.00    -0.018 C 
ATOM     21  C   UNL     1      33.523 -12.673 -22.240  0.00  0.00    -0.018 C 
ATOM     22  C   UNL     1      33.382 -13.635 -24.978  0.00  0.00    -0.077 C 
ATOM     23  C   UNL     1      33.514 -14.158 -22.615  0.00  0.00    -0.077 C 
ATOM     24  H   UNL     1      35.068 -14.020 -23.914  0.00  0.00    -0.080 HD
BRANCH  18  25
ATOM     25  C   UNL     1      34.147 -15.802 -24.257  0.00  0.00    -0.055 C 
BRANCH  25  26
ATOM     26  C   UNL     1      35.423 -16.432 -23.716  0.00  0.00    +0.077 C 
BRANCH  26  28
ATOM     27  O   UNL     1      34.020 -19.014 -24.345  0.00  0.00    -0.252 OA
ATOM     28  N   UNL     1      35.129 -17.551 -22.863  0.00  0.00    -0.243 N 
ATOM     29  N   UNL     1      34.427 -19.563 -22.107  0.00  0.00    -0.266 N 
ATOM     30  C   UNL     1      35.576 -17.615 -21.482  0.00  0.00    +0.085 C 
ATOM     31  C   UNL     1      34.999 -18.918 -20.952  0.00  0.00    +0.082 C 
ATOM     32  C   UNL     1      34.471 -18.738 -23.241  0.00  0.00    +0.311 C 
ATOM     33  H   UNL     1      34.050 -20.473 -22.100  0.00  0.00    +0.157 HD
ENDBRANCH  26  28
ENDBRANCH  25  26
ENDBRANCH  18  25
ENDBRANCH   3  19
TORSDOF 5
ENDMDL
MODEL 4
REMARK VINA RESULT:      -9.8      1.094      1.736
REMARK  Name = 60149
REMARK  5 active torsions:
REMARK  status: ('A' for Active; 'I' for Inactive)
REMARK    1  A    between atoms: N_2  and  C_12
REMARK    2  A    between atoms: C_3  and  C_19
REMARK    3  A    between atoms: N_18  and  C_25
REMARK    4  A    between atoms: C_25  and  C_26
REMARK    5  A    between atoms: C_26  and  N_28
REMARK                            x       y       z     vdW  Elec       q    Type
REMARK                         _______ _______ _______ _____ _____    ______ ____
ROOT
ATOM      1 CL   UNL     1      29.509 -23.026 -15.760  0.00  0.00    -0.082 Cl
ATOM      2  N   UNL     1      35.172 -24.141 -14.856  0.00  0.00    -0.265 N 
ATOM      3  C   UNL     1      34.757 -22.651 -16.440  0.00  0.00    -0.006 C 
ATOM      4  C   UNL     1      33.514 -23.084 -15.909  0.00  0.00    +0.012 C 
ATOM      5  C   UNL     1      35.758 -23.315 -15.776  0.00  0.00    +0.065 C 
ATOM      6  C   UNL     1      33.802 -24.020 -14.914  0.00  0.00    +0.055 C 
ATOM      7  C   UNL     1      32.166 -22.770 -16.176  0.00  0.00    +0.012 C 
ATOM      8  C   UNL     1      32.805 -24.662 -14.170  0.00  0.00    +0.016 C 
ATOM      9  C   UNL     1      31.159 -23.405 -15.440  0.00  0.00    +0.058 C 
ATOM     10  C   UNL     1      31.476 -24.336 -14.452  0.00  0.00    +0.013 C 
ENDROOT
BRANCH   2  12
ATOM     11  F   UNL     1      37.973 -27.436 -11.438  0.00  0.00    -0.204 F 
ATOM     12  C   UNL     1      35.882 -24.977 -13.989  0.00  0.00    +0.056 C 
ATOM     13  C   UNL     1      36.433 -26.154 -14.475  0.00  0.00    +0.017 C 
ATOM     14  C   UNL     1      36.024 -24.615 -12.657  0.00  0.00    +0.017 C 
ATOM     15  C   UNL     1      37.141 -26.989 -13.609  0.00  0.00    +0.031 C 
ATOM     16  C   UNL     1      36.732 -25.450 -11.792  0.00  0.00    +0.031 C 
ATOM     17  C   UNL     1      37.292 -26.636 -12.268  0.00  0.00    +0.140 C 
ENDBRANCH   2  12
BRANCH   3  19
ATOM     18  N   UNL     1      35.607 -20.862 -20.297  0.00  0.00    +0.388 N 
ATOM     19  C   UNL     1      34.955 -21.637 -17.544  0.00  0.00    +0.019 C 
ATOM     20  C   UNL     1      36.398 -21.612 -18.076  0.00  0.00    -0.018 C 
ATOM     21  C   UNL     1      33.974 -21.831 -18.711  0.00  0.00    -0.018 C 
ATOM     22  C   UNL     1      36.555 -20.593 -19.207  0.00  0.00    -0.077 C 
ATOM     23  C   UNL     1      34.219 -20.805 -19.820  0.00  0.00    -0.077 C 
ATOM     24  H   UNL     1      35.783 -21.805 -20.642  0.00  0.00    -0.080 HD
BRANCH  18  25
ATOM     25  C   UNL     1      35.809 -19.915 -21.395  0.00  0.00    -0.055 C 
BRANCH  25  26
ATOM     26  C   UNL     1      34.469 -19.422 -21.921  0.00  0.00    +0.077 C 
BRANCH  26  28
ATOM     27  O   UNL     1      33.593 -18.795 -24.727  0.00  0.00    -0.252 OA
ATOM     28  N   UNL     1      34.622 -18.213 -22.685  0.00  0.00    -0.243 N 
ATOM     29  N   UNL     1      34.505 -16.675 -24.337  0.00  0.00    -0.266 N 
ATOM     30  C   UNL     1      35.207 -17.008 -22.124  0.00  0.00    +0.085 C 
ATOM     31  C   UNL     1      35.230 -16.019 -23.278  0.00  0.00    +0.082 C 
ATOM     32  C   UNL     1      34.171 -17.996 -24.001  0.00  0.00    +0.311 C 
ATOM     33  H   UNL     1      34.274 -16.247 -25.194  0.00  0.00    +0.157 HD
ENDBRANCH  26  28
ENDBRANCH  25  26
ENDBRANCH  18  25
ENDBRANCH   3  19
TORSDOF 5
ENDMDL
