MODEL 1
REMARK VINA RESULT:     -11.7      0.000      0.000
REMARK  Name = 24779724
REMARK  3 active torsions:
REMARK  status: ('A' for Active; 'I' for Inactive)
REMARK    1  A    between atoms: C_5  and  C_12
REMARK    2  A    between atoms: C_7  and  S_16
REMARK    3  A    between atoms: S_16  and  C_19
REMARK                            x       y       z     vdW  Elec       q    Type
REMARK                         _______ _______ _______ _____ _____    ______ ____
ROOT
ATOM      1  N   UNL     1      34.494 -21.637 -18.432  0.00  0.00    -0.186 N 
ATOM      2  N   UNL     1      35.521 -21.980 -17.615  0.00  0.00    -0.162 NA
ATOM      3  N   UNL     1      32.483 -21.455 -19.296  0.00  0.00    -0.126 NA
ATOM      4  N   UNL     1      33.365 -20.748 -20.087  0.00  0.00    -0.120 NA
ATOM      5  C   UNL     1      35.163 -22.720 -16.603  0.00  0.00    +0.104 C 
ATOM      6  C   UNL     1      33.170 -21.984 -18.305  0.00  0.00    +0.187 A 
ATOM      7  C   UNL     1      34.562 -20.869 -19.559  0.00  0.00    +0.217 A 
ATOM      8  C   UNL     1      33.762 -23.188 -16.349  0.00  0.00    +0.024 C 
ATOM      9  C   UNL     1      32.815 -22.799 -17.212  0.00  0.00    +0.042 C 
ENDROOT
BRANCH   5  12
ATOM     10  N   UNL     1      37.269 -24.248 -14.070  0.00  0.00    -0.208 N 
ATOM     11  N   UNL     1      38.129 -23.275 -14.416  0.00  0.00    -0.176 NA
ATOM     12  C   UNL     1      36.198 -23.157 -15.631  0.00  0.00    +0.056 C 
ATOM     13  C   UNL     1      36.097 -24.221 -14.768  0.00  0.00    +0.087 C 
ATOM     14  C   UNL     1      37.470 -22.612 -15.370  0.00  0.00    +0.121 C 
ATOM     15  C   UNL     1      37.632 -25.195 -13.043  0.00  0.00    +0.140 C 
ENDBRANCH   5  12
BRANCH   7  16
ATOM     16  S   UNL     1      36.079 -20.156 -20.176  0.00  0.00    -0.051 S 
BRANCH  16  19
ATOM     17  N   UNL     1      34.034 -16.766 -24.616  0.00  0.00    -0.248 NA
ATOM     18  C   UNL     1      34.982 -16.934 -22.407  0.00  0.00    -0.003 C 
ATOM     19  C   UNL     1      35.469 -19.132 -21.500  0.00  0.00    +0.011 C 
ATOM     20  C   UNL     1      34.501 -17.515 -23.600  0.00  0.00    +0.060 C 
ATOM     21  C   UNL     1      35.463 -17.746 -21.367  0.00  0.00    +0.060 C 
ATOM     22  C   UNL     1      34.996 -19.710 -22.671  0.00  0.00    -0.017 C 
ATOM     23  C   UNL     1      34.519 -18.903 -23.706  0.00  0.00    +0.072 C 
ATOM     24  C   UNL     1      34.965 -15.537 -22.301  0.00  0.00    -0.001 C 
ATOM     25  C   UNL     1      34.484 -14.763 -23.346  0.00  0.00    +0.020 C 
ATOM     26  C   UNL     1      34.034 -15.421 -24.473  0.00  0.00    +0.098 C 
ENDBRANCH  16  19
ENDBRANCH   7  16
TORSDOF 3
ENDMDL
MODEL 2
REMARK VINA RESULT:     -10.5      2.296      9.309
REMARK  Name = 24779724
REMARK  3 active torsions:
REMARK  status: ('A' for Active; 'I' for Inactive)
REMARK    1  A    between atoms: C_5  and  C_12
REMARK    2  A    between atoms: C_7  and  S_16
REMARK    3  A    between atoms: S_16  and  C_19
REMARK                            x       y       z     vdW  Elec       q    Type
REMARK                         _______ _______ _______ _____ _____    ______ ____
ROOT
ATOM      1  N   UNL     1      35.328 -20.172 -20.130  0.00  0.00    -0.186 N 
ATOM      2  N   UNL     1      34.658 -19.553 -21.133  0.00  0.00    -0.162 NA
ATOM      3  N   UNL     1      36.920 -20.777 -18.743  0.00  0.00    -0.126 NA
ATOM      4  N   UNL     1      35.773 -21.476 -18.425  0.00  0.00    -0.120 NA
ATOM      5  C   UNL     1      35.381 -18.698 -21.799  0.00  0.00    +0.104 C 
ATOM      6  C   UNL     1      36.642 -19.997 -19.767  0.00  0.00    +0.187 A 
ATOM      7  C   UNL     1      34.833 -21.105 -19.265  0.00  0.00    +0.217 A 
ATOM      8  C   UNL     1      36.829 -18.418 -21.527  0.00  0.00    +0.024 C 
ATOM      9  C   UNL     1      37.405 -19.080 -20.515  0.00  0.00    +0.042 C 
ENDROOT
BRANCH   5  12
ATOM     10  N   UNL     1      34.085 -16.343 -24.241  0.00  0.00    -0.208 N 
ATOM     11  N   UNL     1      33.627 -17.454 -24.843  0.00  0.00    -0.176 NA
ATOM     12  C   UNL     1      34.759 -17.948 -22.921  0.00  0.00    +0.056 C 
ATOM     13  C   UNL     1      34.769 -16.585 -23.085  0.00  0.00    +0.087 C 
ATOM     14  C   UNL     1      34.042 -18.431 -24.033  0.00  0.00    +0.121 C 
ATOM     15  C   UNL     1      33.830 -15.050 -24.831  0.00  0.00    +0.140 C 
ENDBRANCH   5  12
BRANCH   7  16
ATOM     16  S   UNL     1      33.147 -21.695 -19.309  0.00  0.00    -0.051 S 
BRANCH  16  19
ATOM     17  N   UNL     1      32.624 -24.037 -13.866  0.00  0.00    -0.248 NA
ATOM     18  C   UNL     1      31.594 -23.001 -15.782  0.00  0.00    -0.003 C 
ATOM     19  C   UNL     1      32.980 -22.395 -17.680  0.00  0.00    +0.011 C 
ATOM     20  C   UNL     1      32.721 -23.504 -15.098  0.00  0.00    +0.060 C 
ATOM     21  C   UNL     1      31.731 -22.451 -17.067  0.00  0.00    +0.060 C 
ATOM     22  C   UNL     1      34.093 -22.887 -17.012  0.00  0.00    -0.017 C 
ATOM     23  C   UNL     1      33.957 -23.435 -15.735  0.00  0.00    +0.072 C 
ATOM     24  C   UNL     1      30.350 -23.071 -15.142  0.00  0.00    -0.001 C 
ATOM     25  C   UNL     1      30.247 -23.620 -13.872  0.00  0.00    +0.020 C 
ATOM     26  C   UNL     1      31.405 -24.085 -13.283  0.00  0.00    +0.098 C 
ENDBRANCH  16  19
ENDBRANCH   7  16
TORSDOF 3
ENDMDL
MODEL 3
REMARK VINA RESULT:     -10.2      5.717     12.030
REMARK  Name = 24779724
REMARK  3 active torsions:
REMARK  status: ('A' for Active; 'I' for Inactive)
REMARK    1  A    between atoms: C_5  and  C_12
REMARK    2  A    between atoms: C_7  and  S_16
REMARK    3  A    between atoms: S_16  and  C_19
REMARK                            x       y       z     vdW  Elec       q    Type
REMARK                         _______ _______ _______ _____ _____    ______ ____
ROOT
ATOM      1  N   UNL     1      32.627 -11.581 -21.962  0.00  0.00    -0.186 N 
ATOM      2  N   UNL     1      32.783 -10.457 -22.706  0.00  0.00    -0.162 NA
ATOM      3  N   UNL     1      32.028 -12.960 -20.361  0.00  0.00    -0.126 NA
ATOM      4  N   UNL     1      32.749 -13.667 -21.302  0.00  0.00    -0.120 NA
ATOM      5  C   UNL     1      32.216  -9.403 -22.191  0.00  0.00    +0.104 C 
ATOM      6  C   UNL     1      31.960 -11.709 -20.767  0.00  0.00    +0.187 A 
ATOM      7  C   UNL     1      33.100 -12.829 -22.250  0.00  0.00    +0.217 A 
ATOM      8  C   UNL     1      31.473  -9.390 -20.889  0.00  0.00    +0.024 C 
ATOM      9  C   UNL     1      31.372 -10.549 -20.226  0.00  0.00    +0.042 C 
ENDROOT
BRANCH   5  12
ATOM     10  N   UNL     1      33.086  -6.334 -23.927  0.00  0.00    -0.208 N 
ATOM     11  N   UNL     1      31.753  -6.165 -23.977  0.00  0.00    -0.176 NA
ATOM     12  C   UNL     1      32.311  -8.109 -22.914  0.00  0.00    +0.056 C 
ATOM     13  C   UNL     1      33.472  -7.483 -23.300  0.00  0.00    +0.087 C 
ATOM     14  C   UNL     1      31.286  -7.252 -23.358  0.00  0.00    +0.121 C 
ATOM     15  C   UNL     1      33.957  -5.341 -24.507  0.00  0.00    +0.140 C 
ENDBRANCH   5  12
BRANCH   7  16
ATOM     16  S   UNL     1      34.049 -13.210 -23.714  0.00  0.00    -0.051 S 
BRANCH  16  19
ATOM     17  N   UNL     1      34.919 -19.060 -23.079  0.00  0.00    -0.248 NA
ATOM     18  C   UNL     1      35.070 -16.834 -22.170  0.00  0.00    -0.003 C 
ATOM     19  C   UNL     1      34.313 -14.960 -23.514  0.00  0.00    +0.011 C 
ATOM     20  C   UNL     1      34.730 -17.733 -23.202  0.00  0.00    +0.060 C 
ATOM     21  C   UNL     1      34.859 -15.454 -22.333  0.00  0.00    +0.060 C 
ATOM     22  C   UNL     1      33.976 -15.840 -24.534  0.00  0.00    -0.017 C 
ATOM     23  C   UNL     1      34.186 -17.211 -24.373  0.00  0.00    +0.072 C 
ATOM     24  C   UNL     1      35.618 -17.359 -20.992  0.00  0.00    -0.001 C 
ATOM     25  C   UNL     1      35.814 -18.726 -20.862  0.00  0.00    +0.020 C 
ATOM     26  C   UNL     1      35.450 -19.526 -21.926  0.00  0.00    +0.098 C 
ENDBRANCH  16  19
ENDBRANCH   7  16
TORSDOF 3
ENDMDL
MODEL 4
REMARK VINA RESULT:     -10.2      3.565      6.128
REMARK  Name = 24779724
REMARK  3 active torsions:
REMARK  status: ('A' for Active; 'I' for Inactive)
REMARK    1  A    between atoms: C_5  and  C_12
REMARK    2  A    between atoms: C_7  and  S_16
REMARK    3  A    between atoms: S_16  and  C_19
REMARK                            x       y       z     vdW  Elec       q    Type
REMARK                         _______ _______ _______ _____ _____    ______ ____
ROOT
ATOM      1  N   UNL     1      32.689 -23.071 -16.067  0.00  0.00    -0.186 N 
ATOM      2  N   UNL     1      31.385 -22.987 -16.431  0.00  0.00    -0.162 NA
ATOM      3  N   UNL     1      34.517 -23.159 -14.854  0.00  0.00    -0.126 NA
ATOM      4  N   UNL     1      34.870 -23.251 -16.185  0.00  0.00    -0.120 NA
ATOM      5  C   UNL     1      30.564 -22.881 -15.424  0.00  0.00    +0.104 C 
ATOM      6  C   UNL     1      33.207 -23.051 -14.793  0.00  0.00    +0.187 A 
ATOM      7  C   UNL     1      33.766 -23.195 -16.895  0.00  0.00    +0.217 A 
ATOM      8  C   UNL     1      30.986 -22.829 -13.987  0.00  0.00    +0.024 C 
ATOM      9  C   UNL     1      32.297 -22.918 -13.726  0.00  0.00    +0.042 C 
ENDROOT
BRANCH   5  12
ATOM     10  N   UNL     1      26.970 -22.363 -15.504  0.00  0.00    -0.208 N 
ATOM     11  N   UNL     1      27.063 -22.971 -16.699  0.00  0.00    -0.176 NA
ATOM     12  C   UNL     1      29.106 -22.787 -15.692  0.00  0.00    +0.056 C 
ATOM     13  C   UNL     1      28.166 -22.230 -14.860  0.00  0.00    +0.087 C 
ATOM     14  C   UNL     1      28.369 -23.227 -16.809  0.00  0.00    +0.121 C 
ATOM     15  C   UNL     1      25.683 -21.924 -15.021  0.00  0.00    +0.140 C 
ENDBRANCH   5  12
BRANCH   7  16
ATOM     16  S   UNL     1      33.638 -23.270 -18.675  0.00  0.00    -0.051 S 
BRANCH  16  19
ATOM     17  N   UNL     1      37.260 -18.828 -20.267  0.00  0.00    -0.248 NA
ATOM     18  C   UNL     1      35.182 -20.011 -20.561  0.00  0.00    -0.003 C 
ATOM     19  C   UNL     1      34.715 -21.936 -19.159  0.00  0.00    +0.011 C 
ATOM     20  C   UNL     1      36.426 -19.826 -19.922  0.00  0.00    +0.060 C 
ATOM     21  C   UNL     1      34.336 -21.064 -20.176  0.00  0.00    +0.060 C 
ATOM     22  C   UNL     1      35.938 -21.760 -18.525  0.00  0.00    -0.017 C 
ATOM     23  C   UNL     1      36.780 -20.713 -18.908  0.00  0.00    +0.072 C 
ATOM     24  C   UNL     1      34.826 -19.118 -21.581  0.00  0.00    -0.001 C 
ATOM     25  C   UNL     1      35.684 -18.088 -21.939  0.00  0.00    +0.020 C 
ATOM     26  C   UNL     1      36.879 -17.988 -21.256  0.00  0.00    +0.098 C 
ENDBRANCH  16  19
ENDBRANCH   7  16
TORSDOF 3
ENDMDL
MODEL 5
REMARK VINA RESULT:     -10.1      1.707      2.534
REMARK  Name = 24779724
REMARK  3 active torsions:
REMARK  status: ('A' for Active; 'I' for Inactive)
REMARK    1  A    between atoms: C_5  and  C_12
REMARK    2  A    between atoms: C_7  and  S_16
REMARK    3  A    between atoms: S_16  and  C_19
REMARK                            x       y       z     vdW  Elec       q    Type
REMARK                         _______ _______ _______ _____ _____    ______ ____
ROOT
ATOM      1  N   UNL     1      34.120 -22.495 -17.180  0.00  0.00    -0.186 N 
ATOM      2  N   UNL     1      34.851 -22.826 -16.087  0.00  0.00    -0.162 NA
ATOM      3  N   UNL     1      32.432 -22.200 -18.554  0.00  0.00    -0.126 NA
ATOM      4  N   UNL     1      33.583 -21.755 -19.172  0.00  0.00    -0.120 NA
ATOM      5  C   UNL     1      34.144 -23.335 -15.117  0.00  0.00    +0.104 C 
ATOM      6  C   UNL     1      32.765 -22.642 -17.359  0.00  0.00    +0.187 A 
ATOM      7  C   UNL     1      34.582 -21.940 -18.339  0.00  0.00    +0.217 A 
ATOM      8  C   UNL     1      32.665 -23.570 -15.178  0.00  0.00    +0.024 C 
ATOM      9  C   UNL     1      32.030 -23.211 -16.301  0.00  0.00    +0.042 C 
ENDROOT
BRANCH   5  12
ATOM     10  N   UNL     1      36.362 -24.229 -12.383  0.00  0.00    -0.208 N 
ATOM     11  N   UNL     1      35.212 -24.392 -11.707  0.00  0.00    -0.176 NA
ATOM     12  C   UNL     1      34.830 -23.734 -13.861  0.00  0.00    +0.056 C 
ATOM     13  C   UNL     1      36.187 -23.835 -13.678  0.00  0.00    +0.087 C 
ATOM     14  C   UNL     1      34.280 -24.088 -12.613  0.00  0.00    +0.121 C 
ATOM     15  C   UNL     1      37.623 -24.469 -11.724  0.00  0.00    +0.140 C 
ENDBRANCH   5  12
BRANCH   7  16
ATOM     16  S   UNL     1      36.299 -21.541 -18.626  0.00  0.00    -0.051 S 
BRANCH  16  19
ATOM     17  N   UNL     1      35.869 -17.342 -22.818  0.00  0.00    -0.248 NA
ATOM     18  C   UNL     1      35.026 -19.368 -21.823  0.00  0.00    -0.003 C 
ATOM     19  C   UNL     1      36.161 -20.289 -19.885  0.00  0.00    +0.011 C 
ATOM     20  C   UNL     1      35.948 -18.302 -21.877  0.00  0.00    +0.060 C 
ATOM     21  C   UNL     1      35.139 -20.353 -20.827  0.00  0.00    +0.060 C 
ATOM     22  C   UNL     1      37.073 -19.242 -19.933  0.00  0.00    -0.017 C 
ATOM     23  C   UNL     1      36.961 -18.263 -20.922  0.00  0.00    +0.072 C 
ATOM     24  C   UNL     1      34.007 -19.408 -22.784  0.00  0.00    -0.001 C 
ATOM     25  C   UNL     1      33.923 -18.420 -23.754  0.00  0.00    +0.020 C 
ATOM     26  C   UNL     1      34.871 -17.417 -23.727  0.00  0.00    +0.098 C 
ENDBRANCH  16  19
ENDBRANCH   7  16
TORSDOF 3
ENDMDL
MODEL 6
REMARK VINA RESULT:     -10.0      4.879      9.497
REMARK  Name = 24779724
REMARK  3 active torsions:
REMARK  status: ('A' for Active; 'I' for Inactive)
REMARK    1  A    between atoms: C_5  and  C_12
REMARK    2  A    between atoms: C_7  and  S_16
REMARK    3  A    between atoms: S_16  and  C_19
REMARK                            x       y       z     vdW  Elec       q    Type
REMARK                         _______ _______ _______ _____ _____    ______ ____
ROOT
ATOM      1  N   UNL     1      35.283 -22.535 -16.284  0.00  0.00    -0.186 N 
ATOM      2  N   UNL     1      34.168 -22.951 -15.633  0.00  0.00    -0.162 NA
ATOM      3  N   UNL     1      36.630 -21.773 -17.843  0.00  0.00    -0.126 NA
ATOM      4  N   UNL     1      37.370 -22.013 -16.703  0.00  0.00    -0.120 NA
ATOM      5  C   UNL     1      33.086 -22.901 -16.358  0.00  0.00    +0.104 C 
ATOM      6  C   UNL     1      35.379 -22.089 -17.581  0.00  0.00    +0.187 A 
ATOM      7  C   UNL     1      36.551 -22.469 -15.783  0.00  0.00    +0.217 A 
ATOM      8  C   UNL     1      33.044 -22.455 -17.788  0.00  0.00    +0.024 C 
ATOM      9  C   UNL     1      34.196 -22.063 -18.346  0.00  0.00    +0.042 C 
ENDROOT
BRANCH   5  12
ATOM     10  N   UNL     1      29.666 -23.563 -15.333  0.00  0.00    -0.208 N 
ATOM     11  N   UNL     1      30.255 -24.340 -14.408  0.00  0.00    -0.176 NA
ATOM     12  C   UNL     1      31.797 -23.326 -15.755  0.00  0.00    +0.056 C 
ATOM     13  C   UNL     1      30.546 -22.933 -16.164  0.00  0.00    +0.087 C 
ATOM     14  C   UNL     1      31.556 -24.192 -14.671  0.00  0.00    +0.121 C 
ATOM     15  C   UNL     1      28.227 -23.460 -15.372  0.00  0.00    +0.140 C 
ENDBRANCH   5  12
BRANCH   7  16
ATOM     16  S   UNL     1      36.977 -22.942 -14.114  0.00  0.00    -0.051 S 
BRANCH  16  19
ATOM     17  N   UNL     1      38.515 -28.636 -14.887  0.00  0.00    -0.248 NA
ATOM     18  C   UNL     1      39.166 -26.353 -14.474  0.00  0.00    -0.003 C 
ATOM     19  C   UNL     1      37.448 -24.644 -14.343  0.00  0.00    +0.011 C 
ATOM     20  C   UNL     1      38.189 -27.342 -14.709  0.00  0.00    +0.060 C 
ATOM     21  C   UNL     1      38.790 -25.012 -14.293  0.00  0.00    +0.060 C 
ATOM     22  C   UNL     1      36.480 -25.612 -14.575  0.00  0.00    -0.017 C 
ATOM     23  C   UNL     1      36.854 -26.946 -14.755  0.00  0.00    +0.072 C 
ATOM     24  C   UNL     1      40.509 -26.751 -14.428  0.00  0.00    -0.001 C 
ATOM     25  C   UNL     1      40.849 -28.084 -14.611  0.00  0.00    +0.020 C 
ATOM     26  C   UNL     1      39.822 -28.979 -14.835  0.00  0.00    +0.098 C 
ENDBRANCH  16  19
ENDBRANCH   7  16
TORSDOF 3
ENDMDL
MODEL 7
REMARK VINA RESULT:      -9.9      6.103     12.429
REMARK  Name = 24779724
REMARK  3 active torsions:
REMARK  status: ('A' for Active; 'I' for Inactive)
REMARK    1  A    between atoms: C_5  and  C_12
REMARK    2  A    between atoms: C_7  and  S_16
REMARK    3  A    between atoms: S_16  and  C_19
REMARK                            x       y       z     vdW  Elec       q    Type
REMARK                         _______ _______ _______ _____ _____    ______ ____
ROOT
ATOM      1  N   UNL     1      32.644 -10.989 -22.208  0.00  0.00    -0.186 N 
ATOM      2  N   UNL     1      33.161  -9.929 -22.876  0.00  0.00    -0.162 NA
ATOM      3  N   UNL     1      31.571 -12.202 -20.723  0.00  0.00    -0.126 NA
ATOM      4  N   UNL     1      32.130 -13.048 -21.659  0.00  0.00    -0.120 NA
ATOM      5  C   UNL     1      32.876  -8.778 -22.337  0.00  0.00    +0.104 C 
ATOM      6  C   UNL     1      31.885 -10.969 -21.061  0.00  0.00    +0.187 A 
ATOM      7  C   UNL     1      32.768 -12.308 -22.537  0.00  0.00    +0.217 A 
ATOM      8  C   UNL     1      32.076  -8.604 -21.081  0.00  0.00    +0.024 C 
ATOM      9  C   UNL     1      31.608  -9.711 -20.491  0.00  0.00    +0.042 C 
ENDROOT
BRANCH   5  12
ATOM     10  N   UNL     1      33.488  -5.603 -23.990  0.00  0.00    -0.208 N 
ATOM     11  N   UNL     1      34.779  -5.931 -23.808  0.00  0.00    -0.176 NA
ATOM     12  C   UNL     1      33.381  -7.537 -22.980  0.00  0.00    +0.056 C 
ATOM     13  C   UNL     1      32.611  -6.532 -23.512  0.00  0.00    +0.087 C 
ATOM     14  C   UNL     1      34.707  -7.112 -23.190  0.00  0.00    +0.121 C 
ATOM     15  C   UNL     1      33.149  -4.360 -24.642  0.00  0.00    +0.140 C 
ENDBRANCH   5  12
BRANCH   7  16
ATOM     16  S   UNL     1      33.674 -12.887 -23.964  0.00  0.00    -0.051 S 
BRANCH  16  19
ATOM     17  N   UNL     1      35.246 -18.341 -22.182  0.00  0.00    -0.248 NA
ATOM     18  C   UNL     1      34.233 -16.916 -23.841  0.00  0.00    -0.003 C 
ATOM     19  C   UNL     1      34.141 -14.524 -23.440  0.00  0.00    +0.011 C 
ATOM     20  C   UNL     1      34.883 -17.115 -22.604  0.00  0.00    +0.060 C 
ATOM     21  C   UNL     1      33.868 -15.623 -24.250  0.00  0.00    +0.060 C 
ATOM     22  C   UNL     1      34.779 -14.713 -22.221  0.00  0.00    -0.017 C 
ATOM     23  C   UNL     1      35.143 -15.998 -21.814  0.00  0.00    +0.072 C 
ATOM     24  C   UNL     1      33.971 -18.040 -24.635  0.00  0.00    -0.001 C 
ATOM     25  C   UNL     1      34.344 -19.304 -24.203  0.00  0.00    +0.020 C 
ATOM     26  C   UNL     1      34.974 -19.399 -22.979  0.00  0.00    +0.098 C 
ENDBRANCH  16  19
ENDBRANCH   7  16
TORSDOF 3
ENDMDL
MODEL 8
REMARK VINA RESULT:      -9.9      1.940      9.457
REMARK  Name = 24779724
REMARK  3 active torsions:
REMARK  status: ('A' for Active; 'I' for Inactive)
REMARK    1  A    between atoms: C_5  and  C_12
REMARK    2  A    between atoms: C_7  and  S_16
REMARK    3  A    between atoms: S_16  and  C_19
REMARK                            x       y       z     vdW  Elec       q    Type
REMARK                         _______ _______ _______ _____ _____    ______ ____
ROOT
ATOM      1  N   UNL     1      34.990 -21.731 -18.143  0.00  0.00    -0.186 N 
ATOM      2  N   UNL     1      35.497 -20.804 -18.993  0.00  0.00    -0.162 NA
ATOM      3  N   UNL     1      33.623 -23.153 -17.178  0.00  0.00    -0.126 NA
ATOM      4  N   UNL     1      34.821 -23.163 -16.493  0.00  0.00    -0.120 NA
ATOM      5  C   UNL     1      34.665 -20.434 -19.926  0.00  0.00    +0.104 C 
ATOM      6  C   UNL     1      33.734 -22.291 -18.166  0.00  0.00    +0.187 A 
ATOM      7  C   UNL     1      35.625 -22.307 -17.082  0.00  0.00    +0.217 A 
ATOM      8  C   UNL     1      33.262 -20.945 -20.062  0.00  0.00    +0.024 C 
ATOM      9  C   UNL     1      32.850 -21.859 -19.175  0.00  0.00    +0.042 C 
ENDROOT
BRANCH   5  12
ATOM     10  N   UNL     1      35.208 -18.136 -22.685  0.00  0.00    -0.208 N 
ATOM     11  N   UNL     1      36.314 -17.810 -21.996  0.00  0.00    -0.176 NA
ATOM     12  C   UNL     1      35.105 -19.425 -20.924  0.00  0.00    +0.056 C 
ATOM     13  C   UNL     1      34.450 -19.100 -22.086  0.00  0.00    +0.087 C 
ATOM     14  C   UNL     1      36.247 -18.600 -20.921  0.00  0.00    +0.121 C 
ATOM     15  C   UNL     1      34.923 -17.478 -23.938  0.00  0.00    +0.140 C 
ENDBRANCH   5  12
BRANCH   7  16
ATOM     16  S   UNL     1      37.304 -21.920 -16.608  0.00  0.00    -0.051 S 
BRANCH  16  19
ATOM     17  N   UNL     1      38.017 -25.388 -11.828  0.00  0.00    -0.248 NA
ATOM     18  C   UNL     1      36.864 -23.573 -12.916  0.00  0.00    -0.003 C 
ATOM     19  C   UNL     1      37.508 -22.953 -15.172  0.00  0.00    +0.011 C 
ATOM     20  C   UNL     1      37.839 -24.593 -12.899  0.00  0.00    +0.060 C 
ATOM     21  C   UNL     1      36.705 -22.762 -14.052  0.00  0.00    +0.060 C 
ATOM     22  C   UNL     1      38.471 -23.954 -15.162  0.00  0.00    -0.017 C 
ATOM     23  C   UNL     1      38.629 -24.761 -14.034  0.00  0.00    +0.072 C 
ATOM     24  C   UNL     1      36.069 -23.403 -11.775  0.00  0.00    -0.001 C 
ATOM     25  C   UNL     1      36.250 -24.221 -10.669  0.00  0.00    +0.020 C 
ATOM     26  C   UNL     1      37.229 -25.190 -10.747  0.00  0.00    +0.098 C 
ENDBRANCH  16  19
ENDBRANCH   7  16
TORSDOF 3
ENDMDL
MODEL 9
REMARK VINA RESULT:      -9.8      8.291     13.063
REMARK  Name = 24779724
REMARK  3 active torsions:
REMARK  status: ('A' for Active; 'I' for Inactive)
REMARK    1  A    between atoms: C_5  and  C_12
REMARK    2  A    between atoms: C_7  and  S_16
REMARK    3  A    between atoms: S_16  and  C_19
REMARK                            x       y       z     vdW  Elec       q    Type
REMARK                         _______ _______ _______ _____ _____    ______ ____
ROOT
ATOM      1  N   UNL     1      32.991 -10.015 -22.372  0.00  0.00    -0.186 N 
ATOM      2  N   UNL     1      33.469 -11.053 -23.103  0.00  0.00    -0.162 NA
ATOM      3  N   UNL     1      31.854  -8.844 -20.902  0.00  0.00    -0.126 NA
ATOM      4  N   UNL     1      32.680  -7.987 -21.602  0.00  0.00    -0.120 NA
ATOM      5  C   UNL     1      32.951 -12.205 -22.783  0.00  0.00    +0.104 C 
ATOM      6  C   UNL     1      32.048 -10.058 -21.372  0.00  0.00    +0.187 A 
ATOM      7  C   UNL     1      33.350  -8.702 -22.477  0.00  0.00    +0.217 A 
ATOM      8  C   UNL     1      31.903 -12.400 -21.728  0.00  0.00    +0.024 C 
ATOM      9  C   UNL     1      31.493 -11.315 -21.059  0.00  0.00    +0.042 C 
ENDROOT
BRANCH   5  12
ATOM     10  N   UNL     1      34.234 -15.385 -23.978  0.00  0.00    -0.208 N 
ATOM     11  N   UNL     1      33.826 -14.926 -25.173  0.00  0.00    -0.176 NA
ATOM     12  C   UNL     1      33.397 -13.421 -23.509  0.00  0.00    +0.056 C 
ATOM     13  C   UNL     1      34.000 -14.521 -22.948  0.00  0.00    +0.087 C 
ATOM     14  C   UNL     1      33.316 -13.727 -24.881  0.00  0.00    +0.121 C 
ATOM     15  C   UNL     1      34.854 -16.684 -23.881  0.00  0.00    +0.140 C 
ENDBRANCH   5  12
BRANCH   7  16
ATOM     16  S   UNL     1      34.560  -8.101 -23.645  0.00  0.00    -0.051 S 
BRANCH  16  19
ATOM     17  N   UNL     1      32.641  -2.553 -24.610  0.00  0.00    -0.248 NA
ATOM     18  C   UNL     1      32.634  -4.538 -23.244  0.00  0.00    -0.003 C 
ATOM     19  C   UNL     1      33.980  -6.440 -23.924  0.00  0.00    +0.011 C 
ATOM     20  C   UNL     1      33.063  -3.809 -24.372  0.00  0.00    +0.060 C 
ATOM     21  C   UNL     1      33.095  -5.848 -23.028  0.00  0.00    +0.060 C 
ATOM     22  C   UNL     1      34.406  -5.729 -25.038  0.00  0.00    -0.017 C 
ATOM     23  C   UNL     1      33.948  -4.427 -25.253  0.00  0.00    +0.072 C 
ATOM     24  C   UNL     1      31.744  -3.917 -22.358  0.00  0.00    -0.001 C 
ATOM     25  C   UNL     1      31.307  -2.623 -22.599  0.00  0.00    +0.020 C 
ATOM     26  C   UNL     1      31.782  -1.990 -23.730  0.00  0.00    +0.098 C 
ENDBRANCH  16  19
ENDBRANCH   7  16
TORSDOF 3
ENDMDL
