MODEL 1
REMARK VINA RESULT:     -11.9      0.000      0.000
REMARK  Name = 24779676
REMARK  4 active torsions:
REMARK  status: ('A' for Active; 'I' for Inactive)
REMARK    1  A    between atoms: N_2  and  C_22
REMARK    2  A    between atoms: N_3  and  C_14
REMARK    3  A    between atoms: C_10  and  C_21
REMARK    4  A    between atoms: C_22  and  C_24
REMARK                            x       y       z     vdW  Elec       q    Type
REMARK                         _______ _______ _______ _____ _____    ______ ____
ROOT
ATOM      1  N   UNL     1      32.395 -24.287 -13.783  0.00  0.00    -0.123 N 
ATOM      2  N   UNL     1      34.121 -22.767 -17.059  0.00  0.00    -0.254 N 
ATOM      3  N   UNL     1      34.475 -24.575 -12.701  0.00  0.00    -0.274 N 
ATOM      4  N   UNL     1      34.304 -23.669 -14.885  0.00  0.00    -0.295 NA
ATOM      5  N   UNL     1      32.182 -23.394 -15.948  0.00  0.00    -0.314 NA
ATOM      6  N   UNL     1      31.711 -24.783 -12.737  0.00  0.00    -0.170 NA
ATOM      7  C   UNL     1      33.776 -24.166 -13.804  0.00  0.00    +0.279 C 
ATOM      8  C   UNL     1      31.613 -23.908 -14.835  0.00  0.00    +0.219 C 
ATOM      9  C   UNL     1      33.493 -23.286 -15.951  0.00  0.00    +0.203 C 
ATOM     10  C   UNL     1      30.320 -24.177 -14.448  0.00  0.00    +0.203 C 
ATOM     11  C   UNL     1      30.442 -24.713 -13.150  0.00  0.00    +0.116 C 
ATOM     12  H   UNL     1      35.102 -22.688 -17.058  0.00  0.00    +0.161 HD
ATOM     13  H   UNL     1      33.945 -24.932 -11.952  0.00  0.00    +0.156 HD
ENDROOT
BRANCH   3  14
ATOM     14  C   UNL     1      35.859 -24.539 -12.525  0.00  0.00    +0.051 C 
ATOM     15  C   UNL     1      36.439 -23.525 -11.764  0.00  0.00    +0.015 C 
ATOM     16  C   UNL     1      36.662 -25.519 -13.110  0.00  0.00    +0.015 C 
ATOM     17  C   UNL     1      37.823 -23.490 -11.587  0.00  0.00    +0.001 C 
ATOM     18  C   UNL     1      38.045 -25.484 -12.933  0.00  0.00    +0.001 C 
ATOM     19  C   UNL     1      38.625 -24.470 -12.172  0.00  0.00    +0.000 C 
ENDBRANCH   3  14
BRANCH  10  21
ATOM     20  N   UNL     1      28.177 -23.772 -15.828  0.00  0.00    -0.195 NA
ATOM     21  C   UNL     1      29.141 -23.954 -15.208  0.00  0.00    +0.087 C 
ENDBRANCH  10  21
BRANCH   2  22
ATOM     22  C   UNL     1      33.395 -22.340 -18.213  0.00  0.00    +0.125 C 
BRANCH  22  24
ATOM     23 CL   UNL     1      36.736 -18.605 -21.538  0.00  0.00    -0.082 Cl
ATOM     24  C   UNL     1      34.230 -21.407 -19.045  0.00  0.00    -0.002 C 
ATOM     25  C   UNL     1      33.618 -20.554 -19.965  0.00  0.00    -0.002 C 
ATOM     26  C   UNL     1      35.617 -21.392 -18.896  0.00  0.00    -0.002 C 
ATOM     27  C   UNL     1      34.394 -19.688 -20.735  0.00  0.00    +0.011 C 
ATOM     28  C   UNL     1      36.392 -20.526 -19.667  0.00  0.00    +0.011 C 
ATOM     29  C   UNL     1      35.780 -19.674 -20.586  0.00  0.00    +0.058 C 
ENDBRANCH  22  24
ENDBRANCH   2  22
TORSDOF 4
ENDMDL
MODEL 2
REMARK VINA RESULT:     -10.9      1.479      5.454
REMARK  Name = 24779676
REMARK  4 active torsions:
REMARK  status: ('A' for Active; 'I' for Inactive)
REMARK    1  A    between atoms: N_2  and  C_22
REMARK    2  A    between atoms: N_3  and  C_14
REMARK    3  A    between atoms: C_10  and  C_21
REMARK    4  A    between atoms: C_22  and  C_24
REMARK                            x       y       z     vdW  Elec       q    Type
REMARK                         _______ _______ _______ _____ _____    ______ ____
ROOT
ATOM      1  N   UNL     1      33.666 -23.803 -14.005  0.00  0.00    -0.123 N 
ATOM      2  N   UNL     1      34.171 -22.404 -17.721  0.00  0.00    -0.254 N 
ATOM      3  N   UNL     1      31.314 -23.782 -14.211  0.00  0.00    -0.274 N 
ATOM      4  N   UNL     1      32.740 -23.090 -15.973  0.00  0.00    -0.295 NA
ATOM      5  N   UNL     1      35.116 -23.125 -15.728  0.00  0.00    -0.314 NA
ATOM      6  N   UNL     1      33.615 -24.275 -12.747  0.00  0.00    -0.170 NA
ATOM      7  C   UNL     1      32.540 -23.545 -14.770  0.00  0.00    +0.279 C 
ATOM      8  C   UNL     1      34.931 -23.597 -14.476  0.00  0.00    +0.219 C 
ATOM      9  C   UNL     1      34.037 -22.884 -16.440  0.00  0.00    +0.203 C 
ATOM     10  C   UNL     1      35.769 -23.960 -13.447  0.00  0.00    +0.203 C 
ATOM     11  C   UNL     1      34.905 -24.369 -12.411  0.00  0.00    +0.116 C 
ATOM     12  H   UNL     1      33.360 -22.225 -18.251  0.00  0.00    +0.161 HD
ATOM     13  H   UNL     1      31.310 -24.127 -13.289  0.00  0.00    +0.156 HD
ENDROOT
BRANCH   3  14
ATOM     14  C   UNL     1      30.067 -23.586 -14.808  0.00  0.00    +0.051 C 
ATOM     15  C   UNL     1      29.367 -22.400 -14.588  0.00  0.00    +0.015 C 
ATOM     16  C   UNL     1      29.522 -24.577 -15.625  0.00  0.00    +0.015 C 
ATOM     17  C   UNL     1      28.121 -22.204 -15.185  0.00  0.00    +0.001 C 
ATOM     18  C   UNL     1      28.277 -24.380 -16.223  0.00  0.00    +0.001 C 
ATOM     19  C   UNL     1      27.577 -23.195 -16.002  0.00  0.00    +0.000 C 
ENDBRANCH   3  14
BRANCH  10  21
ATOM     20  N   UNL     1      38.350 -23.893 -13.459  0.00  0.00    -0.195 NA
ATOM     21  C   UNL     1      37.189 -23.923 -13.454  0.00  0.00    +0.087 C 
ENDBRANCH  10  21
BRANCH   2  22
ATOM     22  C   UNL     1      35.449 -22.155 -18.309  0.00  0.00    +0.125 C 
BRANCH  22  24
ATOM     23 CL   UNL     1      35.069 -17.759 -22.397  0.00  0.00    -0.082 Cl
ATOM     24  C   UNL     1      35.354 -21.057 -19.331  0.00  0.00    -0.002 C 
ATOM     25  C   UNL     1      34.113 -20.705 -19.865  0.00  0.00    -0.002 C 
ATOM     26  C   UNL     1      36.506 -20.387 -19.745  0.00  0.00    -0.002 C 
ATOM     27  C   UNL     1      34.026 -19.686 -20.813  0.00  0.00    +0.011 C 
ATOM     28  C   UNL     1      36.418 -19.368 -20.693  0.00  0.00    +0.011 C 
ATOM     29  C   UNL     1      35.178 -19.017 -21.227  0.00  0.00    +0.058 C 
ENDBRANCH  22  24
ENDBRANCH   2  22
TORSDOF 4
ENDMDL
MODEL 3
REMARK VINA RESULT:     -10.5      1.637      5.516
REMARK  Name = 24779676
REMARK  4 active torsions:
REMARK  status: ('A' for Active; 'I' for Inactive)
REMARK    1  A    between atoms: N_2  and  C_22
REMARK    2  A    between atoms: N_3  and  C_14
REMARK    3  A    between atoms: C_10  and  C_21
REMARK    4  A    between atoms: C_22  and  C_24
REMARK                            x       y       z     vdW  Elec       q    Type
REMARK                         _______ _______ _______ _____ _____    ______ ____
ROOT
ATOM      1  N   UNL     1      34.812 -24.224 -14.288  0.00  0.00    -0.123 N 
ATOM      2  N   UNL     1      34.811 -22.080 -17.668  0.00  0.00    -0.254 N 
ATOM      3  N   UNL     1      32.455 -24.194 -14.152  0.00  0.00    -0.274 N 
ATOM      4  N   UNL     1      33.629 -23.133 -15.916  0.00  0.00    -0.295 NA
ATOM      5  N   UNL     1      36.016 -23.183 -16.020  0.00  0.00    -0.314 NA
ATOM      6  N   UNL     1      34.932 -24.946 -13.160  0.00  0.00    -0.170 NA
ATOM      7  C   UNL     1      33.594 -23.829 -14.817  0.00  0.00    +0.279 C 
ATOM      8  C   UNL     1      36.001 -23.906 -14.879  0.00  0.00    +0.219 C 
ATOM      9  C   UNL     1      34.851 -22.816 -16.508  0.00  0.00    +0.203 C 
ATOM     10  C   UNL     1      36.971 -24.462 -14.075  0.00  0.00    +0.203 C 
ATOM     11  C   UNL     1      36.255 -25.088 -13.035  0.00  0.00    +0.116 C 
ATOM     12  H   UNL     1      33.937 -21.807 -18.030  0.00  0.00    +0.161 HD
ATOM     13  H   UNL     1      32.575 -24.722 -13.330  0.00  0.00    +0.156 HD
ENDROOT
BRANCH   3  14
ATOM     14  C   UNL     1      31.140 -23.897 -14.515  0.00  0.00    +0.051 C 
ATOM     15  C   UNL     1      30.330 -24.886 -15.073  0.00  0.00    +0.015 C 
ATOM     16  C   UNL     1      30.637 -22.611 -14.320  0.00  0.00    +0.015 C 
ATOM     17  C   UNL     1      29.016 -24.589 -15.434  0.00  0.00    +0.001 C 
ATOM     18  C   UNL     1      29.322 -22.314 -14.680  0.00  0.00    +0.001 C 
ATOM     19  C   UNL     1      28.512 -23.303 -15.238  0.00  0.00    +0.000 C 
ENDBRANCH   3  14
BRANCH  10  21
ATOM     20  N   UNL     1      39.524 -24.356 -14.436  0.00  0.00    -0.195 NA
ATOM     21  C   UNL     1      38.376 -24.403 -14.273  0.00  0.00    +0.087 C 
ENDBRANCH  10  21
BRANCH   2  22
ATOM     22  C   UNL     1      35.997 -21.696 -18.365  0.00  0.00    +0.125 C 
BRANCH  22  24
ATOM     23 CL   UNL     1      34.673 -17.928 -22.862  0.00  0.00    -0.082 Cl
ATOM     24  C   UNL     1      35.667 -20.754 -19.488  0.00  0.00    -0.002 C 
ATOM     25  C   UNL     1      36.668 -19.966 -20.058  0.00  0.00    -0.002 C 
ATOM     26  C   UNL     1      34.358 -20.667 -19.964  0.00  0.00    -0.002 C 
ATOM     27  C   UNL     1      36.361 -19.093 -21.101  0.00  0.00    +0.011 C 
ATOM     28  C   UNL     1      34.051 -19.794 -21.007  0.00  0.00    +0.011 C 
ATOM     29  C   UNL     1      35.052 -19.007 -21.575  0.00  0.00    +0.058 C 
ENDBRANCH  22  24
ENDBRANCH   2  22
TORSDOF 4
ENDMDL
MODEL 4
REMARK VINA RESULT:      -9.9      2.705      6.879
REMARK  Name = 24779676
REMARK  4 active torsions:
REMARK  status: ('A' for Active; 'I' for Inactive)
REMARK    1  A    between atoms: N_2  and  C_22
REMARK    2  A    between atoms: N_3  and  C_14
REMARK    3  A    between atoms: C_10  and  C_21
REMARK    4  A    between atoms: C_22  and  C_24
REMARK                            x       y       z     vdW  Elec       q    Type
REMARK                         _______ _______ _______ _____ _____    ______ ____
ROOT
ATOM      1  N   UNL     1      32.025 -22.921 -16.173  0.00  0.00    -0.123 N 
ATOM      2  N   UNL     1      35.788 -23.516 -14.942  0.00  0.00    -0.254 N 
ATOM      3  N   UNL     1      32.738 -21.816 -18.134  0.00  0.00    -0.274 N 
ATOM      4  N   UNL     1      34.270 -22.665 -16.538  0.00  0.00    -0.295 NA
ATOM      5  N   UNL     1      33.513 -23.778 -14.565  0.00  0.00    -0.314 NA
ATOM      6  N   UNL     1      30.726 -22.778 -16.488  0.00  0.00    -0.170 NA
ATOM      7  C   UNL     1      33.060 -22.456 -16.969  0.00  0.00    +0.279 C 
ATOM      8  C   UNL     1      32.248 -23.570 -14.993  0.00  0.00    +0.219 C 
ATOM      9  C   UNL     1      34.482 -23.329 -15.331  0.00  0.00    +0.203 C 
ATOM     10  C   UNL     1      31.000 -23.873 -14.499  0.00  0.00    +0.203 C 
ATOM     11  C   UNL     1      30.103 -23.362 -15.459  0.00  0.00    +0.116 C 
ATOM     12  H   UNL     1      36.511 -23.178 -15.519  0.00  0.00    +0.161 HD
ATOM     13  H   UNL     1      31.778 -21.727 -18.337  0.00  0.00    +0.156 HD
ENDROOT
BRANCH   3  14
ATOM     14  C   UNL     1      33.624 -21.274 -19.067  0.00  0.00    +0.051 C 
ATOM     15  C   UNL     1      33.148 -20.443 -20.080  0.00  0.00    +0.015 C 
ATOM     16  C   UNL     1      34.986 -21.565 -18.985  0.00  0.00    +0.015 C 
ATOM     17  C   UNL     1      34.034 -19.902 -21.012  0.00  0.00    +0.001 C 
ATOM     18  C   UNL     1      35.872 -21.023 -19.916  0.00  0.00    +0.001 C 
ATOM     19  C   UNL     1      35.396 -20.192 -20.930  0.00  0.00    +0.000 C 
ENDBRANCH   3  14
BRANCH  10  21
ATOM     20  N   UNL     1      30.466 -25.107 -12.295  0.00  0.00    -0.195 NA
ATOM     21  C   UNL     1      30.706 -24.552 -13.286  0.00  0.00    +0.087 C 
ENDBRANCH  10  21
BRANCH   2  22
ATOM     22  C   UNL     1      36.129 -24.183 -13.725  0.00  0.00    +0.125 C 
BRANCH  22  24
ATOM     23 CL   UNL     1      40.642 -28.053 -14.635  0.00  0.00    -0.082 Cl
ATOM     24  C   UNL     1      37.257 -25.150 -13.953  0.00  0.00    -0.002 C 
ATOM     25  C   UNL     1      38.523 -24.882 -13.430  0.00  0.00    -0.002 C 
ATOM     26  C   UNL     1      37.038 -26.317 -14.686  0.00  0.00    -0.002 C 
ATOM     27  C   UNL     1      39.569 -25.780 -13.642  0.00  0.00    +0.011 C 
ATOM     28  C   UNL     1      38.085 -27.214 -14.897  0.00  0.00    +0.011 C 
ATOM     29  C   UNL     1      39.350 -26.946 -14.375  0.00  0.00    +0.058 C 
ENDBRANCH  22  24
ENDBRANCH   2  22
TORSDOF 4
ENDMDL
MODEL 5
REMARK VINA RESULT:      -9.4      3.113      7.661
REMARK  Name = 24779676
REMARK  4 active torsions:
REMARK  status: ('A' for Active; 'I' for Inactive)
REMARK    1  A    between atoms: N_2  and  C_22
REMARK    2  A    between atoms: N_3  and  C_14
REMARK    3  A    between atoms: C_10  and  C_21
REMARK    4  A    between atoms: C_22  and  C_24
REMARK                            x       y       z     vdW  Elec       q    Type
REMARK                         _______ _______ _______ _____ _____    ______ ____
ROOT
ATOM      1  N   UNL     1      36.303 -22.523 -16.360  0.00  0.00    -0.123 N 
ATOM      2  N   UNL     1      32.359 -23.164 -16.600  0.00  0.00    -0.254 N 
ATOM      3  N   UNL     1      36.309 -21.211 -18.323  0.00  0.00    -0.274 N 
ATOM      4  N   UNL     1      34.327 -22.187 -17.465  0.00  0.00    -0.295 NA
ATOM      5  N   UNL     1      34.359 -23.509 -15.476  0.00  0.00    -0.314 NA
ATOM      6  N   UNL     1      37.627 -22.373 -16.179  0.00  0.00    -0.170 NA
ATOM      7  C   UNL     1      35.607 -21.958 -17.417  0.00  0.00    +0.279 C 
ATOM      8  C   UNL     1      35.690 -23.284 -15.407  0.00  0.00    +0.219 C 
ATOM      9  C   UNL     1      33.715 -22.967 -16.485  0.00  0.00    +0.203 C 
ATOM     10  C   UNL     1      36.689 -23.662 -14.540  0.00  0.00    +0.203 C 
ATOM     11  C   UNL     1      37.858 -23.073 -15.064  0.00  0.00    +0.116 C 
ATOM     12  H   UNL     1      31.880 -22.756 -17.358  0.00  0.00    +0.161 HD
ATOM     13  H   UNL     1      37.276 -21.120 -18.164  0.00  0.00    +0.156 HD
ENDROOT
BRANCH   3  14
ATOM     14  C   UNL     1      35.800 -20.564 -19.451  0.00  0.00    +0.051 C 
ATOM     15  C   UNL     1      34.459 -20.724 -19.801  0.00  0.00    +0.015 C 
ATOM     16  C   UNL     1      36.633 -19.759 -20.228  0.00  0.00    +0.015 C 
ATOM     17  C   UNL     1      33.951 -20.077 -20.928  0.00  0.00    +0.001 C 
ATOM     18  C   UNL     1      36.124 -19.112 -21.354  0.00  0.00    +0.001 C 
ATOM     19  C   UNL     1      34.784 -19.271 -21.704  0.00  0.00    +0.000 C 
ENDBRANCH   3  14
BRANCH  10  21
ATOM     20  N   UNL     1      36.433 -25.126 -12.429  0.00  0.00    -0.195 NA
ATOM     21  C   UNL     1      36.548 -24.467 -13.378  0.00  0.00    +0.087 C 
ENDBRANCH  10  21
BRANCH   2  22
ATOM     22  C   UNL     1      31.623 -23.944 -15.657  0.00  0.00    +0.125 C 
BRANCH  22  24
ATOM     23 CL   UNL     1      25.951 -21.980 -15.264  0.00  0.00    -0.082 Cl
ATOM     24  C   UNL     1      30.205 -23.453 -15.559  0.00  0.00    -0.002 C 
ATOM     25  C   UNL     1      29.267 -23.830 -16.521  0.00  0.00    -0.002 C 
ATOM     26  C   UNL     1      29.826 -22.620 -14.505  0.00  0.00    -0.002 C 
ATOM     27  C   UNL     1      27.952 -23.375 -16.429  0.00  0.00    +0.011 C 
ATOM     28  C   UNL     1      28.511 -22.165 -14.414  0.00  0.00    +0.011 C 
ATOM     29  C   UNL     1      27.574 -22.542 -15.376  0.00  0.00    +0.058 C 
ENDBRANCH  22  24
ENDBRANCH   2  22
TORSDOF 4
ENDMDL
MODEL 6
REMARK VINA RESULT:      -9.3      3.225      7.644
REMARK  Name = 24779676
REMARK  4 active torsions:
REMARK  status: ('A' for Active; 'I' for Inactive)
REMARK    1  A    between atoms: N_2  and  C_22
REMARK    2  A    between atoms: N_3  and  C_14
REMARK    3  A    between atoms: C_10  and  C_21
REMARK    4  A    between atoms: C_22  and  C_24
REMARK                            x       y       z     vdW  Elec       q    Type
REMARK                         _______ _______ _______ _____ _____    ______ ____
ROOT
ATOM      1  N   UNL     1      33.163 -22.073 -17.972  0.00  0.00    -0.123 N 
ATOM      2  N   UNL     1      35.368 -23.667 -15.035  0.00  0.00    -0.254 N 
ATOM      3  N   UNL     1      31.147 -22.822 -16.997  0.00  0.00    -0.274 N 
ATOM      4  N   UNL     1      33.258 -23.249 -16.010  0.00  0.00    -0.295 NA
ATOM      5  N   UNL     1      35.278 -22.476 -17.025  0.00  0.00    -0.314 NA
ATOM      6  N   UNL     1      32.525 -21.499 -19.007  0.00  0.00    -0.170 NA
ATOM      7  C   UNL     1      32.512 -22.742 -16.948  0.00  0.00    +0.279 C 
ATOM      8  C   UNL     1      34.521 -21.943 -18.009  0.00  0.00    +0.219 C 
ATOM      9  C   UNL     1      34.644 -23.108 -16.062  0.00  0.00    +0.203 C 
ATOM     10  C   UNL     1      34.790 -21.231 -19.156  0.00  0.00    +0.203 C 
ATOM     11  C   UNL     1      33.526 -20.986 -19.728  0.00  0.00    +0.116 C 
ATOM     12  H   UNL     1      34.889 -24.139 -14.316  0.00  0.00    +0.161 HD
ATOM     13  H   UNL     1      30.708 -22.392 -17.767  0.00  0.00    +0.156 HD
ENDROOT
BRANCH   3  14
ATOM     14  C   UNL     1      30.309 -23.449 -16.073  0.00  0.00    +0.051 C 
ATOM     15  C   UNL     1      30.781 -24.524 -15.320  0.00  0.00    +0.015 C 
ATOM     16  C   UNL     1      28.999 -23.000 -15.904  0.00  0.00    +0.015 C 
ATOM     17  C   UNL     1      29.943 -25.149 -14.397  0.00  0.00    +0.001 C 
ATOM     18  C   UNL     1      28.161 -23.625 -14.980  0.00  0.00    +0.001 C 
ATOM     19  C   UNL     1      28.633 -24.700 -14.227  0.00  0.00    +0.000 C 
ENDBRANCH   3  14
BRANCH  10  21
ATOM     20  N   UNL     1      37.115 -20.523 -20.026  0.00  0.00    -0.195 NA
ATOM     21  C   UNL     1      36.070 -20.842 -19.635  0.00  0.00    +0.087 C 
ENDBRANCH  10  21
BRANCH   2  22
ATOM     22  C   UNL     1      36.793 -23.587 -14.980  0.00  0.00    +0.125 C 
BRANCH  22  24
ATOM     23 CL   UNL     1      39.142 -28.897 -13.412  0.00  0.00    -0.082 Cl
ATOM     24  C   UNL     1      37.381 -24.914 -14.589  0.00  0.00    -0.002 C 
ATOM     25  C   UNL     1      38.711 -24.995 -14.176  0.00  0.00    -0.002 C 
ATOM     26  C   UNL     1      36.595 -26.066 -14.637  0.00  0.00    -0.002 C 
ATOM     27  C   UNL     1      39.255 -26.226 -13.812  0.00  0.00    +0.011 C 
ATOM     28  C   UNL     1      37.139 -27.297 -14.273  0.00  0.00    +0.011 C 
ATOM     29  C   UNL     1      38.469 -27.377 -13.860  0.00  0.00    +0.058 C 
ENDBRANCH  22  24
ENDBRANCH   2  22
TORSDOF 4
ENDMDL
