MODEL 1
REMARK VINA RESULT:     -11.4      0.000      0.000
REMARK  Name = 118513932
REMARK  2 active torsions:
REMARK  status: ('A' for Active; 'I' for Inactive)
REMARK    1  A    between atoms: C_4  and  N_24
REMARK    2  A    between atoms: C_10  and  C_15
REMARK                            x       y       z     vdW  Elec       q    Type
REMARK                         _______ _______ _______ _____ _____    ______ ____
ROOT
ATOM      1  O   UNL     1      33.679 -12.804 -26.294  0.00  0.00    -0.274 OA
ATOM      2  N   UNL     1      33.982 -13.234 -24.003  0.00  0.00    -0.209 N 
ATOM      3  N   UNL     1      33.753 -11.428 -22.457  0.00  0.00    -0.389 NA
ATOM      4  C   UNL     1      34.515 -15.431 -23.183  0.00  0.00    +0.063 C 
ATOM      5  C   UNL     1      34.245 -14.586 -24.193  0.00  0.00    +0.089 C 
ATOM      6  C   UNL     1      34.531 -14.897 -21.838  0.00  0.00    +0.020 C 
ATOM      7  C   UNL     1      34.287 -13.606 -21.589  0.00  0.00    +0.050 C 
ATOM      8  C   UNL     1      33.988 -12.680 -22.715  0.00  0.00    +0.193 C 
ATOM      9  C   UNL     1      33.713 -12.435 -25.122  0.00  0.00    +0.242 C 
ATOM     10  C   UNL     1      33.486 -10.625 -23.530  0.00  0.00    +0.139 C 
ATOM     11  C   UNL     1      33.446 -11.011 -24.809  0.00  0.00    +0.146 C 
ENDROOT
BRANCH  10  15
ATOM     12  N   UNL     1      32.086  -7.502 -22.385  0.00  0.00    -0.178 N 
ATOM     13  N   UNL     1      32.197  -8.846 -22.539  0.00  0.00    -0.173 NA
ATOM     14  N   UNL     1      32.512  -5.322 -22.555  0.00  0.00    -0.392 NA
ATOM     15  C   UNL     1      33.218  -9.208 -23.265  0.00  0.00    +0.124 C 
ATOM     16  C   UNL     1      34.196  -8.266 -23.887  0.00  0.00    +0.023 C 
ATOM     17  C   UNL     1      34.030  -6.944 -23.696  0.00  0.00    +0.025 C 
ATOM     18  C   UNL     1      32.919  -6.527 -22.905  0.00  0.00    +0.198 C 
ATOM     19  C   UNL     1      31.108  -6.861 -21.672  0.00  0.00    +0.173 C 
ATOM     20  C   UNL     1      31.392  -5.522 -21.791  0.00  0.00    +0.111 C 
ATOM     21  C   UNL     1      35.004  -5.974 -24.314  0.00  0.00    +0.035 C 
ATOM     22  C   UNL     1      30.661  -4.381 -21.220  0.00  0.00    +0.063 C 
ENDBRANCH  10  15
BRANCH   4  24
ATOM     23  N   UNL     1      34.651 -19.626 -23.349  0.00  0.00    +0.389 N 
ATOM     24  N   UNL     1      34.774 -16.761 -23.354  0.00  0.00    -0.311 N 
ATOM     25  C   UNL     1      35.096 -18.864 -22.154  0.00  0.00    -0.027 C 
ATOM     26  C   UNL     1      35.704 -19.638 -21.005  0.00  0.00    -0.020 C 
ATOM     27  C   UNL     1      34.333 -19.049 -20.858  0.00  0.00    -0.020 C 
ATOM     28  C   UNL     1      35.672 -17.497 -22.457  0.00  0.00    +0.071 C 
ATOM     29  C   UNL     1      33.703 -18.829 -24.131  0.00  0.00    -0.060 C 
ATOM     30  C   UNL     1      34.322 -17.492 -24.541  0.00  0.00    +0.067 C 
ATOM     31  H   UNL     1      34.199 -20.490 -23.051  0.00  0.00    -0.084 HD
ATOM     32  H   UNL     1      35.463 -19.841 -23.928  0.00  0.00    -0.084 HD
ENDBRANCH   4  24
TORSDOF 2
ENDMDL
MODEL 2
REMARK VINA RESULT:     -10.6      6.396     11.341
REMARK  Name = 118513932
REMARK  2 active torsions:
REMARK  status: ('A' for Active; 'I' for Inactive)
REMARK    1  A    between atoms: C_4  and  N_24
REMARK    2  A    between atoms: C_10  and  C_15
REMARK                            x       y       z     vdW  Elec       q    Type
REMARK                         _______ _______ _______ _____ _____    ______ ____
ROOT
ATOM      1  O   UNL     1      32.611 -22.614 -18.061  0.00  0.00    -0.274 OA
ATOM      2  N   UNL     1      34.854 -22.106 -17.575  0.00  0.00    -0.209 N 
ATOM      3  N   UNL     1      36.007 -20.552 -18.974  0.00  0.00    -0.389 NA
ATOM      4  C   UNL     1      36.008 -23.107 -15.718  0.00  0.00    +0.063 C 
ATOM      5  C   UNL     1      34.907 -22.951 -16.472  0.00  0.00    +0.089 C 
ATOM      6  C   UNL     1      37.191 -22.355 -16.081  0.00  0.00    +0.020 C 
ATOM      7  C   UNL     1      37.204 -21.526 -17.130  0.00  0.00    +0.050 C 
ATOM      8  C   UNL     1      35.978 -21.361 -17.958  0.00  0.00    +0.193 C 
ATOM      9  C   UNL     1      33.657 -22.014 -18.297  0.00  0.00    +0.242 C 
ATOM     10  C   UNL     1      34.853 -20.441 -19.697  0.00  0.00    +0.139 C 
ATOM     11  C   UNL     1      33.708 -21.086 -19.452  0.00  0.00    +0.146 C 
ENDROOT
BRANCH  10  15
ATOM     12  N   UNL     1      34.922 -17.542 -21.846  0.00  0.00    -0.178 N 
ATOM     13  N   UNL     1      34.922 -18.243 -20.683  0.00  0.00    -0.173 NA
ATOM     14  N   UNL     1      34.882 -17.080 -24.025  0.00  0.00    -0.392 NA
ATOM     15  C   UNL     1      34.860 -19.535 -20.849  0.00  0.00    +0.124 C 
ATOM     16  C   UNL     1      34.794 -20.219 -22.176  0.00  0.00    +0.023 C 
ATOM     17  C   UNL     1      34.797 -19.466 -23.292  0.00  0.00    +0.025 C 
ATOM     18  C   UNL     1      34.864 -18.050 -23.131  0.00  0.00    +0.198 C 
ATOM     19  C   UNL     1      34.979 -16.178 -21.952  0.00  0.00    +0.173 C 
ATOM     20  C   UNL     1      34.954 -15.918 -23.300  0.00  0.00    +0.111 C 
ATOM     21  C   UNL     1      34.731 -20.134 -24.641  0.00  0.00    +0.035 C 
ATOM     22  C   UNL     1      34.994 -14.614 -23.979  0.00  0.00    +0.063 C 
ENDBRANCH  10  15
BRANCH   4  24
ATOM     23  N   UNL     1      35.995 -25.032 -11.984  0.00  0.00    +0.389 N 
ATOM     24  N   UNL     1      36.075 -23.932 -14.632  0.00  0.00    -0.311 N 
ATOM     25  C   UNL     1      37.150 -24.226 -12.457  0.00  0.00    -0.027 C 
ATOM     26  C   UNL     1      38.390 -24.188 -11.593  0.00  0.00    -0.020 C 
ATOM     27  C   UNL     1      37.515 -22.974 -11.688  0.00  0.00    -0.020 C 
ATOM     28  C   UNL     1      37.345 -24.227 -13.960  0.00  0.00    +0.071 C 
ATOM     29  C   UNL     1      34.770 -24.606 -12.665  0.00  0.00    -0.060 C 
ATOM     30  C   UNL     1      34.921 -24.716 -14.182  0.00  0.00    +0.067 C 
ATOM     31  H   UNL     1      35.884 -24.906 -10.979  0.00  0.00    -0.084 HD
ATOM     32  H   UNL     1      36.168 -26.016 -12.194  0.00  0.00    -0.084 HD
ENDBRANCH   4  24
TORSDOF 2
ENDMDL
MODEL 3
REMARK VINA RESULT:     -10.6      1.695      9.988
REMARK  Name = 118513932
REMARK  2 active torsions:
REMARK  status: ('A' for Active; 'I' for Inactive)
REMARK    1  A    between atoms: C_4  and  N_24
REMARK    2  A    between atoms: C_10  and  C_15
REMARK                            x       y       z     vdW  Elec       q    Type
REMARK                         _______ _______ _______ _____ _____    ______ ____
ROOT
ATOM      1  O   UNL     1      31.215 -11.494 -20.788  0.00  0.00    -0.274 OA
ATOM      2  N   UNL     1      32.800 -10.896 -22.417  0.00  0.00    -0.209 N 
ATOM      3  N   UNL     1      34.309 -12.565 -23.217  0.00  0.00    -0.389 NA
ATOM      4  C   UNL     1      32.940  -8.659 -23.292  0.00  0.00    +0.063 C 
ATOM      5  C   UNL     1      32.379  -9.573 -22.480  0.00  0.00    +0.089 C 
ATOM      6  C   UNL     1      34.037  -9.086 -24.135  0.00  0.00    +0.020 C 
ATOM      7  C   UNL     1      34.489 -10.344 -24.121  0.00  0.00    +0.050 C 
ATOM      8  C   UNL     1      33.858 -11.347 -23.219  0.00  0.00    +0.193 C 
ATOM      9  C   UNL     1      32.150 -11.770 -21.537  0.00  0.00    +0.242 C 
ATOM     10  C   UNL     1      33.693 -13.441 -22.368  0.00  0.00    +0.139 C 
ATOM     11  C   UNL     1      32.676 -13.156 -21.549  0.00  0.00    +0.146 C 
ENDROOT
BRANCH  10  15
ATOM     12  N   UNL     1      35.121 -16.614 -21.410  0.00  0.00    -0.178 N 
ATOM     13  N   UNL     1      34.717 -15.325 -21.270  0.00  0.00    -0.173 NA
ATOM     14  N   UNL     1      35.515 -18.608 -22.321  0.00  0.00    -0.392 NA
ATOM     15  C   UNL     1      34.183 -14.822 -22.347  0.00  0.00    +0.124 C 
ATOM     16  C   UNL     1      34.013 -15.560 -23.636  0.00  0.00    +0.023 C 
ATOM     17  C   UNL     1      34.434 -16.836 -23.710  0.00  0.00    +0.025 C 
ATOM     18  C   UNL     1      35.022 -17.405 -22.540  0.00  0.00    +0.198 C 
ATOM     19  C   UNL     1      35.710 -17.373 -20.435  0.00  0.00    +0.173 C 
ATOM     20  C   UNL     1      35.943 -18.595 -21.018  0.00  0.00    +0.111 C 
ATOM     21  C   UNL     1      34.274 -17.600 -24.999  0.00  0.00    +0.035 C 
ATOM     22  C   UNL     1      36.558 -19.789 -20.420  0.00  0.00    +0.063 C 
ENDBRANCH  10  15
BRANCH   4  24
ATOM     23  N   UNL     1      32.219  -4.533 -22.978  0.00  0.00    +0.389 N 
ATOM     24  N   UNL     1      32.537  -7.357 -23.365  0.00  0.00    -0.311 N 
ATOM     25  C   UNL     1      31.599  -5.520 -22.056  0.00  0.00    -0.027 C 
ATOM     26  C   UNL     1      30.602  -5.011 -21.038  0.00  0.00    -0.020 C 
ATOM     27  C   UNL     1      31.961  -5.458 -20.587  0.00  0.00    -0.020 C 
ATOM     28  C   UNL     1      31.336  -6.878 -22.673  0.00  0.00    +0.071 C 
ATOM     29  C   UNL     1      33.447  -5.085 -23.555  0.00  0.00    -0.060 C 
ATOM     30  C   UNL     1      33.166  -6.401 -24.281  0.00  0.00    +0.067 C 
ATOM     31  H   UNL     1      32.442  -3.683 -22.462  0.00  0.00    -0.084 HD
ATOM     32  H   UNL     1      31.563  -4.322 -23.730  0.00  0.00    -0.084 HD
ENDBRANCH   4  24
TORSDOF 2
ENDMDL
MODEL 4
REMARK VINA RESULT:     -10.2      8.103     12.602
REMARK  Name = 118513932
REMARK  2 active torsions:
REMARK  status: ('A' for Active; 'I' for Inactive)
REMARK    1  A    between atoms: C_4  and  N_24
REMARK    2  A    between atoms: C_10  and  C_15
REMARK                            x       y       z     vdW  Elec       q    Type
REMARK                         _______ _______ _______ _____ _____    ______ ____
ROOT
ATOM      1  O   UNL     1      33.145 -23.372 -17.000  0.00  0.00    -0.274 OA
ATOM      2  N   UNL     1      35.369 -22.803 -16.496  0.00  0.00    -0.209 N 
ATOM      3  N   UNL     1      36.532 -21.314 -17.957  0.00  0.00    -0.389 NA
ATOM      4  C   UNL     1      36.496 -23.678 -14.559  0.00  0.00    +0.063 C 
ATOM      5  C   UNL     1      35.410 -23.582 -15.345  0.00  0.00    +0.089 C 
ATOM      6  C   UNL     1      37.676 -22.930 -14.940  0.00  0.00    +0.020 C 
ATOM      7  C   UNL     1      37.701 -22.163 -16.035  0.00  0.00    +0.050 C 
ATOM      8  C   UNL     1      36.491 -22.064 -16.897  0.00  0.00    +0.193 C 
ATOM      9  C   UNL     1      34.188 -22.771 -17.248  0.00  0.00    +0.242 C 
ATOM     10  C   UNL     1      35.393 -21.263 -18.710  0.00  0.00    +0.139 C 
ATOM     11  C   UNL     1      34.252 -21.910 -18.453  0.00  0.00    +0.146 C 
ENDROOT
BRANCH  10  15
ATOM     12  N   UNL     1      34.549 -19.532 -21.762  0.00  0.00    -0.178 N 
ATOM     13  N   UNL     1      34.373 -20.350 -20.693  0.00  0.00    -0.173 NA
ATOM     14  N   UNL     1      35.501 -18.115 -23.194  0.00  0.00    -0.392 NA
ATOM     15  C   UNL     1      35.413 -20.424 -19.912  0.00  0.00    +0.124 C 
ATOM     16  C   UNL     1      36.698 -19.693 -20.135  0.00  0.00    +0.023 C 
ATOM     17  C   UNL     1      36.809 -18.897 -21.215  0.00  0.00    +0.025 C 
ATOM     18  C   UNL     1      35.680 -18.803 -22.083  0.00  0.00    +0.198 C 
ATOM     19  C   UNL     1      33.616 -19.279 -22.733  0.00  0.00    +0.173 C 
ATOM     20  C   UNL     1      34.224 -18.406 -23.601  0.00  0.00    +0.111 C 
ATOM     21  C   UNL     1      38.094 -18.150 -21.462  0.00  0.00    +0.035 C 
ATOM     22  C   UNL     1      33.674 -17.805 -24.825  0.00  0.00    +0.063 C 
ENDBRANCH  10  15
BRANCH   4  24
ATOM     23  N   UNL     1      37.415 -25.978 -11.167  0.00  0.00    +0.389 N 
ATOM     24  N   UNL     1      36.550 -24.438 -13.427  0.00  0.00    -0.311 N 
ATOM     25  C   UNL     1      37.352 -26.565 -12.530  0.00  0.00    -0.027 C 
ATOM     26  C   UNL     1      37.533 -28.060 -12.668  0.00  0.00    -0.020 C 
ATOM     27  C   UNL     1      38.621 -27.136 -13.127  0.00  0.00    -0.020 C 
ATOM     28  C   UNL     1      36.363 -25.893 -13.460  0.00  0.00    +0.071 C 
ATOM     29  C   UNL     1      37.679 -24.540 -11.249  0.00  0.00    -0.060 C 
ATOM     30  C   UNL     1      36.615 -23.836 -12.092  0.00  0.00    +0.067 C 
ATOM     31  H   UNL     1      38.162 -26.428 -10.639  0.00  0.00    -0.084 HD
ATOM     32  H   UNL     1      36.521 -26.127 -10.699  0.00  0.00    -0.084 HD
ENDBRANCH   4  24
TORSDOF 2
ENDMDL
MODEL 5
REMARK VINA RESULT:     -10.0      1.902     10.044
REMARK  Name = 118513932
REMARK  2 active torsions:
REMARK  status: ('A' for Active; 'I' for Inactive)
REMARK    1  A    between atoms: C_4  and  N_24
REMARK    2  A    between atoms: C_10  and  C_15
REMARK                            x       y       z     vdW  Elec       q    Type
REMARK                         _______ _______ _______ _____ _____    ______ ____
ROOT
ATOM      1  O   UNL     1      31.075 -11.163 -21.112  0.00  0.00    -0.274 OA
ATOM      2  N   UNL     1      32.856 -10.554 -22.521  0.00  0.00    -0.209 N 
ATOM      3  N   UNL     1      34.410 -12.235 -23.198  0.00  0.00    -0.389 NA
ATOM      4  C   UNL     1      33.150  -8.293 -23.289  0.00  0.00    +0.063 C 
ATOM      5  C   UNL     1      32.475  -9.218 -22.584  0.00  0.00    +0.089 C 
ATOM      6  C   UNL     1      34.329  -8.721 -24.013  0.00  0.00    +0.020 C 
ATOM      7  C   UNL     1      34.747  -9.991 -23.992  0.00  0.00    +0.050 C 
ATOM      8  C   UNL     1      33.991 -11.006 -23.208  0.00  0.00    +0.193 C 
ATOM      9  C   UNL     1      32.086 -11.439 -21.756  0.00  0.00    +0.242 C 
ATOM     10  C   UNL     1      33.677 -13.122 -22.461  0.00  0.00    +0.139 C 
ATOM     11  C   UNL     1      32.577 -12.837 -21.757  0.00  0.00    +0.146 C 
ENDROOT
BRANCH  10  15
ATOM     12  N   UNL     1      34.998 -16.335 -21.481  0.00  0.00    -0.178 N 
ATOM     13  N   UNL     1      34.627 -15.036 -21.346  0.00  0.00    -0.173 NA
ATOM     14  N   UNL     1      35.359 -18.337 -22.388  0.00  0.00    -0.392 NA
ATOM     15  C   UNL     1      34.130 -14.516 -22.433  0.00  0.00    +0.124 C 
ATOM     16  C   UNL     1      33.968 -15.246 -23.727  0.00  0.00    +0.023 C 
ATOM     17  C   UNL     1      34.356 -16.533 -23.796  0.00  0.00    +0.025 C 
ATOM     18  C   UNL     1      34.903 -17.120 -22.615  0.00  0.00    +0.198 C 
ATOM     19  C   UNL     1      35.545 -17.112 -20.495  0.00  0.00    +0.173 C 
ATOM     20  C   UNL     1      35.758 -18.338 -21.077  0.00  0.00    +0.111 C 
ATOM     21  C   UNL     1      34.203 -17.290 -25.090  0.00  0.00    +0.035 C 
ATOM     22  C   UNL     1      36.327 -19.550 -20.469  0.00  0.00    +0.063 C 
ENDBRANCH  10  15
BRANCH   4  24
ATOM     23  N   UNL     1      31.803  -4.424 -24.213  0.00  0.00    +0.389 N 
ATOM     24  N   UNL     1      32.788  -6.979 -23.362  0.00  0.00    -0.311 N 
ATOM     25  C   UNL     1      33.145  -4.915 -24.618  0.00  0.00    -0.027 C 
ATOM     26  C   UNL     1      34.080  -3.941 -25.301  0.00  0.00    -0.020 C 
ATOM     27  C   UNL     1      33.448  -5.044 -26.096  0.00  0.00    -0.020 C 
ATOM     28  C   UNL     1      33.759  -5.924 -23.670  0.00  0.00    +0.071 C 
ATOM     29  C   UNL     1      30.895  -5.554 -24.004  0.00  0.00    -0.060 C 
ATOM     30  C   UNL     1      31.456  -6.519 -22.959  0.00  0.00    +0.067 C 
ATOM     31  H   UNL     1      31.428  -3.822 -24.946  0.00  0.00    -0.084 HD
ATOM     32  H   UNL     1      31.889  -3.900 -23.342  0.00  0.00    -0.084 HD
ENDBRANCH   4  24
TORSDOF 2
ENDMDL
MODEL 6
REMARK VINA RESULT:      -9.9      1.316      9.885
REMARK  Name = 118513932
REMARK  2 active torsions:
REMARK  status: ('A' for Active; 'I' for Inactive)
REMARK    1  A    between atoms: C_4  and  N_24
REMARK    2  A    between atoms: C_10  and  C_15
REMARK                            x       y       z     vdW  Elec       q    Type
REMARK                         _______ _______ _______ _____ _____    ______ ____
ROOT
ATOM      1  O   UNL     1      34.555 -11.231 -25.570  0.00  0.00    -0.274 OA
ATOM      2  N   UNL     1      33.394 -11.085 -23.531  0.00  0.00    -0.209 N 
ATOM      3  N   UNL     1      33.250 -13.027 -22.151  0.00  0.00    -0.389 NA
ATOM      4  C   UNL     1      32.354  -9.040 -22.808  0.00  0.00    +0.063 C 
ATOM      5  C   UNL     1      33.067  -9.744 -23.704  0.00  0.00    +0.089 C 
ATOM      6  C   UNL     1      31.911  -9.720 -21.609  0.00  0.00    +0.020 C 
ATOM      7  C   UNL     1      32.193 -11.008 -21.384  0.00  0.00    +0.050 C 
ATOM      8  C   UNL     1      32.984 -11.777 -22.384  0.00  0.00    +0.193 C 
ATOM      9  C   UNL     1      34.141 -11.730 -24.526  0.00  0.00    +0.242 C 
ATOM     10  C   UNL     1      33.978 -13.683 -23.103  0.00  0.00    +0.139 C 
ATOM     11  C   UNL     1      34.436 -13.155 -24.243  0.00  0.00    +0.146 C 
ENDROOT
BRANCH  10  15
ATOM     12  N   UNL     1      35.086 -16.811 -21.685  0.00  0.00    -0.178 N 
ATOM     13  N   UNL     1      34.865 -15.473 -21.756  0.00  0.00    -0.173 NA
ATOM     14  N   UNL     1      35.131 -18.969 -22.236  0.00  0.00    -0.392 NA
ATOM     15  C   UNL     1      34.291 -15.095 -22.864  0.00  0.00    +0.124 C 
ATOM     16  C   UNL     1      33.898 -16.013 -23.975  0.00  0.00    +0.023 C 
ATOM     17  C   UNL     1      34.145 -17.330 -23.843  0.00  0.00    +0.025 C 
ATOM     18  C   UNL     1      34.773 -17.764 -22.637  0.00  0.00    +0.198 C 
ATOM     19  C   UNL     1      35.672 -17.465 -20.634  0.00  0.00    +0.173 C 
ATOM     20  C   UNL     1      35.688 -18.790 -20.997  0.00  0.00    +0.111 C 
ATOM     21  C   UNL     1      33.758 -18.276 -24.950  0.00  0.00    +0.035 C 
ATOM     22  C   UNL     1      36.206 -19.937 -20.237  0.00  0.00    +0.063 C 
ENDBRANCH  10  15
BRANCH   4  24
ATOM     23  N   UNL     1      31.931  -4.861 -22.822  0.00  0.00    +0.389 N 
ATOM     24  N   UNL     1      32.025  -7.724 -22.963  0.00  0.00    -0.311 N 
ATOM     25  C   UNL     1      31.364  -5.712 -21.745  0.00  0.00    -0.027 C 
ATOM     26  C   UNL     1      30.528  -5.043 -20.677  0.00  0.00    -0.020 C 
ATOM     27  C   UNL     1      31.900  -5.544 -20.338  0.00  0.00    -0.020 C 
ATOM     28  C   UNL     1      30.947  -7.099 -22.191  0.00  0.00    +0.071 C 
ATOM     29  C   UNL     1      33.045  -5.550 -23.476  0.00  0.00    -0.060 C 
ATOM     30  C   UNL     1      32.600  -6.903 -24.033  0.00  0.00    +0.067 C 
ATOM     31  H   UNL     1      32.265  -3.986 -22.421  0.00  0.00    -0.084 HD
ATOM     32  H   UNL     1      31.205  -4.672 -23.514  0.00  0.00    -0.084 HD
ENDBRANCH   4  24
TORSDOF 2
ENDMDL
MODEL 7
REMARK VINA RESULT:      -9.7      1.625     10.026
REMARK  Name = 118513932
REMARK  2 active torsions:
REMARK  status: ('A' for Active; 'I' for Inactive)
REMARK    1  A    between atoms: C_4  and  N_24
REMARK    2  A    between atoms: C_10  and  C_15
REMARK                            x       y       z     vdW  Elec       q    Type
REMARK                         _______ _______ _______ _____ _____    ______ ____
ROOT
ATOM      1  O   UNL     1      31.556 -11.785 -20.691  0.00  0.00    -0.274 OA
ATOM      2  N   UNL     1      32.925 -11.208 -22.513  0.00  0.00    -0.209 N 
ATOM      3  N   UNL     1      34.206 -12.922 -23.574  0.00  0.00    -0.389 NA
ATOM      4  C   UNL     1      33.068  -8.950 -23.328  0.00  0.00    +0.063 C 
ATOM      5  C   UNL     1      32.576  -9.863 -22.473  0.00  0.00    +0.089 C 
ATOM      6  C   UNL     1      34.006  -9.400 -24.335  0.00  0.00    +0.020 C 
ATOM      7  C   UNL     1      34.382 -10.680 -24.425  0.00  0.00    +0.050 C 
ATOM      8  C   UNL     1      33.830 -11.682 -23.473  0.00  0.00    +0.193 C 
ATOM      9  C   UNL     1      32.357 -12.081 -21.576  0.00  0.00    +0.242 C 
ATOM     10  C   UNL     1      33.667 -13.797 -22.673  0.00  0.00    +0.139 C 
ATOM     11  C   UNL     1      32.796 -13.491 -21.706  0.00  0.00    +0.146 C 
ENDROOT
BRANCH  10  15
ATOM     12  N   UNL     1      34.229 -17.195 -23.751  0.00  0.00    -0.178 N 
ATOM     13  N   UNL     1      33.780 -15.915 -23.816  0.00  0.00    -0.173 NA
ATOM     14  N   UNL     1      35.211 -19.045 -22.991  0.00  0.00    -0.392 NA
ATOM     15  C   UNL     1      34.075 -15.201 -22.766  0.00  0.00    +0.124 C 
ATOM     16  C   UNL     1      34.834 -15.705 -21.581  0.00  0.00    +0.023 C 
ATOM     17  C   UNL     1      35.251 -16.985 -21.578  0.00  0.00    +0.025 C 
ATOM     18  C   UNL     1      34.938 -17.783 -22.719  0.00  0.00    +0.198 C 
ATOM     19  C   UNL     1      34.055 -18.149 -24.717  0.00  0.00    +0.173 C 
ATOM     20  C   UNL     1      34.667 -19.277 -24.227  0.00  0.00    +0.111 C 
ATOM     21  C   UNL     1      36.017 -17.516 -20.394  0.00  0.00    +0.035 C 
ATOM     22  C   UNL     1      34.781 -20.600 -24.858  0.00  0.00    +0.063 C 
ENDBRANCH  10  15
BRANCH   4  24
ATOM     23  N   UNL     1      32.559  -4.829 -22.696  0.00  0.00    +0.389 N 
ATOM     24  N   UNL     1      32.733  -7.627 -23.302  0.00  0.00    -0.311 N 
ATOM     25  C   UNL     1      31.877  -5.850 -21.860  0.00  0.00    -0.027 C 
ATOM     26  C   UNL     1      30.896  -5.370 -20.814  0.00  0.00    -0.020 C 
ATOM     27  C   UNL     1      32.223  -5.922 -20.388  0.00  0.00    -0.020 C 
ATOM     28  C   UNL     1      31.551  -7.140 -22.584  0.00  0.00    +0.071 C 
ATOM     29  C   UNL     1      33.763  -5.398 -23.305  0.00  0.00    -0.060 C 
ATOM     30  C   UNL     1      33.423  -6.636 -24.135  0.00  0.00    +0.067 C 
ATOM     31  H   UNL     1      32.820  -4.034 -22.114  0.00  0.00    -0.084 HD
ATOM     32  H   UNL     1      31.924  -4.525 -23.435  0.00  0.00    -0.084 HD
ENDBRANCH   4  24
TORSDOF 2
ENDMDL
MODEL 8
REMARK VINA RESULT:      -9.6      1.812      2.477
REMARK  Name = 118513932
REMARK  2 active torsions:
REMARK  status: ('A' for Active; 'I' for Inactive)
REMARK    1  A    between atoms: C_4  and  N_24
REMARK    2  A    between atoms: C_10  and  C_15
REMARK                            x       y       z     vdW  Elec       q    Type
REMARK                         _______ _______ _______ _____ _____    ______ ____
ROOT
ATOM      1  O   UNL     1      32.412 -13.442 -20.183  0.00  0.00    -0.274 OA
ATOM      2  N   UNL     1      33.315 -13.271 -22.346  0.00  0.00    -0.209 N 
ATOM      3  N   UNL     1      33.298 -11.144 -23.431  0.00  0.00    -0.389 NA
ATOM      4  C   UNL     1      34.248 -15.172 -23.486  0.00  0.00    +0.063 C 
ATOM      5  C   UNL     1      33.655 -14.617 -22.415  0.00  0.00    +0.089 C 
ATOM      6  C   UNL     1      34.543 -14.317 -24.617  0.00  0.00    +0.020 C 
ATOM      7  C   UNL     1      34.241 -13.015 -24.612  0.00  0.00    +0.050 C 
ATOM      8  C   UNL     1      33.585 -12.411 -23.420  0.00  0.00    +0.193 C 
ATOM      9  C   UNL     1      32.698 -12.789 -21.185  0.00  0.00    +0.242 C 
ATOM     10  C   UNL     1      32.696 -10.646 -22.311  0.00  0.00    +0.139 C 
ATOM     11  C   UNL     1      32.380 -11.342 -21.214  0.00  0.00    +0.146 C 
ENDROOT
BRANCH  10  15
ATOM     12  N   UNL     1      31.819  -7.268 -23.231  0.00  0.00    -0.178 N 
ATOM     13  N   UNL     1      32.113  -8.582 -23.409  0.00  0.00    -0.173 NA
ATOM     14  N   UNL     1      31.449  -5.310 -22.234  0.00  0.00    -0.392 NA
ATOM     15  C   UNL     1      32.363  -9.218 -22.299  0.00  0.00    +0.124 C 
ATOM     16  C   UNL     1      32.340  -8.599 -20.940  0.00  0.00    +0.023 C 
ATOM     17  C   UNL     1      32.042  -7.290 -20.831  0.00  0.00    +0.025 C 
ATOM     18  C   UNL     1      31.765  -6.576 -22.035  0.00  0.00    +0.198 C 
ATOM     19  C   UNL     1      31.519  -6.378 -24.227  0.00  0.00    +0.173 C 
ATOM     20  C   UNL     1      31.295  -5.182 -23.590  0.00  0.00    +0.111 C 
ATOM     21  C   UNL     1      32.013  -6.643 -19.470  0.00  0.00    +0.035 C 
ATOM     22  C   UNL     1      30.936  -3.886 -24.183  0.00  0.00    +0.063 C 
ENDBRANCH  10  15
BRANCH   4  24
ATOM     23  N   UNL     1      34.706 -19.342 -23.269  0.00  0.00    +0.389 N 
ATOM     24  N   UNL     1      34.588 -16.492 -23.568  0.00  0.00    -0.311 N 
ATOM     25  C   UNL     1      35.263 -18.428 -22.239  0.00  0.00    -0.027 C 
ATOM     26  C   UNL     1      36.103 -19.031 -21.135  0.00  0.00    -0.020 C 
ATOM     27  C   UNL     1      34.726 -18.523 -20.827  0.00  0.00    -0.020 C 
ATOM     28  C   UNL     1      35.670 -17.065 -22.761  0.00  0.00    +0.071 C 
ATOM     29  C   UNL     1      33.587 -18.699 -23.962  0.00  0.00    -0.060 C 
ATOM     30  C   UNL     1      34.022 -17.376 -24.592  0.00  0.00    +0.067 C 
ATOM     31  H   UNL     1      34.378 -20.197 -22.821  0.00  0.00    -0.084 HD
ATOM     32  H   UNL     1      35.434 -19.563 -23.948  0.00  0.00    -0.084 HD
ENDBRANCH   4  24
TORSDOF 2
ENDMDL
MODEL 9
REMARK VINA RESULT:      -9.4      1.767     10.111
REMARK  Name = 118513932
REMARK  2 active torsions:
REMARK  status: ('A' for Active; 'I' for Inactive)
REMARK    1  A    between atoms: C_4  and  N_24
REMARK    2  A    between atoms: C_10  and  C_15
REMARK                            x       y       z     vdW  Elec       q    Type
REMARK                         _______ _______ _______ _____ _____    ______ ____
ROOT
ATOM      1  O   UNL     1      31.287 -11.271 -21.025  0.00  0.00    -0.274 OA
ATOM      2  N   UNL     1      32.965 -10.693 -22.566  0.00  0.00    -0.209 N 
ATOM      3  N   UNL     1      34.326 -12.427 -23.485  0.00  0.00    -0.389 NA
ATOM      4  C   UNL     1      33.344  -8.413 -23.235  0.00  0.00    +0.063 C 
ATOM      5  C   UNL     1      32.676  -9.334 -22.518  0.00  0.00    +0.089 C 
ATOM      6  C   UNL     1      34.416  -8.871 -24.094  0.00  0.00    +0.020 C 
ATOM      7  C   UNL     1      34.743 -10.164 -24.184  0.00  0.00    +0.050 C 
ATOM      8  C   UNL     1      33.995 -11.174 -23.386  0.00  0.00    +0.193 C 
ATOM      9  C   UNL     1      32.210 -11.572 -21.779  0.00  0.00    +0.242 C 
ATOM     10  C   UNL     1      33.605 -13.308 -22.729  0.00  0.00    +0.139 C 
ATOM     11  C   UNL     1      32.600 -12.996 -21.905  0.00  0.00    +0.146 C 
ENDROOT
BRANCH  10  15
ATOM     12  N   UNL     1      34.056 -16.719 -23.819  0.00  0.00    -0.178 N 
ATOM     13  N   UNL     1      33.660 -15.422 -23.885  0.00  0.00    -0.173 NA
ATOM     14  N   UNL     1      34.945 -18.612 -23.050  0.00  0.00    -0.392 NA
ATOM     15  C   UNL     1      33.959 -14.727 -22.823  0.00  0.00    +0.124 C 
ATOM     16  C   UNL     1      34.669 -15.269 -21.625  0.00  0.00    +0.023 C 
ATOM     17  C   UNL     1      35.035 -16.565 -21.622  0.00  0.00    +0.025 C 
ATOM     18  C   UNL     1      34.716 -17.342 -22.775  0.00  0.00    +0.198 C 
ATOM     19  C   UNL     1      33.866 -17.659 -24.796  0.00  0.00    +0.173 C 
ATOM     20  C   UNL     1      34.421 -18.814 -24.301  0.00  0.00    +0.111 C 
ATOM     21  C   UNL     1      35.751 -17.134 -20.424  0.00  0.00    +0.035 C 
ATOM     22  C   UNL     1      34.496 -20.136 -24.939  0.00  0.00    +0.063 C 
ENDBRANCH  10  15
BRANCH   4  24
ATOM     23  N   UNL     1      32.100  -4.435 -23.752  0.00  0.00    +0.389 N 
ATOM     24  N   UNL     1      33.071  -7.076 -23.198  0.00  0.00    -0.311 N 
ATOM     25  C   UNL     1      33.272  -5.000 -24.470  0.00  0.00    -0.027 C 
ATOM     26  C   UNL     1      34.089  -4.069 -25.338  0.00  0.00    -0.020 C 
ATOM     27  C   UNL     1      33.210  -5.101 -25.980  0.00  0.00    -0.020 C 
ATOM     28  C   UNL     1      34.016  -6.078 -23.709  0.00  0.00    +0.071 C 
ATOM     29  C   UNL     1      31.187  -5.509 -23.354  0.00  0.00    -0.060 C 
ATOM     30  C   UNL     1      31.906  -6.543 -22.486  0.00  0.00    +0.067 C 
ATOM     31  H   UNL     1      31.608  -3.786 -24.366  0.00  0.00    -0.084 HD
ATOM     32  H   UNL     1      32.424  -3.947 -22.918  0.00  0.00    -0.084 HD
ENDBRANCH   4  24
TORSDOF 2
ENDMDL
