MODEL 1
REMARK VINA RESULT:     -11.0      0.000      0.000
REMARK  Name = 11574606
REMARK  6 active torsions:
REMARK  status: ('A' for Active; 'I' for Inactive)
REMARK    1  A    between atoms: C_5  and  O_24
REMARK    2  A    between atoms: C_7  and  N_10
REMARK    3  A    between atoms: N_10  and  C_12
REMARK    4  A    between atoms: C_15  and  S_18
REMARK    5  A    between atoms: S_18  and  N_21
REMARK    6  A    between atoms: O_24  and  C_25
REMARK                            x       y       z     vdW  Elec       q    Type
REMARK                         _______ _______ _______ _____ _____    ______ ____
ROOT
ATOM      1  N   UNL     1      32.578 -23.371 -13.899  0.00  0.00    -0.299 NA
ATOM      2  N   UNL     1      31.820 -23.006 -16.152  0.00  0.00    -0.106 N 
ATOM      3  N   UNL     1      30.653 -22.733 -16.793  0.00  0.00    -0.139 NA
ATOM      4  N   UNL     1      30.290 -22.894 -14.551  0.00  0.00    -0.145 NA
ATOM      5  C   UNL     1      33.751 -23.527 -14.425  0.00  0.00    +0.291 C 
ATOM      6  C   UNL     1      34.118 -23.449 -15.856  0.00  0.00    +0.105 C 
ATOM      7  C   UNL     1      33.102 -23.182 -16.694  0.00  0.00    +0.142 C 
ATOM      8  C   UNL     1      31.572 -23.101 -14.777  0.00  0.00    +0.178 C 
ATOM      9  C   UNL     1      29.782 -22.677 -15.790  0.00  0.00    +0.230 C 
ENDROOT
BRANCH   7  10
ATOM     10  N   UNL     1      33.237 -23.068 -18.048  0.00  0.00    -0.299 N 
ATOM     11  H   UNL     1      32.868 -23.811 -18.580  0.00  0.00    +0.153 HD
BRANCH  10  12
ATOM     12  C   UNL     1      33.833 -22.034 -18.778  0.00  0.00    +0.049 C 
ATOM     13  C   UNL     1      35.227 -21.905 -18.817  0.00  0.00    +0.016 C 
ATOM     14  C   UNL     1      33.043 -21.115 -19.480  0.00  0.00    +0.016 C 
ATOM     15  C   UNL     1      35.026 -19.963 -20.240  0.00  0.00    +0.122 C 
ATOM     16  C   UNL     1      35.821 -20.874 -19.545  0.00  0.00    +0.021 C 
ATOM     17  C   UNL     1      33.637 -20.084 -20.207  0.00  0.00    +0.021 C 
BRANCH  15  18
ATOM     18  S   UNL     1      35.769 -18.672 -21.150  0.00  0.00    +0.057 S 
ATOM     19  O   UNL     1      35.532 -18.914 -22.567  0.00  0.00    -0.153 OA
ATOM     20  O   UNL     1      35.375 -17.401 -20.558  0.00  0.00    -0.153 OA
BRANCH  18  21
ATOM     21  N   UNL     1      37.421 -18.945 -20.813  0.00  0.00    -0.203 NA
ATOM     22  H   UNL     1      37.989 -18.579 -21.578  0.00  0.00    +0.144 HD
ATOM     23  H   UNL     1      37.588 -19.947 -20.716  0.00  0.00    +0.144 HD
ENDBRANCH  18  21
ENDBRANCH  15  18
ENDBRANCH  10  12
ENDBRANCH   7  10
BRANCH   5  24
ATOM     24  O   UNL     1      34.817 -23.799 -13.635  0.00  0.00    -0.455 OA
BRANCH  24  25
ATOM     25  C   UNL     1      36.005 -23.991 -14.400  0.00  0.00    +0.169 C 
ATOM     26  C   UNL     1      37.097 -23.040 -13.906  0.00  0.00    +0.044 C 
ATOM     27  C   UNL     1      36.435 -25.453 -14.281  0.00  0.00    +0.044 C 
ATOM     28  C   UNL     1      37.571 -23.392 -12.495  0.00  0.00    +0.004 C 
ATOM     29  C   UNL     1      36.912 -25.801 -12.871  0.00  0.00    +0.004 C 
ATOM     30  C   UNL     1      38.008 -24.852 -12.397  0.00  0.00    +0.000 C 
ENDBRANCH  24  25
ENDBRANCH   5  24
TORSDOF 6
ENDMDL
MODEL 2
REMARK VINA RESULT:     -10.1      5.325     10.638
REMARK  Name = 11574606
REMARK  6 active torsions:
REMARK  status: ('A' for Active; 'I' for Inactive)
REMARK    1  A    between atoms: C_5  and  O_24
REMARK    2  A    between atoms: C_7  and  N_10
REMARK    3  A    between atoms: N_10  and  C_12
REMARK    4  A    between atoms: C_15  and  S_18
REMARK    5  A    between atoms: S_18  and  N_21
REMARK    6  A    between atoms: O_24  and  C_25
REMARK                            x       y       z     vdW  Elec       q    Type
REMARK                         _______ _______ _______ _____ _____    ______ ____
ROOT
ATOM      1  N   UNL     1      33.826 -16.027 -24.296  0.00  0.00    -0.299 NA
ATOM      2  N   UNL     1      34.604 -18.070 -23.294  0.00  0.00    -0.106 N 
ATOM      3  N   UNL     1      34.515 -19.406 -23.525  0.00  0.00    -0.139 NA
ATOM      4  N   UNL     1      33.376 -18.261 -25.131  0.00  0.00    -0.145 NA
ATOM      5  C   UNL     1      34.448 -15.433 -23.329  0.00  0.00    +0.291 C 
ATOM      6  C   UNL     1      35.219 -16.055 -22.231  0.00  0.00    +0.105 C 
ATOM      7  C   UNL     1      35.269 -17.398 -22.257  0.00  0.00    +0.142 C 
ATOM      8  C   UNL     1      33.898 -17.388 -24.292  0.00  0.00    +0.178 C 
ATOM      9  C   UNL     1      33.775 -19.457 -24.628  0.00  0.00    +0.230 C 
ENDROOT
BRANCH   7  10
ATOM     10  N   UNL     1      35.929 -18.158 -21.333  0.00  0.00    -0.299 N 
ATOM     11  H   UNL     1      36.865 -17.904 -21.159  0.00  0.00    +0.153 HD
BRANCH  10  12
ATOM     12  C   UNL     1      35.449 -19.250 -20.604  0.00  0.00    +0.049 C 
ATOM     13  C   UNL     1      36.337 -20.118 -19.957  0.00  0.00    +0.016 C 
ATOM     14  C   UNL     1      34.071 -19.488 -20.509  0.00  0.00    +0.016 C 
ATOM     15  C   UNL     1      34.484 -21.438 -19.142  0.00  0.00    +0.122 C 
ATOM     16  C   UNL     1      35.857 -21.207 -19.230  0.00  0.00    +0.021 C 
ATOM     17  C   UNL     1      33.592 -20.578 -19.783  0.00  0.00    +0.021 C 
BRANCH  15  18
ATOM     18  S   UNL     1      33.883 -22.801 -18.233  0.00  0.00    +0.057 S 
ATOM     19  O   UNL     1      33.793 -23.946 -19.129  0.00  0.00    -0.153 OA
ATOM     20  O   UNL     1      34.647 -22.907 -16.998  0.00  0.00    -0.153 OA
BRANCH  18  21
ATOM     21  N   UNL     1      32.303 -22.270 -17.857  0.00  0.00    -0.203 NA
ATOM     22  H   UNL     1      31.915 -22.856 -17.117  0.00  0.00    +0.144 HD
ATOM     23  H   UNL     1      31.715 -22.337 -18.687  0.00  0.00    +0.144 HD
ENDBRANCH  18  21
ENDBRANCH  15  18
ENDBRANCH  10  12
ENDBRANCH   7  10
BRANCH   5  24
ATOM     24  O   UNL     1      34.436 -14.081 -23.246  0.00  0.00    -0.455 OA
BRANCH  24  25
ATOM     25  C   UNL     1      33.208 -13.534 -23.724  0.00  0.00    +0.169 C 
ATOM     26  C   UNL     1      32.480 -12.820 -22.583  0.00  0.00    +0.044 C 
ATOM     27  C   UNL     1      33.512 -12.582 -24.881  0.00  0.00    +0.044 C 
ATOM     28  C   UNL     1      33.225 -11.566 -22.122  0.00  0.00    +0.004 C 
ATOM     29  C   UNL     1      34.252 -11.328 -24.416  0.00  0.00    +0.004 C 
ATOM     30  C   UNL     1      33.509 -10.621 -23.287  0.00  0.00    +0.000 C 
ENDBRANCH  24  25
ENDBRANCH   5  24
TORSDOF 6
ENDMDL
MODEL 3
REMARK VINA RESULT:      -9.9      1.939      5.237
REMARK  Name = 11574606
REMARK  6 active torsions:
REMARK  status: ('A' for Active; 'I' for Inactive)
REMARK    1  A    between atoms: C_5  and  O_24
REMARK    2  A    between atoms: C_7  and  N_10
REMARK    3  A    between atoms: N_10  and  C_12
REMARK    4  A    between atoms: C_15  and  S_18
REMARK    5  A    between atoms: S_18  and  N_21
REMARK    6  A    between atoms: O_24  and  C_25
REMARK                            x       y       z     vdW  Elec       q    Type
REMARK                         _______ _______ _______ _____ _____    ______ ____
ROOT
ATOM      1  N   UNL     1      31.590 -23.168 -14.978  0.00  0.00    -0.299 NA
ATOM      2  N   UNL     1      33.811 -23.386 -15.873  0.00  0.00    -0.106 N 
ATOM      3  N   UNL     1      35.041 -23.773 -15.441  0.00  0.00    -0.139 NA
ATOM      4  N   UNL     1      33.531 -23.941 -13.744  0.00  0.00    -0.145 NA
ATOM      5  C   UNL     1      31.261 -22.756 -16.160  0.00  0.00    +0.291 C 
ATOM      6  C   UNL     1      32.139 -22.602 -17.341  0.00  0.00    +0.105 C 
ATOM      7  C   UNL     1      33.426 -22.935 -17.144  0.00  0.00    +0.142 C 
ATOM      8  C   UNL     1      32.902 -23.497 -14.814  0.00  0.00    +0.178 C 
ATOM      9  C   UNL     1      34.810 -24.091 -14.172  0.00  0.00    +0.230 C 
ENDROOT
BRANCH   7  10
ATOM     10  N   UNL     1      34.391 -22.864 -18.109  0.00  0.00    -0.299 N 
ATOM     11  H   UNL     1      34.924 -23.680 -18.244  0.00  0.00    +0.153 HD
BRANCH  10  12
ATOM     12  C   UNL     1      34.721 -21.779 -18.928  0.00  0.00    +0.049 C 
ATOM     13  C   UNL     1      33.721 -21.075 -19.610  0.00  0.00    +0.016 C 
ATOM     14  C   UNL     1      36.057 -21.382 -19.075  0.00  0.00    +0.016 C 
ATOM     15  C   UNL     1      35.382 -19.605 -20.568  0.00  0.00    +0.122 C 
ATOM     16  C   UNL     1      34.050 -19.992 -20.426  0.00  0.00    +0.021 C 
ATOM     17  C   UNL     1      36.385 -20.301 -19.892  0.00  0.00    +0.021 C 
BRANCH  15  18
ATOM     18  S   UNL     1      35.795 -18.252 -21.590  0.00  0.00    +0.057 S 
ATOM     19  O   UNL     1      35.241 -18.493 -22.916  0.00  0.00    -0.153 OA
ATOM     20  O   UNL     1      35.470 -17.021 -20.883  0.00  0.00    -0.153 OA
BRANCH  18  21
ATOM     21  N   UNL     1      37.494 -18.408 -21.667  0.00  0.00    -0.203 NA
ATOM     22  H   UNL     1      37.912 -17.494 -21.847  0.00  0.00    +0.144 HD
ATOM     23  H   UNL     1      37.744 -19.050 -22.419  0.00  0.00    +0.144 HD
ENDBRANCH  18  21
ENDBRANCH  15  18
ENDBRANCH  10  12
ENDBRANCH   7  10
BRANCH   5  24
ATOM     24  O   UNL     1      29.980 -22.405 -16.424  0.00  0.00    -0.455 OA
BRANCH  24  25
ATOM     25  C   UNL     1      29.080 -23.491 -16.209  0.00  0.00    +0.169 C 
ATOM     26  C   UNL     1      28.589 -23.477 -14.760  0.00  0.00    +0.044 C 
ATOM     27  C   UNL     1      27.921 -23.371 -17.198  0.00  0.00    +0.044 C 
ATOM     28  C   UNL     1      27.699 -22.267 -14.467  0.00  0.00    +0.004 C 
ATOM     29  C   UNL     1      27.031 -22.165 -16.900  0.00  0.00    +0.004 C 
ATOM     30  C   UNL     1      26.540 -22.170 -15.456  0.00  0.00    +0.000 C 
ENDBRANCH  24  25
ENDBRANCH   5  24
TORSDOF 6
ENDMDL
MODEL 4
REMARK VINA RESULT:      -9.6      3.682      7.285
REMARK  Name = 11574606
REMARK  6 active torsions:
REMARK  status: ('A' for Active; 'I' for Inactive)
REMARK    1  A    between atoms: C_5  and  O_24
REMARK    2  A    between atoms: C_7  and  N_10
REMARK    3  A    between atoms: N_10  and  C_12
REMARK    4  A    between atoms: C_15  and  S_18
REMARK    5  A    between atoms: S_18  and  N_21
REMARK    6  A    between atoms: O_24  and  C_25
REMARK                            x       y       z     vdW  Elec       q    Type
REMARK                         _______ _______ _______ _____ _____    ______ ____
ROOT
ATOM      1  N   UNL     1      37.390 -22.315 -16.275  0.00  0.00    -0.299 NA
ATOM      2  N   UNL     1      36.230 -23.663 -14.656  0.00  0.00    -0.106 N 
ATOM      3  N   UNL     1      36.540 -24.498 -13.630  0.00  0.00    -0.139 NA
ATOM      4  N   UNL     1      38.446 -23.686 -14.574  0.00  0.00    -0.145 NA
ATOM      5  C   UNL     1      36.212 -21.989 -16.701  0.00  0.00    +0.291 C 
ATOM      6  C   UNL     1      34.904 -22.444 -16.179  0.00  0.00    +0.105 C 
ATOM      7  C   UNL     1      34.967 -23.293 -15.140  0.00  0.00    +0.142 C 
ATOM      8  C   UNL     1      37.416 -23.177 -15.220  0.00  0.00    +0.178 C 
ATOM      9  C   UNL     1      37.869 -24.470 -13.630  0.00  0.00    +0.230 C 
ENDROOT
BRANCH   7  10
ATOM     10  N   UNL     1      33.872 -23.824 -14.518  0.00  0.00    -0.299 N 
ATOM     11  H   UNL     1      34.058 -24.425 -13.761  0.00  0.00    +0.153 HD
BRANCH  10  12
ATOM     12  C   UNL     1      32.521 -23.624 -14.820  0.00  0.00    +0.049 C 
ATOM     13  C   UNL     1      31.534 -23.872 -13.858  0.00  0.00    +0.016 C 
ATOM     14  C   UNL     1      32.137 -23.172 -16.090  0.00  0.00    +0.016 C 
ATOM     15  C   UNL     1      29.814 -23.224 -15.426  0.00  0.00    +0.122 C 
ATOM     16  C   UNL     1      30.187 -23.672 -14.159  0.00  0.00    +0.021 C 
ATOM     17  C   UNL     1      30.790 -22.974 -16.391  0.00  0.00    +0.021 C 
BRANCH  15  18
ATOM     18  S   UNL     1      28.129 -22.975 -15.805  0.00  0.00    +0.057 S 
ATOM     19  O   UNL     1      27.351 -23.174 -14.589  0.00  0.00    -0.153 OA
ATOM     20  O   UNL     1      28.000 -21.730 -16.550  0.00  0.00    -0.153 OA
BRANCH  18  21
ATOM     21  N   UNL     1      27.837 -24.282 -16.865  0.00  0.00    -0.203 NA
ATOM     22  H   UNL     1      28.433 -24.191 -17.689  0.00  0.00    +0.144 HD
ATOM     23  H   UNL     1      26.858 -24.275 -17.152  0.00  0.00    +0.144 HD
ENDBRANCH  18  21
ENDBRANCH  15  18
ENDBRANCH  10  12
ENDBRANCH   7  10
BRANCH   5  24
ATOM     24  O   UNL     1      36.080 -21.137 -17.746  0.00  0.00    -0.455 OA
BRANCH  24  25
ATOM     25  C   UNL     1      35.872 -21.835 -18.972  0.00  0.00    +0.169 C 
ATOM     26  C   UNL     1      34.411 -22.274 -19.077  0.00  0.00    +0.044 C 
ATOM     27  C   UNL     1      36.270 -20.920 -20.131  0.00  0.00    +0.044 C 
ATOM     28  C   UNL     1      33.462 -21.084 -19.227  0.00  0.00    +0.004 C 
ATOM     29  C   UNL     1      35.317 -19.734 -20.282  0.00  0.00    +0.004 C 
ATOM     30  C   UNL     1      33.866 -20.188 -20.395  0.00  0.00    +0.000 C 
ENDBRANCH  24  25
ENDBRANCH   5  24
TORSDOF 6
ENDMDL
MODEL 5
REMARK VINA RESULT:      -9.6      1.994      4.771
REMARK  Name = 11574606
REMARK  6 active torsions:
REMARK  status: ('A' for Active; 'I' for Inactive)
REMARK    1  A    between atoms: C_5  and  O_24
REMARK    2  A    between atoms: C_7  and  N_10
REMARK    3  A    between atoms: N_10  and  C_12
REMARK    4  A    between atoms: C_15  and  S_18
REMARK    5  A    between atoms: S_18  and  N_21
REMARK    6  A    between atoms: O_24  and  C_25
REMARK                            x       y       z     vdW  Elec       q    Type
REMARK                         _______ _______ _______ _____ _____    ______ ____
ROOT
ATOM      1  N   UNL     1      33.711 -23.058 -14.135  0.00  0.00    -0.299 NA
ATOM      2  N   UNL     1      35.268 -22.864 -15.957  0.00  0.00    -0.106 N 
ATOM      3  N   UNL     1      36.609 -22.719 -16.130  0.00  0.00    -0.139 NA
ATOM      4  N   UNL     1      36.114 -22.809 -13.908  0.00  0.00    -0.145 NA
ATOM      5  C   UNL     1      32.801 -23.139 -15.052  0.00  0.00    +0.291 C 
ATOM      6  C   UNL     1      32.988 -23.094 -16.519  0.00  0.00    +0.105 C 
ATOM      7  C   UNL     1      34.260 -22.954 -16.929  0.00  0.00    +0.142 C 
ATOM      8  C   UNL     1      34.990 -22.916 -14.586  0.00  0.00    +0.178 C 
ATOM      9  C   UNL     1      37.056 -22.694 -14.878  0.00  0.00    +0.230 C 
ENDROOT
BRANCH   7  10
ATOM     10  N   UNL     1      34.639 -22.892 -18.240  0.00  0.00    -0.299 N 
ATOM     11  H   UNL     1      34.795 -23.757 -18.683  0.00  0.00    +0.153 HD
BRANCH  10  12
ATOM     12  C   UNL     1      34.835 -21.757 -19.034  0.00  0.00    +0.049 C 
ATOM     13  C   UNL     1      33.742 -21.088 -19.598  0.00  0.00    +0.016 C 
ATOM     14  C   UNL     1      36.129 -21.275 -19.275  0.00  0.00    +0.016 C 
ATOM     15  C   UNL     1      35.230 -19.484 -20.625  0.00  0.00    +0.122 C 
ATOM     16  C   UNL     1      33.938 -19.956 -20.390  0.00  0.00    +0.021 C 
ATOM     17  C   UNL     1      36.325 -20.145 -20.067  0.00  0.00    +0.021 C 
BRANCH  15  18
ATOM     18  S   UNL     1      35.477 -18.069 -21.616  0.00  0.00    +0.057 S 
ATOM     19  O   UNL     1      34.651 -18.196 -22.810  0.00  0.00    -0.153 OA
ATOM     20  O   UNL     1      35.355 -16.887 -20.775  0.00  0.00    -0.153 OA
BRANCH  18  21
ATOM     21  N   UNL     1      37.116 -18.262 -22.057  0.00  0.00    -0.203 NA
ATOM     22  H   UNL     1      37.712 -18.009 -21.269  0.00  0.00    +0.144 HD
ATOM     23  H   UNL     1      37.328 -17.658 -22.852  0.00  0.00    +0.144 HD
ENDBRANCH  18  21
ENDBRANCH  15  18
ENDBRANCH  10  12
ENDBRANCH   7  10
BRANCH   5  24
ATOM     24  O   UNL     1      31.500 -23.281 -14.704  0.00  0.00    -0.455 OA
BRANCH  24  25
ATOM     25  C   UNL     1      30.719 -23.794 -15.782  0.00  0.00    +0.169 C 
ATOM     26  C   UNL     1      30.011 -25.077 -15.344  0.00  0.00    +0.044 C 
ATOM     27  C   UNL     1      29.721 -22.721 -16.218  0.00  0.00    +0.044 C 
ATOM     28  C   UNL     1      28.944 -24.811 -14.280  0.00  0.00    +0.004 C 
ATOM     29  C   UNL     1      28.653 -22.461 -15.156  0.00  0.00    +0.004 C 
ATOM     30  C   UNL     1      27.949 -23.748 -14.737  0.00  0.00    +0.000 C 
ENDBRANCH  24  25
ENDBRANCH   5  24
TORSDOF 6
ENDMDL
MODEL 6
REMARK VINA RESULT:      -9.6      4.545      6.717
REMARK  Name = 11574606
REMARK  6 active torsions:
REMARK  status: ('A' for Active; 'I' for Inactive)
REMARK    1  A    between atoms: C_5  and  O_24
REMARK    2  A    between atoms: C_7  and  N_10
REMARK    3  A    between atoms: N_10  and  C_12
REMARK    4  A    between atoms: C_15  and  S_18
REMARK    5  A    between atoms: S_18  and  N_21
REMARK    6  A    between atoms: O_24  and  C_25
REMARK                            x       y       z     vdW  Elec       q    Type
REMARK                         _______ _______ _______ _____ _____    ______ ____
ROOT
ATOM      1  N   UNL     1      37.214 -26.293 -12.665  0.00  0.00    -0.299 NA
ATOM      2  N   UNL     1      35.766 -24.409 -12.298  0.00  0.00    -0.106 N 
ATOM      3  N   UNL     1      35.230 -23.736 -11.246  0.00  0.00    -0.139 NA
ATOM      4  N   UNL     1      36.527 -25.451 -10.495  0.00  0.00    -0.145 NA
ATOM      5  C   UNL     1      37.051 -26.047 -13.925  0.00  0.00    +0.291 C 
ATOM      6  C   UNL     1      36.241 -24.973 -14.540  0.00  0.00    +0.105 C 
ATOM      7  C   UNL     1      35.607 -24.166 -13.671  0.00  0.00    +0.142 C 
ATOM      8  C   UNL     1      36.558 -25.456 -11.813  0.00  0.00    +0.178 C 
ATOM      9  C   UNL     1      35.719 -24.401 -10.204  0.00  0.00    +0.230 C 
ENDROOT
BRANCH   7  10
ATOM     10  N   UNL     1      34.812 -23.118 -14.040  0.00  0.00    -0.299 N 
ATOM     11  H   UNL     1      35.244 -22.233 -14.043  0.00  0.00    +0.153 HD
BRANCH  10  12
ATOM     12  C   UNL     1      33.465 -23.140 -14.413  0.00  0.00    +0.049 C 
ATOM     13  C   UNL     1      32.459 -23.192 -13.440  0.00  0.00    +0.016 C 
ATOM     14  C   UNL     1      33.103 -23.108 -15.767  0.00  0.00    +0.016 C 
ATOM     15  C   UNL     1      30.765 -23.183 -15.162  0.00  0.00    +0.122 C 
ATOM     16  C   UNL     1      31.115 -23.214 -13.812  0.00  0.00    +0.021 C 
ATOM     17  C   UNL     1      31.759 -23.131 -16.139  0.00  0.00    +0.021 C 
BRANCH  15  18
ATOM     18  S   UNL     1      29.083 -23.211 -15.629  0.00  0.00    +0.057 S 
ATOM     19  O   UNL     1      28.976 -22.704 -16.991  0.00  0.00    -0.153 OA
ATOM     20  O   UNL     1      28.532 -24.518 -15.299  0.00  0.00    -0.153 OA
BRANCH  18  21
ATOM     21  N   UNL     1      28.428 -22.053 -14.557  0.00  0.00    -0.203 NA
ATOM     22  H   UNL     1      29.142 -21.771 -13.884  0.00  0.00    +0.144 HD
ATOM     23  H   UNL     1      27.635 -22.459 -14.061  0.00  0.00    +0.144 HD
ENDBRANCH  18  21
ENDBRANCH  15  18
ENDBRANCH  10  12
ENDBRANCH   7  10
BRANCH   5  24
ATOM     24  O   UNL     1      37.662 -26.823 -14.852  0.00  0.00    -0.455 OA
BRANCH  24  25
ATOM     25  C   UNL     1      38.514 -27.795 -14.247  0.00  0.00    +0.169 C 
ATOM     26  C   UNL     1      38.095 -29.198 -14.690  0.00  0.00    +0.044 C 
ATOM     27  C   UNL     1      39.960 -27.489 -14.636  0.00  0.00    +0.044 C 
ATOM     28  C   UNL     1      38.357 -29.433 -16.179  0.00  0.00    +0.004 C 
ATOM     29  C   UNL     1      40.220 -27.730 -16.124  0.00  0.00    +0.004 C 
ATOM     30  C   UNL     1      39.808 -29.136 -16.548  0.00  0.00    +0.000 C 
ENDBRANCH  24  25
ENDBRANCH   5  24
TORSDOF 6
ENDMDL
MODEL 7
REMARK VINA RESULT:      -9.6      3.812      7.592
REMARK  Name = 11574606
REMARK  6 active torsions:
REMARK  status: ('A' for Active; 'I' for Inactive)
REMARK    1  A    between atoms: C_5  and  O_24
REMARK    2  A    between atoms: C_7  and  N_10
REMARK    3  A    between atoms: N_10  and  C_12
REMARK    4  A    between atoms: C_15  and  S_18
REMARK    5  A    between atoms: S_18  and  N_21
REMARK    6  A    between atoms: O_24  and  C_25
REMARK                            x       y       z     vdW  Elec       q    Type
REMARK                         _______ _______ _______ _____ _____    ______ ____
ROOT
ATOM      1  N   UNL     1      32.413 -22.108 -18.380  0.00  0.00    -0.299 NA
ATOM      2  N   UNL     1      34.779 -21.856 -18.027  0.00  0.00    -0.106 N 
ATOM      3  N   UNL     1      35.830 -21.242 -18.630  0.00  0.00    -0.139 NA
ATOM      4  N   UNL     1      33.920 -20.851 -19.807  0.00  0.00    -0.145 NA
ATOM      5  C   UNL     1      32.429 -22.821 -17.300  0.00  0.00    +0.291 C 
ATOM      6  C   UNL     1      33.593 -23.148 -16.448  0.00  0.00    +0.105 C 
ATOM      7  C   UNL     1      34.765 -22.635 -16.860  0.00  0.00    +0.142 C 
ATOM      8  C   UNL     1      33.618 -21.602 -18.768  0.00  0.00    +0.178 C 
ATOM      9  C   UNL     1      35.257 -20.661 -19.680  0.00  0.00    +0.230 C 
ENDROOT
BRANCH   7  10
ATOM     10  N   UNL     1      35.953 -22.822 -16.211  0.00  0.00    -0.299 N 
ATOM     11  H   UNL     1      36.752 -22.480 -16.673  0.00  0.00    +0.153 HD
BRANCH  10  12
ATOM     12  C   UNL     1      36.179 -23.438 -14.976  0.00  0.00    +0.049 C 
ATOM     13  C   UNL     1      36.205 -22.679 -13.799  0.00  0.00    +0.016 C 
ATOM     14  C   UNL     1      36.382 -24.822 -14.900  0.00  0.00    +0.016 C 
ATOM     15  C   UNL     1      36.633 -24.673 -12.502  0.00  0.00    +0.122 C 
ATOM     16  C   UNL     1      36.430 -23.294 -12.567  0.00  0.00    +0.021 C 
ATOM     17  C   UNL     1      36.609 -25.436 -13.669  0.00  0.00    +0.021 C 
BRANCH  15  18
ATOM     18  S   UNL     1      36.916 -25.442 -10.961  0.00  0.00    +0.057 S 
ATOM     19  O   UNL     1      37.113 -26.868 -11.189  0.00  0.00    -0.153 OA
ATOM     20  O   UNL     1      37.925 -24.679 -10.240  0.00  0.00    -0.153 OA
BRANCH  18  21
ATOM     21  N   UNL     1      35.405 -25.210 -10.199  0.00  0.00    -0.203 NA
ATOM     22  H   UNL     1      34.703 -25.802 -10.646  0.00  0.00    +0.144 HD
ATOM     23  H   UNL     1      35.128 -24.232 -10.282  0.00  0.00    +0.144 HD
ENDBRANCH  18  21
ENDBRANCH  15  18
ENDBRANCH  10  12
ENDBRANCH   7  10
BRANCH   5  24
ATOM     24  O   UNL     1      31.281 -23.368 -16.832  0.00  0.00    -0.455 OA
BRANCH  24  25
ATOM     25  C   UNL     1      30.920 -22.830 -15.561  0.00  0.00    +0.169 C 
ATOM     26  C   UNL     1      29.423 -22.516 -15.538  0.00  0.00    +0.044 C 
ATOM     27  C   UNL     1      31.301 -23.837 -14.476  0.00  0.00    +0.044 C 
ATOM     28  C   UNL     1      28.569 -23.784 -15.598  0.00  0.00    +0.004 C 
ATOM     29  C   UNL     1      30.443 -25.100 -14.535  0.00  0.00    +0.004 C 
ATOM     30  C   UNL     1      28.954 -24.772 -14.500  0.00  0.00    +0.000 C 
ENDBRANCH  24  25
ENDBRANCH   5  24
TORSDOF 6
ENDMDL
MODEL 8
REMARK VINA RESULT:      -9.2      3.389      6.999
REMARK  Name = 11574606
REMARK  6 active torsions:
REMARK  status: ('A' for Active; 'I' for Inactive)
REMARK    1  A    between atoms: C_5  and  O_24
REMARK    2  A    between atoms: C_7  and  N_10
REMARK    3  A    between atoms: N_10  and  C_12
REMARK    4  A    between atoms: C_15  and  S_18
REMARK    5  A    between atoms: S_18  and  N_21
REMARK    6  A    between atoms: O_24  and  C_25
REMARK                            x       y       z     vdW  Elec       q    Type
REMARK                         _______ _______ _______ _____ _____    ______ ____
ROOT
ATOM      1  N   UNL     1      31.583 -22.738 -16.703  0.00  0.00    -0.299 NA
ATOM      2  N   UNL     1      31.985 -24.186 -14.825  0.00  0.00    -0.106 N 
ATOM      3  N   UNL     1      31.267 -24.994 -14.001  0.00  0.00    -0.139 NA
ATOM      4  N   UNL     1      29.889 -24.020 -15.530  0.00  0.00    -0.145 NA
ATOM      5  C   UNL     1      32.858 -22.514 -16.675  0.00  0.00    +0.291 C 
ATOM      6  C   UNL     1      33.856 -23.078 -15.741  0.00  0.00    +0.105 C 
ATOM      7  C   UNL     1      33.363 -23.923 -14.819  0.00  0.00    +0.142 C 
ATOM      8  C   UNL     1      31.118 -23.600 -15.755  0.00  0.00    +0.178 C 
ATOM      9  C   UNL     1      30.031 -24.855 -14.470  0.00  0.00    +0.230 C 
ENDROOT
BRANCH   7  10
ATOM     10  N   UNL     1      34.122 -24.547 -13.870  0.00  0.00    -0.299 N 
ATOM     11  H   UNL     1      33.653 -24.791 -13.039  0.00  0.00    +0.153 HD
BRANCH  10  12
ATOM     12  C   UNL     1      35.478 -24.883 -13.926  0.00  0.00    +0.049 C 
ATOM     13  C   UNL     1      35.902 -26.006 -14.646  0.00  0.00    +0.016 C 
ATOM     14  C   UNL     1      36.431 -24.098 -13.262  0.00  0.00    +0.016 C 
ATOM     15  C   UNL     1      38.196 -25.554 -14.037  0.00  0.00    +0.122 C 
ATOM     16  C   UNL     1      37.256 -26.341 -14.702  0.00  0.00    +0.021 C 
ATOM     17  C   UNL     1      37.783 -24.433 -13.317  0.00  0.00    +0.021 C 
BRANCH  15  18
ATOM     18  S   UNL     1      39.889 -25.973 -14.106  0.00  0.00    +0.057 S 
ATOM     19  O   UNL     1      40.624 -25.057 -13.242  0.00  0.00    -0.153 OA
ATOM     20  O   UNL     1      40.020 -27.410 -13.912  0.00  0.00    -0.153 OA
BRANCH  18  21
ATOM     21  N   UNL     1      40.251 -25.603 -15.734  0.00  0.00    -0.203 NA
ATOM     22  H   UNL     1      40.304 -24.590 -15.849  0.00  0.00    +0.144 HD
ATOM     23  H   UNL     1      39.518 -25.976 -16.338  0.00  0.00    +0.144 HD
ENDBRANCH  18  21
ENDBRANCH  15  18
ENDBRANCH  10  12
ENDBRANCH   7  10
BRANCH   5  24
ATOM     24  O   UNL     1      33.417 -21.671 -17.577  0.00  0.00    -0.455 OA
BRANCH  24  25
ATOM     25  C   UNL     1      33.481 -22.257 -18.876  0.00  0.00    +0.169 C 
ATOM     26  C   UNL     1      32.756 -21.362 -19.883  0.00  0.00    +0.044 C 
ATOM     27  C   UNL     1      34.949 -22.455 -19.253  0.00  0.00    +0.044 C 
ATOM     28  C   UNL     1      33.483 -20.034 -20.100  0.00  0.00    +0.004 C 
ATOM     29  C   UNL     1      35.672 -21.126 -19.473  0.00  0.00    +0.004 C 
ATOM     30  C   UNL     1      34.944 -20.250 -20.488  0.00  0.00    +0.000 C 
ENDBRANCH  24  25
ENDBRANCH   5  24
TORSDOF 6
ENDMDL
MODEL 9
REMARK VINA RESULT:      -9.2      4.493      6.719
REMARK  Name = 11574606
REMARK  6 active torsions:
REMARK  status: ('A' for Active; 'I' for Inactive)
REMARK    1  A    between atoms: C_5  and  O_24
REMARK    2  A    between atoms: C_7  and  N_10
REMARK    3  A    between atoms: N_10  and  C_12
REMARK    4  A    between atoms: C_15  and  S_18
REMARK    5  A    between atoms: S_18  and  N_21
REMARK    6  A    between atoms: O_24  and  C_25
REMARK                            x       y       z     vdW  Elec       q    Type
REMARK                         _______ _______ _______ _____ _____    ______ ____
ROOT
ATOM      1  N   UNL     1      37.242 -26.562 -11.995  0.00  0.00    -0.299 NA
ATOM      2  N   UNL     1      36.178 -24.412 -12.174  0.00  0.00    -0.106 N 
ATOM      3  N   UNL     1      35.871 -23.366 -11.362  0.00  0.00    -0.139 NA
ATOM      4  N   UNL     1      36.927 -24.994 -10.170  0.00  0.00    -0.145 NA
ATOM      5  C   UNL     1      36.998 -26.676 -13.262  0.00  0.00    +0.291 C 
ATOM      6  C   UNL     1      36.325 -25.699 -14.145  0.00  0.00    +0.105 C 
ATOM      7  C   UNL     1      35.927 -24.565 -13.546  0.00  0.00    +0.142 C 
ATOM      8  C   UNL     1      36.825 -25.398 -11.420  0.00  0.00    +0.178 C 
ATOM      9  C   UNL     1      36.342 -23.770 -10.186  0.00  0.00    +0.230 C 
ENDROOT
BRANCH   7  10
ATOM     10  N   UNL     1      35.290 -23.542 -14.189  0.00  0.00    -0.299 N 
ATOM     11  H   UNL     1      35.862 -22.797 -14.484  0.00  0.00    +0.153 HD
BRANCH  10  12
ATOM     12  C   UNL     1      33.928 -23.416 -14.482  0.00  0.00    +0.049 C 
ATOM     13  C   UNL     1      33.501 -23.215 -15.801  0.00  0.00    +0.016 C 
ATOM     14  C   UNL     1      32.973 -23.490 -13.459  0.00  0.00    +0.016 C 
ATOM     15  C   UNL     1      31.199 -23.164 -15.068  0.00  0.00    +0.122 C 
ATOM     16  C   UNL     1      32.142 -23.090 -16.093  0.00  0.00    +0.021 C 
ATOM     17  C   UNL     1      31.615 -23.364 -13.751  0.00  0.00    +0.021 C 
BRANCH  15  18
ATOM     18  S   UNL     1      29.500 -23.007 -15.432  0.00  0.00    +0.057 S 
ATOM     19  O   UNL     1      28.917 -22.052 -14.498  0.00  0.00    -0.153 OA
ATOM     20  O   UNL     1      29.350 -22.799 -16.865  0.00  0.00    -0.153 OA
BRANCH  18  21
ATOM     21  N   UNL     1      28.937 -24.572 -15.043  0.00  0.00    -0.203 NA
ATOM     22  H   UNL     1      28.027 -24.502 -14.586  0.00  0.00    +0.144 HD
ATOM     23  H   UNL     1      29.599 -25.025 -14.413  0.00  0.00    +0.144 HD
ENDBRANCH  18  21
ENDBRANCH  15  18
ENDBRANCH  10  12
ENDBRANCH   7  10
BRANCH   5  24
ATOM     24  O   UNL     1      37.374 -27.796 -13.925  0.00  0.00    -0.455 OA
BRANCH  24  25
ATOM     25  C   UNL     1      38.014 -27.487 -15.162  0.00  0.00    +0.169 C 
ATOM     26  C   UNL     1      39.531 -27.466 -14.968  0.00  0.00    +0.044 C 
ATOM     27  C   UNL     1      37.593 -28.523 -16.204  0.00  0.00    +0.044 C 
ATOM     28  C   UNL     1      40.091 -28.856 -14.662  0.00  0.00    +0.004 C 
ATOM     29  C   UNL     1      38.158 -29.910 -15.898  0.00  0.00    +0.004 C 
ATOM     30  C   UNL     1      39.673 -29.875 -15.719  0.00  0.00    +0.000 C 
ENDBRANCH  24  25
ENDBRANCH   5  24
TORSDOF 6
ENDMDL
