MODEL 1
REMARK VINA RESULT:     -11.2      0.000      0.000
REMARK  Name = 6420159
REMARK  9 active torsions:
REMARK  status: ('A' for Active; 'I' for Inactive)
REMARK    1  A    between atoms: C_1  and  N_3
REMARK    2  A    between atoms: C_1  and  C_15
REMARK    3  A    between atoms: C_1  and  C_29
REMARK    4  A    between atoms: N_14  and  C_17
REMARK    5  A    between atoms: C_17  and  C_18
REMARK    6  A    between atoms: C_18  and  N_19
REMARK    7  A    between atoms: N_19  and  C_21
REMARK    8  A    between atoms: C_26  and  O_27
REMARK    9  A    between atoms: C_29  and  C_30
REMARK                            x       y       z     vdW  Elec       q    Type
REMARK                         _______ _______ _______ _____ _____    ______ ____
ROOT
ATOM      1  C   UNL     1      33.216 -23.284 -16.865  0.00  0.00    +0.151 C 
ENDROOT
BRANCH   1   3
ATOM      2  O   UNL     1      35.740 -22.946 -14.228  0.00  0.00    -0.414 OA
ATOM      3  N   UNL     1      34.102 -22.795 -15.830  0.00  0.00    -0.271 N 
ATOM      4  N   UNL     1      35.220 -24.863 -15.320  0.00  0.00    -0.356 NA
ATOM      5  C   UNL     1      35.008 -23.595 -15.157  0.00  0.00    +0.345 C 
ATOM      6  C   UNL     1      36.531 -23.942 -13.730  0.00  0.00    +0.175 C 
ATOM      7  C   UNL     1      36.210 -25.113 -14.400  0.00  0.00    +0.152 C 
ATOM      8  C   UNL     1      37.493 -23.840 -12.733  0.00  0.00    +0.040 C 
ATOM      9  C   UNL     1      36.890 -26.293 -14.068  0.00  0.00    +0.088 C 
ATOM     10  C   UNL     1      38.163 -25.025 -12.413  0.00  0.00    -0.001 C 
ATOM     11  C   UNL     1      37.869 -26.229 -13.066  0.00  0.00    -0.018 C 
ATOM     12  H   UNL     1      34.056 -21.841 -15.591  0.00  0.00    +0.153 HD
ENDBRANCH   1   3
BRANCH   1  15
ATOM     13  O   UNL     1      33.809 -23.876 -19.138  0.00  0.00    -0.273 OA
ATOM     14  N   UNL     1      34.574 -21.865 -18.275  0.00  0.00    -0.301 N 
ATOM     15  C   UNL     1      33.881 -23.065 -18.217  0.00  0.00    +0.240 C 
ATOM     16  H   UNL     1      34.576 -21.276 -17.486  0.00  0.00    +0.150 HD
BRANCH  14  17
ATOM     17  C   UNL     1      35.293 -21.451 -19.456  0.00  0.00    +0.111 C 
BRANCH  17  18
ATOM     18  C   UNL     1      34.632 -20.270 -20.148  0.00  0.00    +0.109 C 
BRANCH  18  19
ATOM     19  N   UNL     1      35.556 -19.637 -21.059  0.00  0.00    -0.331 N 
ATOM     20  H   UNL     1      36.514 -19.848 -20.970  0.00  0.00    +0.147 HD
BRANCH  19  21
ATOM     21  C   UNL     1      35.172 -18.749 -22.052  0.00  0.00    +0.045 C 
ATOM     22  C   UNL     1      35.436 -17.372 -21.930  0.00  0.00    +0.017 C 
ATOM     23  C   UNL     1      34.507 -19.200 -23.206  0.00  0.00    +0.017 C 
ATOM     24  C   UNL     1      35.048 -16.478 -22.928  0.00  0.00    +0.038 C 
ATOM     25  C   UNL     1      34.119 -18.306 -24.205  0.00  0.00    +0.038 C 
ATOM     26  C   UNL     1      34.389 -16.946 -24.065  0.00  0.00    +0.139 C 
BRANCH  26  27
ATOM     27  O   UNL     1      34.012 -16.074 -25.040  0.00  0.00    -0.471 OA
ATOM     28  C   UNL     1      33.776 -14.723 -24.649  0.00  0.00    +0.252 C 
ENDBRANCH  26  27
ENDBRANCH  19  21
ENDBRANCH  18  19
ENDBRANCH  17  18
ENDBRANCH  14  17
ENDBRANCH   1  15
BRANCH   1  29
ATOM     29  C   UNL     1      31.877 -22.547 -16.813  0.00  0.00    +0.029 C 
BRANCH  29  30
ATOM     30  C   UNL     1      30.988 -23.030 -15.669  0.00  0.00    +0.002 C 
ATOM     31  C   UNL     1      31.361 -24.460 -15.259  0.00  0.00    +0.000 C 
ATOM     32  C   UNL     1      29.506 -22.943 -16.059  0.00  0.00    +0.000 C 
ATOM     33  C   UNL     1      30.450 -24.985 -14.151  0.00  0.00    +0.000 C 
ATOM     34  C   UNL     1      28.599 -23.471 -14.951  0.00  0.00    +0.000 C 
ATOM     35  C   UNL     1      28.979 -24.890 -14.540  0.00  0.00    +0.000 C 
ENDBRANCH  29  30
ENDBRANCH   1  29
TORSDOF 9
ENDMDL
MODEL 2
REMARK VINA RESULT:     -10.5      2.307      6.324
REMARK  Name = 6420159
REMARK  9 active torsions:
REMARK  status: ('A' for Active; 'I' for Inactive)
REMARK    1  A    between atoms: C_1  and  N_3
REMARK    2  A    between atoms: C_1  and  C_15
REMARK    3  A    between atoms: C_1  and  C_29
REMARK    4  A    between atoms: N_14  and  C_17
REMARK    5  A    between atoms: C_17  and  C_18
REMARK    6  A    between atoms: C_18  and  N_19
REMARK    7  A    between atoms: N_19  and  C_21
REMARK    8  A    between atoms: C_26  and  O_27
REMARK    9  A    between atoms: C_29  and  C_30
REMARK                            x       y       z     vdW  Elec       q    Type
REMARK                         _______ _______ _______ _____ _____    ______ ____
ROOT
ATOM      1  C   UNL     1      36.610 -25.174 -13.407  0.00  0.00    +0.151 C 
ENDROOT
BRANCH   1   3
ATOM      2  O   UNL     1      33.141 -24.176 -12.766  0.00  0.00    -0.414 OA
ATOM      3  N   UNL     1      35.325 -24.883 -12.806  0.00  0.00    -0.271 N 
ATOM      4  N   UNL     1      34.192 -24.085 -14.773  0.00  0.00    -0.356 NA
ATOM      5  C   UNL     1      34.248 -24.377 -13.511  0.00  0.00    +0.345 C 
ATOM      6  C   UNL     1      32.255 -23.687 -13.683  0.00  0.00    +0.175 C 
ATOM      7  C   UNL     1      32.902 -23.633 -14.910  0.00  0.00    +0.152 C 
ATOM      8  C   UNL     1      30.938 -23.302 -13.467  0.00  0.00    +0.040 C 
ATOM      9  C   UNL     1      32.199 -23.160 -16.027  0.00  0.00    +0.088 C 
ATOM     10  C   UNL     1      30.250 -22.834 -14.591  0.00  0.00    -0.001 C 
ATOM     11  C   UNL     1      30.866 -22.763 -15.847  0.00  0.00    -0.018 C 
ATOM     12  H   UNL     1      35.213 -25.055 -11.843  0.00  0.00    +0.153 HD
ENDBRANCH   1   3
BRANCH   1  15
ATOM     13  O   UNL     1      37.528 -22.968 -13.006  0.00  0.00    -0.273 OA
ATOM     14  N   UNL     1      37.513 -23.791 -15.173  0.00  0.00    -0.301 N 
ATOM     15  C   UNL     1      37.265 -23.860 -13.811  0.00  0.00    +0.240 C 
ATOM     16  H   UNL     1      37.269 -24.557 -15.742  0.00  0.00    +0.150 HD
BRANCH  14  17
ATOM     17  C   UNL     1      38.119 -22.633 -15.785  0.00  0.00    +0.111 C 
BRANCH  17  18
ATOM     18  C   UNL     1      37.084 -21.616 -16.242  0.00  0.00    +0.109 C 
BRANCH  18  19
ATOM     19  N   UNL     1      36.099 -22.245 -17.090  0.00  0.00    -0.331 N 
ATOM     20  H   UNL     1      35.817 -23.164 -16.872  0.00  0.00    +0.147 HD
BRANCH  19  21
ATOM     21  C   UNL     1      35.529 -21.631 -18.194  0.00  0.00    +0.045 C 
ATOM     22  C   UNL     1      34.143 -21.707 -18.426  0.00  0.00    +0.017 C 
ATOM     23  C   UNL     1      36.320 -20.917 -19.112  0.00  0.00    +0.017 C 
ATOM     24  C   UNL     1      33.569 -21.091 -19.538  0.00  0.00    +0.038 C 
ATOM     25  C   UNL     1      35.746 -20.301 -20.224  0.00  0.00    +0.038 C 
ATOM     26  C   UNL     1      34.371 -20.388 -20.437  0.00  0.00    +0.139 C 
BRANCH  26  27
ATOM     27  O   UNL     1      33.811 -19.784 -21.521  0.00  0.00    -0.471 OA
ATOM     28  C   UNL     1      34.693 -19.115 -22.421  0.00  0.00    +0.252 C 
ENDBRANCH  26  27
ENDBRANCH  19  21
ENDBRANCH  18  19
ENDBRANCH  17  18
ENDBRANCH  14  17
ENDBRANCH   1  15
BRANCH   1  29
ATOM     29  C   UNL     1      36.433 -26.071 -14.633  0.00  0.00    +0.029 C 
BRANCH  29  30
ATOM     30  C   UNL     1      37.003 -27.472 -14.420  0.00  0.00    +0.002 C 
ATOM     31  C   UNL     1      38.072 -27.460 -13.319  0.00  0.00    +0.000 C 
ATOM     32  C   UNL     1      37.574 -28.031 -15.730  0.00  0.00    +0.000 C 
ATOM     33  C   UNL     1      38.695 -28.841 -13.124  0.00  0.00    +0.000 C 
ATOM     34  C   UNL     1      38.197 -29.409 -15.530  0.00  0.00    +0.000 C 
ATOM     35  C   UNL     1      39.254 -29.396 -14.430  0.00  0.00    +0.000 C 
ENDBRANCH  29  30
ENDBRANCH   1  29
TORSDOF 9
ENDMDL
MODEL 3
REMARK VINA RESULT:     -10.5      1.477      4.992
REMARK  Name = 6420159
REMARK  9 active torsions:
REMARK  status: ('A' for Active; 'I' for Inactive)
REMARK    1  A    between atoms: C_1  and  N_3
REMARK    2  A    between atoms: C_1  and  C_15
REMARK    3  A    between atoms: C_1  and  C_29
REMARK    4  A    between atoms: N_14  and  C_17
REMARK    5  A    between atoms: C_17  and  C_18
REMARK    6  A    between atoms: C_18  and  N_19
REMARK    7  A    between atoms: N_19  and  C_21
REMARK    8  A    between atoms: C_26  and  O_27
REMARK    9  A    between atoms: C_29  and  C_30
REMARK                            x       y       z     vdW  Elec       q    Type
REMARK                         _______ _______ _______ _____ _____    ______ ____
ROOT
ATOM      1  C   UNL     1      35.707 -22.553 -15.717  0.00  0.00    +0.151 C 
ENDROOT
BRANCH   1   3
ATOM      2  O   UNL     1      32.211 -23.529 -16.236  0.00  0.00    -0.414 OA
ATOM      3  N   UNL     1      34.399 -22.832 -16.272  0.00  0.00    -0.271 N 
ATOM      4  N   UNL     1      33.337 -23.643 -14.271  0.00  0.00    -0.356 NA
ATOM      5  C   UNL     1      33.347 -23.339 -15.531  0.00  0.00    +0.345 C 
ATOM      6  C   UNL     1      31.358 -24.022 -15.290  0.00  0.00    +0.175 C 
ATOM      7  C   UNL     1      32.050 -24.090 -14.090  0.00  0.00    +0.152 C 
ATOM      8  C   UNL     1      30.032 -24.398 -15.461  0.00  0.00    +0.040 C 
ATOM      9  C   UNL     1      31.387 -24.569 -12.951  0.00  0.00    +0.088 C 
ATOM     10  C   UNL     1      29.384 -24.874 -14.316  0.00  0.00    -0.001 C 
ATOM     11  C   UNL     1      30.047 -24.959 -13.085  0.00  0.00    -0.018 C 
ATOM     12  H   UNL     1      34.251 -22.651 -17.228  0.00  0.00    +0.153 HD
ENDBRANCH   1   3
BRANCH   1  15
ATOM     13  O   UNL     1      37.564 -21.198 -16.481  0.00  0.00    -0.273 OA
ATOM     14  N   UNL     1      35.945 -21.834 -18.014  0.00  0.00    -0.301 N 
ATOM     15  C   UNL     1      36.522 -21.790 -16.753  0.00  0.00    +0.240 C 
ATOM     16  H   UNL     1      35.107 -22.334 -18.138  0.00  0.00    +0.150 HD
BRANCH  14  17
ATOM     17  C   UNL     1      36.537 -21.170 -19.151  0.00  0.00    +0.111 C 
BRANCH  17  18
ATOM     18  C   UNL     1      35.490 -20.565 -20.073  0.00  0.00    +0.109 C 
BRANCH  18  19
ATOM     19  N   UNL     1      35.772 -19.169 -20.309  0.00  0.00    -0.331 N 
ATOM     20  H   UNL     1      36.272 -18.673 -19.620  0.00  0.00    +0.147 HD
BRANCH  19  21
ATOM     21  C   UNL     1      35.380 -18.487 -21.450  0.00  0.00    +0.045 C 
ATOM     22  C   UNL     1      35.564 -17.095 -21.558  0.00  0.00    +0.017 C 
ATOM     23  C   UNL     1      34.785 -19.166 -22.529  0.00  0.00    +0.017 C 
ATOM     24  C   UNL     1      35.167 -16.408 -22.705  0.00  0.00    +0.038 C 
ATOM     25  C   UNL     1      34.389 -18.478 -23.676  0.00  0.00    +0.038 C 
ATOM     26  C   UNL     1      34.579 -17.100 -23.764  0.00  0.00    +0.139 C 
BRANCH  26  27
ATOM     27  O   UNL     1      34.194 -16.430 -24.884  0.00  0.00    -0.471 OA
ATOM     28  C   UNL     1      33.781 -15.074 -24.721  0.00  0.00    +0.252 C 
ENDBRANCH  26  27
ENDBRANCH  19  21
ENDBRANCH  18  19
ENDBRANCH  17  18
ENDBRANCH  14  17
ENDBRANCH   1  15
BRANCH   1  29
ATOM     29  C   UNL     1      36.417 -23.856 -15.347  0.00  0.00    +0.029 C 
BRANCH  29  30
ATOM     30  C   UNL     1      37.324 -23.701 -14.127  0.00  0.00    +0.002 C 
ATOM     31  C   UNL     1      37.966 -25.044 -13.755  0.00  0.00    +0.000 C 
ATOM     32  C   UNL     1      36.542 -23.123 -12.940  0.00  0.00    +0.000 C 
ATOM     33  C   UNL     1      38.836 -24.926 -12.506  0.00  0.00    +0.000 C 
ATOM     34  C   UNL     1      37.414 -23.009 -11.693  0.00  0.00    +0.000 C 
ATOM     35  C   UNL     1      38.058 -24.343 -11.331  0.00  0.00    +0.000 C 
ENDBRANCH  29  30
ENDBRANCH   1  29
TORSDOF 9
ENDMDL
MODEL 4
REMARK VINA RESULT:     -10.0      2.127      6.347
REMARK  Name = 6420159
REMARK  9 active torsions:
REMARK  status: ('A' for Active; 'I' for Inactive)
REMARK    1  A    between atoms: C_1  and  N_3
REMARK    2  A    between atoms: C_1  and  C_15
REMARK    3  A    between atoms: C_1  and  C_29
REMARK    4  A    between atoms: N_14  and  C_17
REMARK    5  A    between atoms: C_17  and  C_18
REMARK    6  A    between atoms: C_18  and  N_19
REMARK    7  A    between atoms: N_19  and  C_21
REMARK    8  A    between atoms: C_26  and  O_27
REMARK    9  A    between atoms: C_29  and  C_30
REMARK                            x       y       z     vdW  Elec       q    Type
REMARK                         _______ _______ _______ _____ _____    ______ ____
ROOT
ATOM      1  C   UNL     1      35.443 -24.055 -13.240  0.00  0.00    +0.151 C 
ENDROOT
BRANCH   1   3
ATOM      2  O   UNL     1      32.055 -25.360 -13.747  0.00  0.00    -0.414 OA
ATOM      3  N   UNL     1      34.265 -24.891 -13.336  0.00  0.00    -0.271 N 
ATOM      4  N   UNL     1      32.701 -23.208 -14.051  0.00  0.00    -0.356 NA
ATOM      5  C   UNL     1      33.022 -24.420 -13.722  0.00  0.00    +0.345 C 
ATOM      6  C   UNL     1      30.962 -24.646 -14.150  0.00  0.00    +0.175 C 
ATOM      7  C   UNL     1      31.362 -23.330 -14.335  0.00  0.00    +0.152 C 
ATOM      8  C   UNL     1      29.670 -25.115 -14.349  0.00  0.00    +0.040 C 
ATOM      9  C   UNL     1      30.413 -22.386 -14.753  0.00  0.00    +0.088 C 
ATOM     10  C   UNL     1      28.736 -24.162 -14.766  0.00  0.00    -0.001 C 
ATOM     11  C   UNL     1      29.097 -22.823 -14.965  0.00  0.00    -0.018 C 
ATOM     12  H   UNL     1      34.352 -25.846 -13.114  0.00  0.00    +0.153 HD
ENDBRANCH   1   3
BRANCH   1  15
ATOM     13  O   UNL     1      35.460 -24.269 -15.653  0.00  0.00    -0.273 OA
ATOM     14  N   UNL     1      36.966 -22.817 -14.653  0.00  0.00    -0.301 N 
ATOM     15  C   UNL     1      35.933 -23.742 -14.648  0.00  0.00    +0.240 C 
ATOM     16  H   UNL     1      37.279 -22.447 -13.797  0.00  0.00    +0.150 HD
BRANCH  14  17
ATOM     17  C   UNL     1      37.595 -22.378 -15.875  0.00  0.00    +0.111 C 
BRANCH  17  18
ATOM     18  C   UNL     1      36.741 -21.374 -16.634  0.00  0.00    +0.109 C 
BRANCH  18  19
ATOM     19  N   UNL     1      36.005 -22.033 -17.687  0.00  0.00    -0.331 N 
ATOM     20  H   UNL     1      35.930 -23.014 -17.658  0.00  0.00    +0.147 HD
BRANCH  19  21
ATOM     21  C   UNL     1      35.400 -21.362 -18.738  0.00  0.00    +0.045 C 
ATOM     22  C   UNL     1      34.002 -21.388 -18.902  0.00  0.00    +0.017 C 
ATOM     23  C   UNL     1      36.166 -20.639 -19.671  0.00  0.00    +0.017 C 
ATOM     24  C   UNL     1      33.393 -20.715 -19.961  0.00  0.00    +0.038 C 
ATOM     25  C   UNL     1      35.557 -19.966 -20.730  0.00  0.00    +0.038 C 
ATOM     26  C   UNL     1      34.170 -20.004 -20.875  0.00  0.00    +0.139 C 
BRANCH  26  27
ATOM     27  O   UNL     1      33.576 -19.346 -21.907  0.00  0.00    -0.471 OA
ATOM     28  C   UNL     1      34.413 -18.949 -22.993  0.00  0.00    +0.252 C 
ENDBRANCH  26  27
ENDBRANCH  19  21
ENDBRANCH  18  19
ENDBRANCH  17  18
ENDBRANCH  14  17
ENDBRANCH   1  15
BRANCH   1  29
ATOM     29  C   UNL     1      36.540 -24.770 -12.450  0.00  0.00    +0.029 C 
BRANCH  29  30
ATOM     30  C   UNL     1      37.529 -25.503 -13.354  0.00  0.00    +0.002 C 
ATOM     31  C   UNL     1      37.243 -27.010 -13.361  0.00  0.00    +0.000 C 
ATOM     32  C   UNL     1      38.974 -25.224 -12.916  0.00  0.00    +0.000 C 
ATOM     33  C   UNL     1      38.253 -27.771 -14.218  0.00  0.00    +0.000 C 
ATOM     34  C   UNL     1      39.980 -25.988 -13.772  0.00  0.00    +0.000 C 
ATOM     35  C   UNL     1      39.687 -27.485 -13.785  0.00  0.00    +0.000 C 
ENDBRANCH  29  30
ENDBRANCH   1  29
TORSDOF 9
ENDMDL
MODEL 5
REMARK VINA RESULT:      -9.9      1.816      2.761
REMARK  Name = 6420159
REMARK  9 active torsions:
REMARK  status: ('A' for Active; 'I' for Inactive)
REMARK    1  A    between atoms: C_1  and  N_3
REMARK    2  A    between atoms: C_1  and  C_15
REMARK    3  A    between atoms: C_1  and  C_29
REMARK    4  A    between atoms: N_14  and  C_17
REMARK    5  A    between atoms: C_17  and  C_18
REMARK    6  A    between atoms: C_18  and  N_19
REMARK    7  A    between atoms: N_19  and  C_21
REMARK    8  A    between atoms: C_26  and  O_27
REMARK    9  A    between atoms: C_29  and  C_30
REMARK                            x       y       z     vdW  Elec       q    Type
REMARK                         _______ _______ _______ _____ _____    ______ ____
ROOT
ATOM      1  C   UNL     1      34.215 -24.066 -15.220  0.00  0.00    +0.151 C 
ENDROOT
BRANCH   1   3
ATOM      2  O   UNL     1      37.049 -25.675 -13.541  0.00  0.00    -0.414 OA
ATOM      3  N   UNL     1      35.287 -24.421 -14.315  0.00  0.00    -0.271 N 
ATOM      4  N   UNL     1      36.075 -26.385 -15.461  0.00  0.00    -0.356 NA
ATOM      5  C   UNL     1      36.111 -25.518 -14.498  0.00  0.00    +0.345 C 
ATOM      6  C   UNL     1      37.705 -26.800 -13.954  0.00  0.00    +0.175 C 
ATOM      7  C   UNL     1      37.106 -27.231 -15.129  0.00  0.00    +0.152 C 
ATOM      8  C   UNL     1      38.779 -27.428 -13.337  0.00  0.00    +0.040 C 
ATOM      9  C   UNL     1      37.602 -28.381 -15.759  0.00  0.00    +0.088 C 
ATOM     10  C   UNL     1      39.262 -28.573 -13.978  0.00  0.00    -0.001 C 
ATOM     11  C   UNL     1      38.687 -29.042 -15.166  0.00  0.00    -0.018 C 
ATOM     12  H   UNL     1      35.439 -23.851 -13.527  0.00  0.00    +0.153 HD
ENDBRANCH   1   3
BRANCH   1  15
ATOM     13  O   UNL     1      34.112 -22.712 -17.226  0.00  0.00    -0.273 OA
ATOM     14  N   UNL     1      36.013 -22.600 -15.903  0.00  0.00    -0.301 N 
ATOM     15  C   UNL     1      34.746 -23.059 -16.231  0.00  0.00    +0.240 C 
ATOM     16  H   UNL     1      36.444 -22.934 -15.083  0.00  0.00    +0.150 HD
BRANCH  14  17
ATOM     17  C   UNL     1      36.720 -21.647 -16.724  0.00  0.00    +0.111 C 
BRANCH  17  18
ATOM     18  C   UNL     1      36.219 -21.641 -18.160  0.00  0.00    +0.109 C 
BRANCH  18  19
ATOM     19  N   UNL     1      36.836 -20.570 -18.905  0.00  0.00    -0.331 N 
ATOM     20  H   UNL     1      37.734 -20.271 -18.631  0.00  0.00    +0.147 HD
BRANCH  19  21
ATOM     21  C   UNL     1      36.238 -19.938 -19.984  0.00  0.00    +0.045 C 
ATOM     22  C   UNL     1      36.950 -19.003 -20.758  0.00  0.00    +0.017 C 
ATOM     23  C   UNL     1      34.903 -20.212 -20.331  0.00  0.00    +0.017 C 
ATOM     24  C   UNL     1      36.347 -18.365 -21.843  0.00  0.00    +0.038 C 
ATOM     25  C   UNL     1      34.300 -19.574 -21.416  0.00  0.00    +0.038 C 
ATOM     26  C   UNL     1      35.022 -18.651 -22.171  0.00  0.00    +0.139 C 
BRANCH  26  27
ATOM     27  O   UNL     1      34.434 -18.031 -23.230  0.00  0.00    -0.471 OA
ATOM     28  C   UNL     1      33.949 -18.861 -24.284  0.00  0.00    +0.252 C 
ENDBRANCH  26  27
ENDBRANCH  19  21
ENDBRANCH  18  19
ENDBRANCH  17  18
ENDBRANCH  14  17
ENDBRANCH   1  15
BRANCH   1  29
ATOM     29  C   UNL     1      33.042 -23.463 -14.445  0.00  0.00    +0.029 C 
BRANCH  29  30
ATOM     30  C   UNL     1      31.688 -23.907 -14.995  0.00  0.00    +0.002 C 
ATOM     31  C   UNL     1      30.915 -22.710 -15.565  0.00  0.00    +0.000 C 
ATOM     32  C   UNL     1      30.868 -24.619 -13.911  0.00  0.00    +0.000 C 
ATOM     33  C   UNL     1      29.535 -23.119 -16.074  0.00  0.00    +0.000 C 
ATOM     34  C   UNL     1      29.489 -25.025 -14.422  0.00  0.00    +0.000 C 
ATOM     35  C   UNL     1      28.728 -23.834 -14.995  0.00  0.00    +0.000 C 
ENDBRANCH  29  30
ENDBRANCH   1  29
TORSDOF 9
ENDMDL
MODEL 6
REMARK VINA RESULT:      -9.7      4.299      7.520
REMARK  Name = 6420159
REMARK  9 active torsions:
REMARK  status: ('A' for Active; 'I' for Inactive)
REMARK    1  A    between atoms: C_1  and  N_3
REMARK    2  A    between atoms: C_1  and  C_15
REMARK    3  A    between atoms: C_1  and  C_29
REMARK    4  A    between atoms: N_14  and  C_17
REMARK    5  A    between atoms: C_17  and  C_18
REMARK    6  A    between atoms: C_18  and  N_19
REMARK    7  A    between atoms: N_19  and  C_21
REMARK    8  A    between atoms: C_26  and  O_27
REMARK    9  A    between atoms: C_29  and  C_30
REMARK                            x       y       z     vdW  Elec       q    Type
REMARK                         _______ _______ _______ _____ _____    ______ ____
ROOT
ATOM      1  C   UNL     1      34.658 -23.733 -14.458  0.00  0.00    +0.151 C 
ENDROOT
BRANCH   1   3
ATOM      2  O   UNL     1      36.580 -26.803 -15.027  0.00  0.00    -0.414 OA
ATOM      3  N   UNL     1      35.084 -25.077 -14.789  0.00  0.00    -0.271 N 
ATOM      4  N   UNL     1      37.419 -24.842 -14.258  0.00  0.00    -0.356 NA
ATOM      5  C   UNL     1      36.390 -25.516 -14.667  0.00  0.00    +0.345 C 
ATOM      6  C   UNL     1      37.918 -26.973 -14.816  0.00  0.00    +0.175 C 
ATOM      7  C   UNL     1      38.428 -25.771 -14.346  0.00  0.00    +0.152 C 
ATOM      8  C   UNL     1      38.669 -28.123 -15.023  0.00  0.00    +0.040 C 
ATOM      9  C   UNL     1      39.796 -25.685 -14.050  0.00  0.00    +0.088 C 
ATOM     10  C   UNL     1      40.031 -28.021 -14.723  0.00  0.00    -0.001 C 
ATOM     11  C   UNL     1      40.586 -26.827 -14.246  0.00  0.00    -0.018 C 
ATOM     12  H   UNL     1      34.408 -25.711 -15.117  0.00  0.00    +0.153 HD
ENDBRANCH   1   3
BRANCH   1  15
ATOM     13  O   UNL     1      34.340 -24.248 -12.113  0.00  0.00    -0.273 OA
ATOM     14  N   UNL     1      32.604 -23.246 -13.278  0.00  0.00    -0.301 N 
ATOM     15  C   UNL     1      33.878 -23.778 -13.151  0.00  0.00    +0.240 C 
ATOM     16  H   UNL     1      32.320 -22.891 -14.151  0.00  0.00    +0.150 HD
BRANCH  14  17
ATOM     17  C   UNL     1      31.680 -23.194 -12.171  0.00  0.00    +0.111 C 
BRANCH  17  18
ATOM     18  C   UNL     1      30.437 -24.034 -12.418  0.00  0.00    +0.109 C 
BRANCH  18  19
ATOM     19  N   UNL     1      30.389 -24.470 -13.794  0.00  0.00    -0.331 N 
ATOM     20  H   UNL     1      31.025 -25.165 -14.083  0.00  0.00    +0.147 HD
BRANCH  19  21
ATOM     21  C   UNL     1      29.500 -23.967 -14.731  0.00  0.00    +0.045 C 
ATOM     22  C   UNL     1      29.105 -22.617 -14.699  0.00  0.00    +0.017 C 
ATOM     23  C   UNL     1      28.968 -24.794 -15.737  0.00  0.00    +0.017 C 
ATOM     24  C   UNL     1      28.209 -22.111 -15.641  0.00  0.00    +0.038 C 
ATOM     25  C   UNL     1      28.072 -24.288 -16.679  0.00  0.00    +0.038 C 
ATOM     26  C   UNL     1      27.693 -22.947 -16.631  0.00  0.00    +0.139 C 
BRANCH  26  27
ATOM     27  O   UNL     1      26.820 -22.453 -17.551  0.00  0.00    -0.471 OA
ATOM     28  C   UNL     1      25.999 -21.358 -17.147  0.00  0.00    +0.252 C 
ENDBRANCH  26  27
ENDBRANCH  19  21
ENDBRANCH  18  19
ENDBRANCH  17  18
ENDBRANCH  14  17
ENDBRANCH   1  15
BRANCH   1  29
ATOM     29  C   UNL     1      33.779 -23.164 -15.574  0.00  0.00    +0.029 C 
BRANCH  29  30
ATOM     30  C   UNL     1      34.554 -22.939 -16.871  0.00  0.00    +0.002 C 
ATOM     31  C   UNL     1      35.759 -22.020 -16.630  0.00  0.00    +0.000 C 
ATOM     32  C   UNL     1      33.637 -22.363 -17.958  0.00  0.00    +0.000 C 
ATOM     33  C   UNL     1      36.520 -21.737 -17.924  0.00  0.00    +0.000 C 
ATOM     34  C   UNL     1      34.401 -22.079 -19.248  0.00  0.00    +0.000 C 
ATOM     35  C   UNL     1      35.603 -21.172 -19.004  0.00  0.00    +0.000 C 
ENDBRANCH  29  30
ENDBRANCH   1  29
TORSDOF 9
ENDMDL
MODEL 7
REMARK VINA RESULT:      -9.7      3.478      7.335
REMARK  Name = 6420159
REMARK  9 active torsions:
REMARK  status: ('A' for Active; 'I' for Inactive)
REMARK    1  A    between atoms: C_1  and  N_3
REMARK    2  A    between atoms: C_1  and  C_15
REMARK    3  A    between atoms: C_1  and  C_29
REMARK    4  A    between atoms: N_14  and  C_17
REMARK    5  A    between atoms: C_17  and  C_18
REMARK    6  A    between atoms: C_18  and  N_19
REMARK    7  A    between atoms: N_19  and  C_21
REMARK    8  A    between atoms: C_26  and  O_27
REMARK    9  A    between atoms: C_29  and  C_30
REMARK                            x       y       z     vdW  Elec       q    Type
REMARK                         _______ _______ _______ _____ _____    ______ ____
ROOT
ATOM      1  C   UNL     1      34.966 -22.345 -15.903  0.00  0.00    +0.151 C 
ENDROOT
BRANCH   1   3
ATOM      2  O   UNL     1      37.985 -23.807 -14.423  0.00  0.00    -0.414 OA
ATOM      3  N   UNL     1      36.262 -22.565 -15.297  0.00  0.00    -0.271 N 
ATOM      4  N   UNL     1      36.182 -24.966 -15.163  0.00  0.00    -0.356 NA
ATOM      5  C   UNL     1      36.757 -23.818 -14.983  0.00  0.00    +0.345 C 
ATOM      6  C   UNL     1      38.227 -25.136 -14.220  0.00  0.00    +0.175 C 
ATOM      7  C   UNL     1      37.122 -25.842 -14.674  0.00  0.00    +0.152 C 
ATOM      8  C   UNL     1      39.360 -25.714 -13.662  0.00  0.00    +0.040 C 
ATOM      9  C   UNL     1      37.123 -27.240 -14.575  0.00  0.00    +0.088 C 
ATOM     10  C   UNL     1      39.346 -27.110 -13.571  0.00  0.00    -0.001 C 
ATOM     11  C   UNL     1      38.251 -27.860 -14.018  0.00  0.00    -0.018 C 
ATOM     12  H   UNL     1      36.821 -21.780 -15.096  0.00  0.00    +0.153 HD
ENDBRANCH   1   3
BRANCH   1  15
ATOM     13  O   UNL     1      33.119 -23.911 -15.808  0.00  0.00    -0.273 OA
ATOM     14  N   UNL     1      34.051 -23.166 -13.820  0.00  0.00    -0.301 N 
ATOM     15  C   UNL     1      33.945 -23.231 -15.201  0.00  0.00    +0.240 C 
ATOM     16  H   UNL     1      34.745 -22.593 -13.421  0.00  0.00    +0.150 HD
BRANCH  14  17
ATOM     17  C   UNL     1      33.178 -23.914 -12.948  0.00  0.00    +0.111 C 
BRANCH  17  18
ATOM     18  C   UNL     1      31.769 -23.342 -12.916  0.00  0.00    +0.109 C 
BRANCH  18  19
ATOM     19  N   UNL     1      30.832 -24.278 -13.488  0.00  0.00    -0.331 N 
ATOM     20  H   UNL     1      30.853 -25.210 -13.170  0.00  0.00    +0.147 HD
BRANCH  19  21
ATOM     21  C   UNL     1      29.904 -23.942 -14.461  0.00  0.00    +0.045 C 
ATOM     22  C   UNL     1      29.496 -22.606 -14.639  0.00  0.00    +0.017 C 
ATOM     23  C   UNL     1      29.342 -24.926 -15.295  0.00  0.00    +0.017 C 
ATOM     24  C   UNL     1      28.561 -22.267 -15.617  0.00  0.00    +0.038 C 
ATOM     25  C   UNL     1      28.407 -24.587 -16.273  0.00  0.00    +0.038 C 
ATOM     26  C   UNL     1      28.016 -23.258 -16.433  0.00  0.00    +0.139 C 
BRANCH  26  27
ATOM     27  O   UNL     1      27.105 -22.928 -17.388  0.00  0.00    -0.471 OA
ATOM     28  C   UNL     1      26.371 -21.719 -17.197  0.00  0.00    +0.252 C 
ENDBRANCH  26  27
ENDBRANCH  19  21
ENDBRANCH  18  19
ENDBRANCH  17  18
ENDBRANCH  14  17
ENDBRANCH   1  15
BRANCH   1  29
ATOM     29  C   UNL     1      35.012 -22.679 -17.395  0.00  0.00    +0.029 C 
BRANCH  29  30
ATOM     30  C   UNL     1      34.668 -21.479 -18.274  0.00  0.00    +0.002 C 
ATOM     31  C   UNL     1      33.307 -21.677 -18.954  0.00  0.00    +0.000 C 
ATOM     32  C   UNL     1      35.768 -21.235 -19.316  0.00  0.00    +0.000 C 
ATOM     33  C   UNL     1      32.964 -20.512 -19.880  0.00  0.00    +0.000 C 
ATOM     34  C   UNL     1      35.422 -20.072 -20.241  0.00  0.00    +0.000 C 
ATOM     35  C   UNL     1      34.064 -20.269 -20.908  0.00  0.00    +0.000 C 
ENDBRANCH  29  30
ENDBRANCH   1  29
TORSDOF 9
ENDMDL
MODEL 8
REMARK VINA RESULT:      -9.4      3.333      8.961
REMARK  Name = 6420159
REMARK  9 active torsions:
REMARK  status: ('A' for Active; 'I' for Inactive)
REMARK    1  A    between atoms: C_1  and  N_3
REMARK    2  A    between atoms: C_1  and  C_15
REMARK    3  A    between atoms: C_1  and  C_29
REMARK    4  A    between atoms: N_14  and  C_17
REMARK    5  A    between atoms: C_17  and  C_18
REMARK    6  A    between atoms: C_18  and  N_19
REMARK    7  A    between atoms: N_19  and  C_21
REMARK    8  A    between atoms: C_26  and  O_27
REMARK    9  A    between atoms: C_29  and  C_30
REMARK                            x       y       z     vdW  Elec       q    Type
REMARK                         _______ _______ _______ _____ _____    ______ ____
ROOT
ATOM      1  C   UNL     1      32.454 -23.686 -14.612  0.00  0.00    +0.151 C 
ENDROOT
BRANCH   1   3
ATOM      2  O   UNL     1      34.814 -22.758 -17.259  0.00  0.00    -0.414 OA
ATOM      3  N   UNL     1      33.624 -23.517 -15.448  0.00  0.00    -0.271 N 
ATOM      4  N   UNL     1      32.627 -22.169 -17.174  0.00  0.00    -0.356 NA
ATOM      5  C   UNL     1      33.622 -22.795 -16.628  0.00  0.00    +0.345 C 
ATOM      6  C   UNL     1      34.539 -22.002 -18.363  0.00  0.00    +0.175 C 
ATOM      7  C   UNL     1      33.200 -21.643 -18.307  0.00  0.00    +0.152 C 
ATOM      8  C   UNL     1      35.414 -21.637 -19.378  0.00  0.00    +0.040 C 
ATOM      9  C   UNL     1      32.666 -20.856 -19.336  0.00  0.00    +0.088 C 
ATOM     10  C   UNL     1      34.866 -20.852 -20.397  0.00  0.00    -0.001 C 
ATOM     11  C   UNL     1      33.519 -20.468 -20.379  0.00  0.00    -0.018 C 
ATOM     12  H   UNL     1      34.465 -23.940 -15.162  0.00  0.00    +0.153 HD
ENDBRANCH   1   3
BRANCH   1  15
ATOM     13  O   UNL     1      32.146 -24.791 -12.478  0.00  0.00    -0.273 OA
ATOM     14  N   UNL     1      34.234 -23.924 -12.992  0.00  0.00    -0.301 N 
ATOM     15  C   UNL     1      32.901 -24.204 -13.251  0.00  0.00    +0.240 C 
ATOM     16  H   UNL     1      34.763 -23.449 -13.673  0.00  0.00    +0.150 HD
BRANCH  14  17
ATOM     17  C   UNL     1      34.873 -24.310 -11.757  0.00  0.00    +0.111 C 
BRANCH  17  18
ATOM     18  C   UNL     1      36.354 -23.967 -11.743  0.00  0.00    +0.109 C 
BRANCH  18  19
ATOM     19  N   UNL     1      37.142 -25.145 -11.466  0.00  0.00    -0.331 N 
ATOM     20  H   UNL     1      37.010 -25.599 -10.601  0.00  0.00    +0.147 HD
BRANCH  19  21
ATOM     21  C   UNL     1      38.073 -25.673 -12.346  0.00  0.00    +0.045 C 
ATOM     22  C   UNL     1      37.905 -26.961 -12.887  0.00  0.00    +0.017 C 
ATOM     23  C   UNL     1      39.211 -24.937 -12.720  0.00  0.00    +0.017 C 
ATOM     24  C   UNL     1      38.843 -27.494 -13.772  0.00  0.00    +0.038 C 
ATOM     25  C   UNL     1      40.149 -25.469 -13.605  0.00  0.00    +0.038 C 
ATOM     26  C   UNL     1      39.965 -26.747 -14.131  0.00  0.00    +0.139 C 
BRANCH  26  27
ATOM     27  O   UNL     1      40.880 -27.266 -14.995  0.00  0.00    -0.471 OA
ATOM     28  C   UNL     1      40.385 -28.095 -16.045  0.00  0.00    +0.252 C 
ENDBRANCH  26  27
ENDBRANCH  19  21
ENDBRANCH  18  19
ENDBRANCH  17  18
ENDBRANCH  14  17
ENDBRANCH   1  15
BRANCH   1  29
ATOM     29  C   UNL     1      31.478 -24.674 -15.254  0.00  0.00    +0.029 C 
BRANCH  29  30
ATOM     30  C   UNL     1      30.026 -24.215 -15.144  0.00  0.00    +0.002 C 
ATOM     31  C   UNL     1      29.296 -24.401 -16.481  0.00  0.00    +0.000 C 
ATOM     32  C   UNL     1      29.952 -22.754 -14.681  0.00  0.00    +0.000 C 
ATOM     33  C   UNL     1      27.855 -23.900 -16.412  0.00  0.00    +0.000 C 
ATOM     34  C   UNL     1      28.511 -22.256 -14.615  0.00  0.00    +0.000 C 
ATOM     35  C   UNL     1      27.786 -22.450 -15.943  0.00  0.00    +0.000 C 
ENDBRANCH  29  30
ENDBRANCH   1  29
TORSDOF 9
ENDMDL
MODEL 9
REMARK VINA RESULT:      -9.4      9.479     15.719
REMARK  Name = 6420159
REMARK  9 active torsions:
REMARK  status: ('A' for Active; 'I' for Inactive)
REMARK    1  A    between atoms: C_1  and  N_3
REMARK    2  A    between atoms: C_1  and  C_15
REMARK    3  A    between atoms: C_1  and  C_29
REMARK    4  A    between atoms: N_14  and  C_17
REMARK    5  A    between atoms: C_17  and  C_18
REMARK    6  A    between atoms: C_18  and  N_19
REMARK    7  A    between atoms: N_19  and  C_21
REMARK    8  A    between atoms: C_26  and  O_27
REMARK    9  A    between atoms: C_29  and  C_30
REMARK                            x       y       z     vdW  Elec       q    Type
REMARK                         _______ _______ _______ _____ _____    ______ ____
ROOT
ATOM      1  C   UNL     1      32.596  -6.777 -21.186  0.00  0.00    +0.151 C 
ENDROOT
BRANCH   1   3
ATOM      2  O   UNL     1      35.054  -8.152 -23.533  0.00  0.00    -0.414 OA
ATOM      3  N   UNL     1      33.776  -7.041 -21.981  0.00  0.00    -0.271 N 
ATOM      4  N   UNL     1      32.961  -8.954 -23.191  0.00  0.00    -0.356 NA
ATOM      5  C   UNL     1      33.867  -8.076 -22.894  0.00  0.00    +0.345 C 
ATOM      6  C   UNL     1      34.878  -9.230 -24.353  0.00  0.00    +0.175 C 
ATOM      7  C   UNL     1      33.596  -9.718 -24.141  0.00  0.00    +0.152 C 
ATOM      8  C   UNL     1      35.791  -9.769 -25.249  0.00  0.00    +0.040 C 
ATOM      9  C   UNL     1      33.167 -10.835 -24.871  0.00  0.00    +0.088 C 
ATOM     10  C   UNL     1      35.348 -10.883 -25.970  0.00  0.00    -0.001 C 
ATOM     11  C   UNL     1      34.062 -11.407 -25.786  0.00  0.00    -0.018 C 
ATOM     12  H   UNL     1      34.557  -6.453 -21.865  0.00  0.00    +0.153 HD
ENDBRANCH   1   3
BRANCH   1  15
ATOM     13  O   UNL     1      32.970  -7.799 -19.022  0.00  0.00    -0.273 OA
ATOM     14  N   UNL     1      31.715  -8.950 -20.595  0.00  0.00    -0.301 N 
ATOM     15  C   UNL     1      32.460  -7.873 -20.138  0.00  0.00    +0.240 C 
ATOM     16  H   UNL     1      31.344  -8.921 -21.507  0.00  0.00    +0.150 HD
BRANCH  14  17
ATOM     17  C   UNL     1      31.465 -10.112 -19.777  0.00  0.00    +0.111 C 
BRANCH  17  18
ATOM     18  C   UNL     1      31.328 -11.380 -20.605  0.00  0.00    +0.109 C 
BRANCH  18  19
ATOM     19  N   UNL     1      32.214 -12.405 -20.106  0.00  0.00    -0.331 N 
ATOM     20  H   UNL     1      32.299 -12.512 -19.131  0.00  0.00    +0.147 HD
BRANCH  19  21
ATOM     21  C   UNL     1      32.953 -13.247 -20.922  0.00  0.00    +0.045 C 
ATOM     22  C   UNL     1      32.835 -13.182 -22.323  0.00  0.00    +0.017 C 
ATOM     23  C   UNL     1      33.840 -14.191 -20.372  0.00  0.00    +0.017 C 
ATOM     24  C   UNL     1      33.578 -14.030 -23.145  0.00  0.00    +0.038 C 
ATOM     25  C   UNL     1      34.582 -15.040 -21.194  0.00  0.00    +0.038 C 
ATOM     26  C   UNL     1      34.451 -14.959 -22.580  0.00  0.00    +0.139 C 
BRANCH  26  27
ATOM     27  O   UNL     1      35.177 -15.786 -23.380  0.00  0.00    -0.471 OA
ATOM     28  C   UNL     1      35.422 -17.107 -22.900  0.00  0.00    +0.252 C 
ENDBRANCH  26  27
ENDBRANCH  19  21
ENDBRANCH  18  19
ENDBRANCH  17  18
ENDBRANCH  14  17
ENDBRANCH   1  15
BRANCH   1  29
ATOM     29  C   UNL     1      31.352  -6.743 -22.075  0.00  0.00    +0.029 C 
BRANCH  29  30
ATOM     30  C   UNL     1      31.157  -5.391 -22.758  0.00  0.00    +0.002 C 
ATOM     31  C   UNL     1      31.680  -5.431 -24.200  0.00  0.00    +0.000 C 
ATOM     32  C   UNL     1      31.845  -4.276 -21.959  0.00  0.00    +0.000 C 
ATOM     33  C   UNL     1      31.544  -4.074 -24.887  0.00  0.00    +0.000 C 
ATOM     34  C   UNL     1      31.710  -2.922 -22.650  0.00  0.00    +0.000 C 
ATOM     35  C   UNL     1      32.222  -2.968 -24.086  0.00  0.00    +0.000 C 
ENDBRANCH  29  30
ENDBRANCH   1  29
TORSDOF 9
ENDMDL
