MODEL 1
REMARK VINA RESULT:     -10.8      0.000      0.000
REMARK  Name = 24995524
REMARK  4 active torsions:
REMARK  status: ('A' for Active; 'I' for Inactive)
REMARK    1  A    between atoms: N_5  and  C_13
REMARK    2  A    between atoms: C_6  and  C_19
REMARK    3  A    between atoms: C_19  and  C_20
REMARK    4  A    between atoms: C_20  and  N_22
REMARK                            x       y       z     vdW  Elec       q    Type
REMARK                         _______ _______ _______ _____ _____    ______ ____
ROOT
ATOM      1  S   UNL     1      34.960 -16.094 -22.317  0.00  0.00    -0.056 S 
ATOM      2  O   UNL     1      33.488 -12.412 -24.781  0.00  0.00    -0.252 OA
ATOM      3  N   UNL     1      33.897 -15.376 -24.561  0.00  0.00    -0.223 NA
ATOM      4  N   UNL     1      34.404 -13.623 -22.988  0.00  0.00    -0.248 N 
ATOM      5  N   UNL     1      34.217 -11.299 -22.857  0.00  0.00    -0.268 N 
ATOM      6  C   UNL     1      34.588 -17.320 -23.457  0.00  0.00    +0.031 C 
ATOM      7  C   UNL     1      34.033 -16.751 -24.584  0.00  0.00    +0.103 C 
ATOM      8  C   UNL     1      34.353 -14.923 -23.414  0.00  0.00    +0.166 C 
ATOM      9  C   UNL     1      33.983 -12.428 -23.659  0.00  0.00    +0.310 C 
ATOM     10  H   UNL     1      34.784 -13.489 -22.090  0.00  0.00    +0.158 HD
ATOM     11  H   UNL     1      34.623 -11.471 -21.977  0.00  0.00    +0.156 HD
ENDROOT
BRANCH   5  13
ATOM     12 CL   UNL     1      30.855  -7.418 -22.860  0.00  0.00    -0.082 Cl
ATOM     13  C   UNL     1      33.942  -9.945 -23.160  0.00  0.00    +0.052 C 
ATOM     14  C   UNL     1      32.681  -9.412 -22.891  0.00  0.00    +0.026 C 
ATOM     15  C   UNL     1      34.932  -9.142 -23.728  0.00  0.00    +0.015 C 
ATOM     16  C   UNL     1      32.411  -8.076 -23.191  0.00  0.00    +0.059 C 
ATOM     17  C   UNL     1      34.661  -7.808 -24.028  0.00  0.00    +0.002 C 
ATOM     18  C   UNL     1      33.401  -7.275 -23.759  0.00  0.00    +0.011 C 
ENDBRANCH   5  13
BRANCH   6  19
ATOM     19  C   UNL     1      34.878 -18.769 -23.150  0.00  0.00    +0.056 C 
BRANCH  19  20
ATOM     20  C   UNL     1      35.532 -18.972 -21.784  0.00  0.00    +0.093 C 
BRANCH  20  22
ATOM     21  S   UNL     1      32.610 -21.378 -19.099  0.00  0.00    -0.101 S 
ATOM     22  N   UNL     1      34.685 -19.736 -20.918  0.00  0.00    -0.320 N 
ATOM     23  N   UNL     1      36.500 -20.523 -19.597  0.00  0.00    -0.233 NA
ATOM     24  N   UNL     1      36.184 -22.004 -17.709  0.00  0.00    -0.247 NA
ATOM     25  C   UNL     1      35.175 -20.498 -19.842  0.00  0.00    +0.118 C 
ATOM     26  C   UNL     1      34.318 -21.226 -19.025  0.00  0.00    +0.145 C 
ATOM     27  C   UNL     1      34.849 -21.968 -17.970  0.00  0.00    +0.073 C 
ATOM     28  C   UNL     1      33.834 -22.652 -17.236  0.00  0.00    +0.022 C 
ATOM     29  C   UNL     1      32.576 -22.418 -17.743  0.00  0.00    +0.033 C 
ATOM     30  C   UNL     1      36.919 -21.267 -18.557  0.00  0.00    +0.251 C 
ATOM     31  H   UNL     1      33.714 -19.728 -21.085  0.00  0.00    +0.148 HD
ENDBRANCH  20  22
ENDBRANCH  19  20
ENDBRANCH   6  19
TORSDOF 4
ENDMDL
MODEL 2
REMARK VINA RESULT:     -10.6      5.364     11.854
REMARK  Name = 24995524
REMARK  4 active torsions:
REMARK  status: ('A' for Active; 'I' for Inactive)
REMARK    1  A    between atoms: N_5  and  C_13
REMARK    2  A    between atoms: C_6  and  C_19
REMARK    3  A    between atoms: C_19  and  C_20
REMARK    4  A    between atoms: C_20  and  N_22
REMARK                            x       y       z     vdW  Elec       q    Type
REMARK                         _______ _______ _______ _____ _____    ______ ____
ROOT
ATOM      1  S   UNL     1      33.245 -20.108 -20.396  0.00  0.00    -0.056 S 
ATOM      2  O   UNL     1      33.352 -23.097 -16.810  0.00  0.00    -0.252 OA
ATOM      3  N   UNL     1      34.810 -21.550 -18.928  0.00  0.00    -0.223 NA
ATOM      4  N   UNL     1      32.457 -21.636 -18.417  0.00  0.00    -0.248 N 
ATOM      5  N   UNL     1      31.048 -22.701 -16.890  0.00  0.00    -0.268 N 
ATOM      6  C   UNL     1      34.926 -20.068 -20.735  0.00  0.00    +0.031 C 
ATOM      7  C   UNL     1      35.595 -20.894 -19.856  0.00  0.00    +0.103 C 
ATOM      8  C   UNL     1      33.554 -21.211 -19.118  0.00  0.00    +0.166 C 
ATOM      9  C   UNL     1      32.379 -22.542 -17.310  0.00  0.00    +0.310 C 
ATOM     10  H   UNL     1      31.597 -21.262 -18.717  0.00  0.00    +0.158 HD
ATOM     11  H   UNL     1      30.373 -22.188 -17.391  0.00  0.00    +0.156 HD
ENDROOT
BRANCH   5  13
ATOM     12 CL   UNL     1      31.948 -25.080 -12.429  0.00  0.00    -0.082 Cl
ATOM     13  C   UNL     1      30.559 -23.506 -15.835  0.00  0.00    +0.052 C 
ATOM     14  C   UNL     1      31.397 -23.854 -14.776  0.00  0.00    +0.026 C 
ATOM     15  C   UNL     1      29.237 -23.953 -15.854  0.00  0.00    +0.015 C 
ATOM     16  C   UNL     1      30.913 -24.650 -13.737  0.00  0.00    +0.059 C 
ATOM     17  C   UNL     1      28.754 -24.748 -14.815  0.00  0.00    +0.002 C 
ATOM     18  C   UNL     1      29.592 -25.095 -13.756  0.00  0.00    +0.011 C 
ENDBRANCH   5  13
BRANCH   6  19
ATOM     19  C   UNL     1      35.463 -19.216 -21.859  0.00  0.00    +0.056 C 
BRANCH  19  20
ATOM     20  C   UNL     1      36.363 -18.081 -21.373  0.00  0.00    +0.093 C 
BRANCH  20  22
ATOM     21  S   UNL     1      34.106 -14.035 -21.089  0.00  0.00    -0.101 S 
ATOM     22  N   UNL     1      35.653 -16.837 -21.352  0.00  0.00    -0.320 N 
ATOM     23  N   UNL     1      35.156 -16.917 -23.678  0.00  0.00    -0.233 NA
ATOM     24  N   UNL     1      33.898 -15.178 -24.796  0.00  0.00    -0.247 NA
ATOM     25  C   UNL     1      35.062 -16.273 -22.498  0.00  0.00    +0.118 C 
ATOM     26  C   UNL     1      34.381 -15.063 -22.436  0.00  0.00    +0.145 C 
ATOM     27  C   UNL     1      33.812 -14.541 -23.597  0.00  0.00    +0.073 C 
ATOM     28  C   UNL     1      33.154 -13.297 -23.356  0.00  0.00    +0.022 C 
ATOM     29  C   UNL     1      33.239 -12.910 -22.038  0.00  0.00    +0.033 C 
ATOM     30  C   UNL     1      34.575 -16.337 -24.744  0.00  0.00    +0.251 C 
ATOM     31  H   UNL     1      35.576 -16.354 -20.498  0.00  0.00    +0.148 HD
ENDBRANCH  20  22
ENDBRANCH  19  20
ENDBRANCH   6  19
TORSDOF 4
ENDMDL
MODEL 3
REMARK VINA RESULT:     -10.6      1.384      1.778
REMARK  Name = 24995524
REMARK  4 active torsions:
REMARK  status: ('A' for Active; 'I' for Inactive)
REMARK    1  A    between atoms: N_5  and  C_13
REMARK    2  A    between atoms: C_6  and  C_19
REMARK    3  A    between atoms: C_19  and  C_20
REMARK    4  A    between atoms: C_20  and  N_22
REMARK                            x       y       z     vdW  Elec       q    Type
REMARK                         _______ _______ _______ _____ _____    ______ ____
ROOT
ATOM      1  S   UNL     1      34.551 -14.532 -22.806  0.00  0.00    -0.056 S 
ATOM      2  O   UNL     1      33.182 -10.529 -24.780  0.00  0.00    -0.252 OA
ATOM      3  N   UNL     1      33.514 -13.507 -24.940  0.00  0.00    -0.223 NA
ATOM      4  N   UNL     1      34.060 -11.982 -23.157  0.00  0.00    -0.248 N 
ATOM      5  N   UNL     1      33.933  -9.689 -22.730  0.00  0.00    -0.268 N 
ATOM      6  C   UNL     1      34.151 -15.593 -24.094  0.00  0.00    +0.031 C 
ATOM      7  C   UNL     1      33.614 -14.870 -25.139  0.00  0.00    +0.103 C 
ATOM      8  C   UNL     1      33.977 -13.215 -23.745  0.00  0.00    +0.166 C 
ATOM      9  C   UNL     1      33.672 -10.701 -23.669  0.00  0.00    +0.310 C 
ATOM     10  H   UNL     1      34.441 -11.974 -22.249  0.00  0.00    +0.158 HD
ATOM     11  H   UNL     1      34.331  -9.983 -21.879  0.00  0.00    +0.156 HD
ENDROOT
BRANCH   5  13
ATOM     12 CL   UNL     1      30.784  -5.709 -21.951  0.00  0.00    -0.082 Cl
ATOM     13  C   UNL     1      33.693  -8.301 -22.858  0.00  0.00    +0.052 C 
ATOM     14  C   UNL     1      32.497  -7.754 -22.394  0.00  0.00    +0.026 C 
ATOM     15  C   UNL     1      34.655  -7.479 -23.447  0.00  0.00    +0.015 C 
ATOM     16  C   UNL     1      32.262  -6.385 -22.522  0.00  0.00    +0.059 C 
ATOM     17  C   UNL     1      34.419  -6.111 -23.574  0.00  0.00    +0.002 C 
ATOM     18  C   UNL     1      33.223  -5.564 -23.111  0.00  0.00    +0.011 C 
ENDBRANCH   5  13
BRANCH   6  19
ATOM     19  C   UNL     1      34.403 -17.076 -23.974  0.00  0.00    +0.056 C 
BRANCH  19  20
ATOM     20  C   UNL     1      35.234 -17.445 -22.746  0.00  0.00    +0.093 C 
BRANCH  20  22
ATOM     21  S   UNL     1      32.820 -20.488 -20.206  0.00  0.00    -0.101 S 
ATOM     22  N   UNL     1      34.548 -18.403 -21.932  0.00  0.00    -0.320 N 
ATOM     23  N   UNL     1      36.537 -19.108 -20.833  0.00  0.00    -0.233 NA
ATOM     24  N   UNL     1      36.537 -20.826 -19.128  0.00  0.00    -0.247 NA
ATOM     25  C   UNL     1      35.203 -19.218 -20.990  0.00  0.00    +0.118 C 
ATOM     26  C   UNL     1      34.500 -20.136 -20.219  0.00  0.00    +0.145 C 
ATOM     27  C   UNL     1      35.191 -20.924 -19.299  0.00  0.00    +0.073 C 
ATOM     28  C   UNL     1      34.320 -21.809 -18.595  0.00  0.00    +0.022 C 
ATOM     29  C   UNL     1      33.009 -21.674 -18.991  0.00  0.00    +0.033 C 
ATOM     30  C   UNL     1      37.117 -19.910 -19.921  0.00  0.00    +0.251 C 
ATOM     31  H   UNL     1      33.573 -18.495 -22.036  0.00  0.00    +0.148 HD
ENDBRANCH  20  22
ENDBRANCH  19  20
ENDBRANCH   6  19
TORSDOF 4
ENDMDL
MODEL 4
REMARK VINA RESULT:     -10.5      5.273     11.855
REMARK  Name = 24995524
REMARK  4 active torsions:
REMARK  status: ('A' for Active; 'I' for Inactive)
REMARK    1  A    between atoms: N_5  and  C_13
REMARK    2  A    between atoms: C_6  and  C_19
REMARK    3  A    between atoms: C_19  and  C_20
REMARK    4  A    between atoms: C_20  and  N_22
REMARK                            x       y       z     vdW  Elec       q    Type
REMARK                         _______ _______ _______ _____ _____    ______ ____
ROOT
ATOM      1  S   UNL     1      33.195 -20.188 -20.556  0.00  0.00    -0.056 S 
ATOM      2  O   UNL     1      34.159 -22.848 -16.842  0.00  0.00    -0.252 OA
ATOM      3  N   UNL     1      35.114 -21.304 -19.232  0.00  0.00    -0.223 NA
ATOM      4  N   UNL     1      32.879 -21.640 -18.398  0.00  0.00    -0.248 N 
ATOM      5  N   UNL     1      31.832 -22.748 -16.628  0.00  0.00    -0.268 N 
ATOM      6  C   UNL     1      34.798 -19.967 -21.125  0.00  0.00    +0.031 C 
ATOM      7  C   UNL     1      35.679 -20.631 -20.297  0.00  0.00    +0.103 C 
ATOM      8  C   UNL     1      33.810 -21.140 -19.267  0.00  0.00    +0.166 C 
ATOM      9  C   UNL     1      33.065 -22.459 -17.237  0.00  0.00    +0.310 C 
ATOM     10  H   UNL     1      31.945 -21.401 -18.599  0.00  0.00    +0.158 HD
ATOM     11  H   UNL     1      31.036 -22.364 -17.062  0.00  0.00    +0.156 HD
ENDROOT
BRANCH   5  13
ATOM     12 CL   UNL     1      28.659 -25.800 -13.986  0.00  0.00    -0.082 Cl
ATOM     13  C   UNL     1      31.594 -23.521 -15.468  0.00  0.00    +0.052 C 
ATOM     14  C   UNL     1      30.385 -24.200 -15.318  0.00  0.00    +0.026 C 
ATOM     15  C   UNL     1      32.570 -23.605 -14.474  0.00  0.00    +0.015 C 
ATOM     16  C   UNL     1      30.152 -24.962 -14.172  0.00  0.00    +0.059 C 
ATOM     17  C   UNL     1      32.337 -24.367 -13.330  0.00  0.00    +0.002 C 
ATOM     18  C   UNL     1      31.128 -25.046 -13.180  0.00  0.00    +0.011 C 
ENDBRANCH   5  13
BRANCH   6  19
ATOM     19  C   UNL     1      35.068 -19.146 -22.363  0.00  0.00    +0.056 C 
BRANCH  19  20
ATOM     20  C   UNL     1      36.095 -18.038 -22.135  0.00  0.00    +0.093 C 
BRANCH  20  22
ATOM     21  S   UNL     1      34.073 -14.082 -20.794  0.00  0.00    -0.101 S 
ATOM     22  N   UNL     1      35.453 -16.807 -21.787  0.00  0.00    -0.320 N 
ATOM     23  N   UNL     1      34.778 -16.359 -24.024  0.00  0.00    -0.233 NA
ATOM     24  N   UNL     1      33.528 -14.377 -24.629  0.00  0.00    -0.247 NA
ATOM     25  C   UNL     1      34.805 -15.986 -22.729  0.00  0.00    +0.118 C 
ATOM     26  C   UNL     1      34.193 -14.798 -22.349  0.00  0.00    +0.145 C 
ATOM     27  C   UNL     1      33.564 -14.016 -23.318  0.00  0.00    +0.073 C 
ATOM     28  C   UNL     1      32.990 -12.835 -22.759  0.00  0.00    +0.022 C 
ATOM     29  C   UNL     1      33.194 -12.749 -21.400  0.00  0.00    +0.033 C 
ATOM     30  C   UNL     1      34.148 -15.540 -24.886  0.00  0.00    +0.251 C 
ATOM     31  H   UNL     1      35.465 -16.521 -20.844  0.00  0.00    +0.148 HD
ENDBRANCH  20  22
ENDBRANCH  19  20
ENDBRANCH   6  19
TORSDOF 4
ENDMDL
MODEL 5
REMARK VINA RESULT:     -10.5      6.475      9.575
REMARK  Name = 24995524
REMARK  4 active torsions:
REMARK  status: ('A' for Active; 'I' for Inactive)
REMARK    1  A    between atoms: N_5  and  C_13
REMARK    2  A    between atoms: C_6  and  C_19
REMARK    3  A    between atoms: C_19  and  C_20
REMARK    4  A    between atoms: C_20  and  N_22
REMARK                            x       y       z     vdW  Elec       q    Type
REMARK                         _______ _______ _______ _____ _____    ______ ____
ROOT
ATOM      1  S   UNL     1      33.606 -23.397 -16.149  0.00  0.00    -0.056 S 
ATOM      2  O   UNL     1      32.441 -20.507 -19.625  0.00  0.00    -0.252 OA
ATOM      3  N   UNL     1      31.612 -22.249 -17.327  0.00  0.00    -0.223 NA
ATOM      4  N   UNL     1      33.807 -21.782 -18.203  0.00  0.00    -0.248 N 
ATOM      5  N   UNL     1      34.761 -20.517 -19.919  0.00  0.00    -0.268 N 
ATOM      6  C   UNL     1      32.030 -23.709 -15.548  0.00  0.00    +0.031 C 
ATOM      7  C   UNL     1      31.103 -23.016 -16.297  0.00  0.00    +0.103 C 
ATOM      8  C   UNL     1      32.921 -22.372 -17.343  0.00  0.00    +0.166 C 
ATOM      9  C   UNL     1      33.558 -20.887 -19.294  0.00  0.00    +0.310 C 
ATOM     10  H   UNL     1      34.754 -22.004 -18.048  0.00  0.00    +0.158 HD
ATOM     11  H   UNL     1      35.582 -20.906 -19.539  0.00  0.00    +0.156 HD
ENDROOT
BRANCH   5  13
ATOM     12 CL   UNL     1      33.168 -18.969 -24.549  0.00  0.00    -0.082 Cl
ATOM     13  C   UNL     1      34.937 -19.655 -21.026  0.00  0.00    +0.052 C 
ATOM     14  C   UNL     1      34.066 -19.729 -22.114  0.00  0.00    +0.026 C 
ATOM     15  C   UNL     1      35.982 -18.730 -21.031  0.00  0.00    +0.015 C 
ATOM     16  C   UNL     1      34.242 -18.878 -23.206  0.00  0.00    +0.059 C 
ATOM     17  C   UNL     1      36.157 -17.880 -22.122  0.00  0.00    +0.002 C 
ATOM     18  C   UNL     1      35.286 -17.954 -23.209  0.00  0.00    +0.011 C 
ENDBRANCH   5  13
BRANCH   6  19
ATOM     19  C   UNL     1      31.826 -24.629 -14.369  0.00  0.00    +0.056 C 
BRANCH  19  20
ATOM     20  C   UNL     1      32.725 -24.289 -13.181  0.00  0.00    +0.093 C 
BRANCH  20  22
ATOM     21  S   UNL     1      37.129 -25.079 -14.415  0.00  0.00    -0.101 S 
ATOM     22  N   UNL     1      34.102 -24.529 -13.495  0.00  0.00    -0.320 N 
ATOM     23  N   UNL     1      34.792 -24.402 -11.222  0.00  0.00    -0.233 NA
ATOM     24  N   UNL     1      37.101 -24.681 -10.550  0.00  0.00    -0.247 NA
ATOM     25  C   UNL     1      35.113 -24.582 -12.518  0.00  0.00    +0.118 C 
ATOM     26  C   UNL     1      36.438 -24.818 -12.865  0.00  0.00    +0.145 C 
ATOM     27  C   UNL     1      37.407 -24.861 -11.863  0.00  0.00    +0.073 C 
ATOM     28  C   UNL     1      38.709 -25.111 -12.392  0.00  0.00    +0.022 C 
ATOM     29  C   UNL     1      38.698 -25.249 -13.761  0.00  0.00    +0.033 C 
ATOM     30  C   UNL     1      35.795 -24.461 -10.326  0.00  0.00    +0.251 C 
ATOM     31  H   UNL     1      34.352 -24.662 -14.438  0.00  0.00    +0.148 HD
ENDBRANCH  20  22
ENDBRANCH  19  20
ENDBRANCH   6  19
TORSDOF 4
ENDMDL
MODEL 6
REMARK VINA RESULT:     -10.3      6.251     12.810
REMARK  Name = 24995524
REMARK  4 active torsions:
REMARK  status: ('A' for Active; 'I' for Inactive)
REMARK    1  A    between atoms: N_5  and  C_13
REMARK    2  A    between atoms: C_6  and  C_19
REMARK    3  A    between atoms: C_19  and  C_20
REMARK    4  A    between atoms: C_20  and  N_22
REMARK                            x       y       z     vdW  Elec       q    Type
REMARK                         _______ _______ _______ _____ _____    ______ ____
ROOT
ATOM      1  S   UNL     1      36.530 -20.714 -19.016  0.00  0.00    -0.056 S 
ATOM      2  O   UNL     1      35.071 -23.495 -15.562  0.00  0.00    -0.252 OA
ATOM      3  N   UNL     1      34.476 -21.970 -18.076  0.00  0.00    -0.223 NA
ATOM      4  N   UNL     1      36.536 -22.183 -16.846  0.00  0.00    -0.248 N 
ATOM      5  N   UNL     1      37.307 -23.256 -14.920  0.00  0.00    -0.268 N 
ATOM      6  C   UNL     1      35.049 -20.581 -19.870  0.00  0.00    +0.031 C 
ATOM      7  C   UNL     1      34.075 -21.313 -19.223  0.00  0.00    +0.103 C 
ATOM      8  C   UNL     1      35.751 -21.726 -17.870  0.00  0.00    +0.166 C 
ATOM      9  C   UNL     1      36.192 -23.033 -15.745  0.00  0.00    +0.310 C 
ATOM     10  H   UNL     1      37.474 -21.885 -16.870  0.00  0.00    +0.158 HD
ATOM     11  H   UNL     1      38.144 -22.816 -15.198  0.00  0.00    +0.156 HD
ENDROOT
BRANCH   5  13
ATOM     12 CL   UNL     1      37.849 -27.884 -12.764  0.00  0.00    -0.082 Cl
ATOM     13  C   UNL     1      37.376 -24.034 -13.741  0.00  0.00    +0.052 C 
ATOM     14  C   UNL     1      37.558 -25.414 -13.825  0.00  0.00    +0.026 C 
ATOM     15  C   UNL     1      37.262 -23.420 -12.493  0.00  0.00    +0.015 C 
ATOM     16  C   UNL     1      37.625 -26.180 -12.661  0.00  0.00    +0.059 C 
ATOM     17  C   UNL     1      37.328 -24.186 -11.330  0.00  0.00    +0.002 C 
ATOM     18  C   UNL     1      37.510 -25.566 -11.414  0.00  0.00    +0.011 C 
ENDBRANCH   5  13
BRANCH   6  19
ATOM     19  C   UNL     1      34.959 -19.753 -21.129  0.00  0.00    +0.056 C 
BRANCH  19  20
ATOM     20  C   UNL     1      36.094 -18.738 -21.260  0.00  0.00    +0.093 C 
BRANCH  20  22
ATOM     21  S   UNL     1      34.482 -14.385 -21.285  0.00  0.00    -0.101 S 
ATOM     22  N   UNL     1      35.581 -17.403 -21.334  0.00  0.00    -0.320 N 
ATOM     23  N   UNL     1      35.013 -17.595 -23.637  0.00  0.00    -0.233 NA
ATOM     24  N   UNL     1      34.000 -15.781 -24.878  0.00  0.00    -0.247 NA
ATOM     25  C   UNL     1      35.049 -16.850 -22.514  0.00  0.00    +0.118 C 
ATOM     26  C   UNL     1      34.561 -15.549 -22.544  0.00  0.00    +0.145 C 
ATOM     27  C   UNL     1      34.045 -15.043 -23.736  0.00  0.00    +0.073 C 
ATOM     28  C   UNL     1      33.589 -13.698 -23.592  0.00  0.00    +0.022 C 
ATOM     29  C   UNL     1      33.768 -13.222 -22.312  0.00  0.00    +0.033 C 
ATOM     30  C   UNL     1      34.496 -17.021 -24.739  0.00  0.00    +0.251 C 
ATOM     31  H   UNL     1      35.601 -16.846 -20.522  0.00  0.00    +0.148 HD
ENDBRANCH  20  22
ENDBRANCH  19  20
ENDBRANCH   6  19
TORSDOF 4
ENDMDL
MODEL 7
REMARK VINA RESULT:     -10.3      5.451      8.913
REMARK  Name = 24995524
REMARK  4 active torsions:
REMARK  status: ('A' for Active; 'I' for Inactive)
REMARK    1  A    between atoms: N_5  and  C_13
REMARK    2  A    between atoms: C_6  and  C_19
REMARK    3  A    between atoms: C_19  and  C_20
REMARK    4  A    between atoms: C_20  and  N_22
REMARK                            x       y       z     vdW  Elec       q    Type
REMARK                         _______ _______ _______ _____ _____    ______ ____
ROOT
ATOM      1  S   UNL     1      35.723 -22.384 -16.954  0.00  0.00    -0.056 S 
ATOM      2  O   UNL     1      33.191 -20.485 -20.387  0.00  0.00    -0.252 OA
ATOM      3  N   UNL     1      33.350 -22.258 -17.972  0.00  0.00    -0.223 NA
ATOM      4  N   UNL     1      35.070 -20.973 -19.064  0.00  0.00    -0.248 N 
ATOM      5  N   UNL     1      35.269 -19.542 -20.899  0.00  0.00    -0.268 N 
ATOM      6  C   UNL     1      34.477 -23.288 -16.199  0.00  0.00    +0.031 C 
ATOM      7  C   UNL     1      33.291 -23.098 -16.877  0.00  0.00    +0.103 C 
ATOM      8  C   UNL     1      34.583 -21.822 -18.108  0.00  0.00    +0.166 C 
ATOM      9  C   UNL     1      34.386 -20.339 -20.153  0.00  0.00    +0.310 C 
ATOM     10  H   UNL     1      36.030 -20.767 -18.994  0.00  0.00    +0.158 HD
ATOM     11  H   UNL     1      36.203 -19.524 -20.587  0.00  0.00    +0.156 HD
ENDROOT
BRANCH   5  13
ATOM     12 CL   UNL     1      34.982 -14.890 -23.053  0.00  0.00    -0.082 Cl
ATOM     13  C   UNL     1      34.981 -18.760 -22.042  0.00  0.00    +0.052 C 
ATOM     14  C   UNL     1      35.110 -17.373 -21.989  0.00  0.00    +0.026 C 
ATOM     15  C   UNL     1      34.569 -19.379 -23.223  0.00  0.00    +0.015 C 
ATOM     16  C   UNL     1      34.825 -16.603 -23.118  0.00  0.00    +0.059 C 
ATOM     17  C   UNL     1      34.284 -18.609 -24.351  0.00  0.00    +0.002 C 
ATOM     18  C   UNL     1      34.412 -17.222 -24.298  0.00  0.00    +0.011 C 
ENDBRANCH   5  13
BRANCH   6  19
ATOM     19  C   UNL     1      34.769 -24.128 -14.979  0.00  0.00    +0.056 C 
BRANCH  19  20
ATOM     20  C   UNL     1      36.249 -24.142 -14.602  0.00  0.00    +0.093 C 
BRANCH  20  22
ATOM     21  S   UNL     1      37.891 -28.422 -15.325  0.00  0.00    -0.101 S 
ATOM     22  N   UNL     1      36.819 -25.439 -14.808  0.00  0.00    -0.320 N 
ATOM     23  N   UNL     1      39.016 -24.724 -14.240  0.00  0.00    -0.233 NA
ATOM     24  N   UNL     1      40.913 -26.227 -14.257  0.00  0.00    -0.247 NA
ATOM     25  C   UNL     1      38.187 -25.714 -14.626  0.00  0.00    +0.118 C 
ATOM     26  C   UNL     1      38.700 -26.989 -14.837  0.00  0.00    +0.145 C 
ATOM     27  C   UNL     1      40.063 -27.215 -14.645  0.00  0.00    +0.073 C 
ATOM     28  C   UNL     1      40.420 -28.572 -14.905  0.00  0.00    +0.022 C 
ATOM     29  C   UNL     1      39.336 -29.333 -15.281  0.00  0.00    +0.033 C 
ATOM     30  C   UNL     1      40.315 -25.037 -14.081  0.00  0.00    +0.251 C 
ATOM     31  H   UNL     1      36.226 -26.173 -15.091  0.00  0.00    +0.148 HD
ENDBRANCH  20  22
ENDBRANCH  19  20
ENDBRANCH   6  19
TORSDOF 4
ENDMDL
MODEL 8
REMARK VINA RESULT:     -10.1      5.304     11.885
REMARK  Name = 24995524
REMARK  4 active torsions:
REMARK  status: ('A' for Active; 'I' for Inactive)
REMARK    1  A    between atoms: N_5  and  C_13
REMARK    2  A    between atoms: C_6  and  C_19
REMARK    3  A    between atoms: C_19  and  C_20
REMARK    4  A    between atoms: C_20  and  N_22
REMARK                            x       y       z     vdW  Elec       q    Type
REMARK                         _______ _______ _______ _____ _____    ______ ____
ROOT
ATOM      1  S   UNL     1      33.086 -20.176 -20.613  0.00  0.00    -0.056 S 
ATOM      2  O   UNL     1      34.058 -22.762 -16.849  0.00  0.00    -0.252 OA
ATOM      3  N   UNL     1      35.010 -21.235 -19.251  0.00  0.00    -0.223 NA
ATOM      4  N   UNL     1      32.772 -21.601 -18.436  0.00  0.00    -0.248 N 
ATOM      5  N   UNL     1      31.727 -22.703 -16.662  0.00  0.00    -0.268 N 
ATOM      6  C   UNL     1      34.690 -19.933 -21.168  0.00  0.00    +0.031 C 
ATOM      7  C   UNL     1      35.574 -20.568 -20.320  0.00  0.00    +0.103 C 
ATOM      8  C   UNL     1      33.704 -21.096 -19.303  0.00  0.00    +0.166 C 
ATOM      9  C   UNL     1      32.961 -22.400 -17.261  0.00  0.00    +0.310 C 
ATOM     10  H   UNL     1      31.836 -21.383 -18.651  0.00  0.00    +0.158 HD
ATOM     11  H   UNL     1      30.929 -22.341 -17.110  0.00  0.00    +0.156 HD
ENDROOT
BRANCH   5  13
ATOM     12 CL   UNL     1      28.602 -25.810 -14.027  0.00  0.00    -0.082 Cl
ATOM     13  C   UNL     1      31.491 -23.464 -15.493  0.00  0.00    +0.052 C 
ATOM     14  C   UNL     1      30.302 -24.179 -15.354  0.00  0.00    +0.026 C 
ATOM     15  C   UNL     1      32.450 -23.499 -14.479  0.00  0.00    +0.015 C 
ATOM     16  C   UNL     1      30.071 -24.928 -14.200  0.00  0.00    +0.059 C 
ATOM     17  C   UNL     1      32.218 -24.248 -13.326  0.00  0.00    +0.002 C 
ATOM     18  C   UNL     1      31.028 -24.963 -13.187  0.00  0.00    +0.011 C 
ENDBRANCH   5  13
BRANCH   6  19
ATOM     19  C   UNL     1      34.958 -19.125 -22.414  0.00  0.00    +0.056 C 
BRANCH  19  20
ATOM     20  C   UNL     1      35.744 -17.844 -22.141  0.00  0.00    +0.093 C 
BRANCH  20  22
ATOM     21  S   UNL     1      34.095 -14.416 -24.800  0.00  0.00    -0.101 S 
ATOM     22  N   UNL     1      35.222 -16.750 -22.904  0.00  0.00    -0.320 N 
ATOM     23  N   UNL     1      34.740 -15.445 -20.974  0.00  0.00    -0.233 NA
ATOM     24  N   UNL     1      33.755 -13.238 -21.113  0.00  0.00    -0.247 NA
ATOM     25  C   UNL     1      34.729 -15.570 -22.315  0.00  0.00    +0.118 C 
ATOM     26  C   UNL     1      34.231 -14.531 -23.093  0.00  0.00    +0.145 C 
ATOM     27  C   UNL     1      33.752 -13.381 -22.466  0.00  0.00    +0.073 C 
ATOM     28  C   UNL     1      33.279 -12.419 -23.407  0.00  0.00    +0.022 C 
ATOM     29  C   UNL     1      33.408 -12.854 -24.707  0.00  0.00    +0.033 C 
ATOM     30  C   UNL     1      34.257 -14.299 -20.459  0.00  0.00    +0.251 C 
ATOM     31  H   UNL     1      35.207 -16.827 -23.886  0.00  0.00    +0.148 HD
ENDBRANCH  20  22
ENDBRANCH  19  20
ENDBRANCH   6  19
TORSDOF 4
ENDMDL
MODEL 9
REMARK VINA RESULT:      -9.9      4.111     11.660
REMARK  Name = 24995524
REMARK  4 active torsions:
REMARK  status: ('A' for Active; 'I' for Inactive)
REMARK    1  A    between atoms: N_5  and  C_13
REMARK    2  A    between atoms: C_6  and  C_19
REMARK    3  A    between atoms: C_19  and  C_20
REMARK    4  A    between atoms: C_20  and  N_22
REMARK                            x       y       z     vdW  Elec       q    Type
REMARK                         _______ _______ _______ _____ _____    ______ ____
ROOT
ATOM      1  S   UNL     1      34.178 -14.356 -24.310  0.00  0.00    -0.056 S 
ATOM      2  O   UNL     1      34.960 -16.484 -20.229  0.00  0.00    -0.252 OA
ATOM      3  N   UNL     1      34.410 -13.966 -21.766  0.00  0.00    -0.223 NA
ATOM      4  N   UNL     1      34.658 -16.233 -22.545  0.00  0.00    -0.248 N 
ATOM      5  N   UNL     1      35.075 -18.345 -21.640  0.00  0.00    -0.268 N 
ATOM      6  C   UNL     1      34.006 -12.753 -23.725  0.00  0.00    +0.031 C 
ATOM      7  C   UNL     1      34.162 -12.742 -22.355  0.00  0.00    +0.103 C 
ATOM      8  C   UNL     1      34.440 -14.890 -22.701  0.00  0.00    +0.166 C 
ATOM      9  C   UNL     1      34.906 -16.981 -21.348  0.00  0.00    +0.310 C 
ATOM     10  H   UNL     1      34.640 -16.761 -23.375  0.00  0.00    +0.158 HD
ATOM     11  H   UNL     1      35.004 -18.595 -22.590  0.00  0.00    +0.156 HD
ENDROOT
BRANCH   5  13
ATOM     12 CL   UNL     1      33.242 -22.149 -18.720  0.00  0.00    -0.082 Cl
ATOM     13  C   UNL     1      35.336 -19.402 -20.738  0.00  0.00    +0.052 C 
ATOM     14  C   UNL     1      34.283 -20.165 -20.234  0.00  0.00    +0.026 C 
ATOM     15  C   UNL     1      36.648 -19.682 -20.352  0.00  0.00    +0.015 C 
ATOM     16  C   UNL     1      34.542 -21.207 -19.343  0.00  0.00    +0.059 C 
ATOM     17  C   UNL     1      36.905 -20.723 -19.461  0.00  0.00    +0.002 C 
ATOM     18  C   UNL     1      35.852 -21.486 -18.958  0.00  0.00    +0.011 C 
ENDBRANCH   5  13
BRANCH   6  19
ATOM     19  C   UNL     1      33.731 -11.614 -24.676  0.00  0.00    +0.056 C 
BRANCH  19  20
ATOM     20  C   UNL     1      34.518 -10.349 -24.340  0.00  0.00    +0.093 C 
BRANCH  20  22
ATOM     21  S   UNL     1      32.313  -8.077 -20.946  0.00  0.00    -0.101 S 
ATOM     22  N   UNL     1      33.855  -9.588 -23.323  0.00  0.00    -0.320 N 
ATOM     23  N   UNL     1      34.418  -7.500 -24.315  0.00  0.00    -0.233 NA
ATOM     24  N   UNL     1      33.750  -5.384 -23.349  0.00  0.00    -0.247 NA
ATOM     25  C   UNL     1      33.813  -8.181 -23.322  0.00  0.00    +0.118 C 
ATOM     26  C   UNL     1      33.158  -7.481 -22.316  0.00  0.00    +0.145 C 
ATOM     27  C   UNL     1      33.143  -6.087 -22.355  0.00  0.00    +0.073 C 
ATOM     28  C   UNL     1      32.432  -5.530 -21.251  0.00  0.00    +0.022 C 
ATOM     29  C   UNL     1      31.930  -6.500 -20.411  0.00  0.00    +0.033 C 
ATOM     30  C   UNL     1      34.351  -6.157 -24.268  0.00  0.00    +0.251 C 
ATOM     31  H   UNL     1      33.408 -10.072 -22.591  0.00  0.00    +0.148 HD
ENDBRANCH  20  22
ENDBRANCH  19  20
ENDBRANCH   6  19
TORSDOF 4
ENDMDL
