MODEL 1
REMARK VINA RESULT:     -11.5      0.000      0.000
REMARK  Name = 447731
REMARK  4 active torsions:
REMARK  status: ('A' for Active; 'I' for Inactive)
REMARK    1  A    between atoms: N_2  and  C_13
REMARK    2  A    between atoms: C_3  and  C_19
REMARK    3  A    between atoms: C_6  and  C_17
REMARK    4  A    between atoms: C_27  and  C_31
REMARK                            x       y       z     vdW  Elec       q    Type
REMARK                         _______ _______ _______ _____ _____    ______ ____
ROOT
ATOM      1  O   UNL     1      33.637 -23.779 -17.596  0.00  0.00    -0.270 OA
ATOM      2  N   UNL     1      35.120 -22.375 -16.430  0.00  0.00    -0.280 N 
ATOM      3  C   UNL     1      34.283 -22.741 -17.492  0.00  0.00    +0.249 C 
ATOM      4  H   UNL     1      35.564 -21.500 -16.512  0.00  0.00    +0.155 HD
ENDROOT
BRANCH   2  13
ATOM      5  N   UNL     1      37.137 -26.481 -11.890  0.00  0.00    +0.387 N 
ATOM      6  C   UNL     1      38.033 -25.590 -14.012  0.00  0.00    +0.001 C 
ATOM      7  C   UNL     1      36.833 -24.656 -14.062  0.00  0.00    -0.029 C 
ATOM      8  C   UNL     1      38.352 -26.044 -12.573  0.00  0.00    -0.077 C 
ATOM      9  C   UNL     1      35.961 -24.571 -12.958  0.00  0.00    -0.048 C 
ATOM     10  C   UNL     1      36.238 -25.341 -11.691  0.00  0.00    -0.055 C 
ATOM     11  C   UNL     1      36.524 -23.928 -15.223  0.00  0.00    +0.010 C 
ATOM     12  C   UNL     1      34.845 -23.723 -13.011  0.00  0.00    -0.005 C 
ATOM     13  C   UNL     1      35.402 -23.098 -15.269  0.00  0.00    +0.050 C 
ATOM     14  C   UNL     1      34.567 -22.991 -14.162  0.00  0.00    +0.014 C 
ATOM     15  H   UNL     1      37.383 -26.879 -10.983  0.00  0.00    -0.084 HD
ATOM     16  H   UNL     1      36.665 -27.184 -12.459  0.00  0.00    -0.084 HD
BRANCH   6  17
ATOM     17  C   UNL     1      39.304 -24.993 -14.628  0.00  0.00    +0.002 C 
ATOM     18  C   UNL     1      40.543 -25.490 -13.914  0.00  0.00    +0.000 C 
ENDBRANCH   6  17
ENDBRANCH   2  13
BRANCH   3  19
ATOM     19  C   UNL     1      34.207 -21.765 -18.610  0.00  0.00    +0.054 C 
ATOM     20  C   UNL     1      35.315 -20.245 -20.110  0.00  0.00    +0.000 C 
ATOM     21  C   UNL     1      34.064 -19.940 -20.698  0.00  0.00    +0.000 C 
ATOM     22  C   UNL     1      35.370 -21.171 -19.054  0.00  0.00    +0.005 C 
ATOM     23  C   UNL     1      32.979 -21.486 -19.164  0.00  0.00    +0.005 C 
ATOM     24  C   UNL     1      32.905 -20.569 -20.213  0.00  0.00    +0.000 C 
ATOM     25  C   UNL     1      34.008 -19.015 -21.753  0.00  0.00    +0.003 C 
ATOM     26  C   UNL     1      36.473 -19.616 -20.594  0.00  0.00    +0.000 C 
ATOM     27  C   UNL     1      35.169 -18.399 -22.222  0.00  0.00    +0.031 C 
ATOM     28  C   UNL     1      36.399 -18.700 -21.643  0.00  0.00    +0.003 C 
BRANCH  27  31
ATOM     29  N   UNL     1      35.626 -16.161 -23.194  0.00  0.00    -0.343 N 
ATOM     30  N   UNL     1      34.509 -17.784 -24.448  0.00  0.00    -0.285 NA
ATOM     31  C   UNL     1      35.094 -17.443 -23.315  0.00  0.00    +0.117 C 
ATOM     32  H   UNL     1      35.565 -15.530 -23.947  0.00  0.00    +0.144 HD
ATOM     33  H   UNL     1      36.065 -15.887 -22.356  0.00  0.00    +0.144 HD
ATOM     34  H   UNL     1      34.457 -17.138 -25.190  0.00  0.00    +0.188 HD
ENDBRANCH  27  31
ENDBRANCH   3  19
TORSDOF 4
ENDMDL
MODEL 2
REMARK VINA RESULT:     -11.3      1.132      2.509
REMARK  Name = 447731
REMARK  4 active torsions:
REMARK  status: ('A' for Active; 'I' for Inactive)
REMARK    1  A    between atoms: N_2  and  C_13
REMARK    2  A    between atoms: C_3  and  C_19
REMARK    3  A    between atoms: C_6  and  C_17
REMARK    4  A    between atoms: C_27  and  C_31
REMARK                            x       y       z     vdW  Elec       q    Type
REMARK                         _______ _______ _______ _____ _____    ______ ____
ROOT
ATOM      1  O   UNL     1      34.210 -23.371 -17.426  0.00  0.00    -0.270 OA
ATOM      2  N   UNL     1      35.990 -22.007 -16.719  0.00  0.00    -0.280 N 
ATOM      3  C   UNL     1      34.932 -22.388 -17.554  0.00  0.00    +0.249 C 
ATOM      4  H   UNL     1      36.466 -21.183 -16.973  0.00  0.00    +0.155 HD
ENDROOT
BRANCH   2  13
ATOM      5  N   UNL     1      37.034 -24.468 -10.854  0.00  0.00    +0.387 N 
ATOM      6  C   UNL     1      35.057 -23.884 -12.215  0.00  0.00    +0.001 C 
ATOM      7  C   UNL     1      36.007 -23.597 -13.370  0.00  0.00    -0.029 C 
ATOM      8  C   UNL     1      35.669 -24.864 -11.195  0.00  0.00    -0.077 C 
ATOM      9  C   UNL     1      37.374 -23.920 -13.253  0.00  0.00    -0.048 C 
ATOM     10  C   UNL     1      37.904 -24.616 -12.025  0.00  0.00    -0.055 C 
ATOM     11  C   UNL     1      35.566 -22.939 -14.529  0.00  0.00    +0.010 C 
ATOM     12  C   UNL     1      38.252 -23.639 -14.311  0.00  0.00    -0.005 C 
ATOM     13  C   UNL     1      36.453 -22.652 -15.570  0.00  0.00    +0.050 C 
ATOM     14  C   UNL     1      37.792 -23.007 -15.463  0.00  0.00    +0.014 C 
ATOM     15  H   UNL     1      37.380 -25.062 -10.099  0.00  0.00    -0.084 HD
ATOM     16  H   UNL     1      37.037 -23.493 -10.556  0.00  0.00    -0.084 HD
BRANCH   6  17
ATOM     17  C   UNL     1      33.695 -24.430 -12.660  0.00  0.00    +0.002 C 
ATOM     18  C   UNL     1      32.685 -23.314 -12.817  0.00  0.00    +0.000 C 
ENDBRANCH   6  17
ENDBRANCH   2  13
BRANCH   3  19
ATOM     19  C   UNL     1      34.696 -21.505 -18.727  0.00  0.00    +0.054 C 
ATOM     20  C   UNL     1      35.558 -19.984 -20.379  0.00  0.00    +0.000 C 
ATOM     21  C   UNL     1      34.254 -19.856 -20.917  0.00  0.00    +0.000 C 
ATOM     22  C   UNL     1      35.764 -20.823 -19.271  0.00  0.00    +0.005 C 
ATOM     23  C   UNL     1      33.420 -21.397 -19.230  0.00  0.00    +0.005 C 
ATOM     24  C   UNL     1      33.196 -20.569 -20.329  0.00  0.00    +0.000 C 
ATOM     25  C   UNL     1      34.046 -19.017 -22.024  0.00  0.00    +0.003 C 
ATOM     26  C   UNL     1      36.615 -19.271 -20.966  0.00  0.00    +0.000 C 
ATOM     27  C   UNL     1      35.109 -18.315 -22.594  0.00  0.00    +0.031 C 
ATOM     28  C   UNL     1      36.391 -18.443 -22.065  0.00  0.00    +0.003 C 
BRANCH  27  31
ATOM     29  N   UNL     1      35.417 -16.168 -23.800  0.00  0.00    -0.343 N 
ATOM     30  N   UNL     1      34.141 -17.879 -24.748  0.00  0.00    -0.285 NA
ATOM     31  C   UNL     1      34.878 -17.452 -23.740  0.00  0.00    +0.117 C 
ATOM     32  H   UNL     1      35.248 -15.599 -24.586  0.00  0.00    +0.144 HD
ATOM     33  H   UNL     1      35.967 -15.829 -23.057  0.00  0.00    +0.144 HD
ATOM     34  H   UNL     1      33.983 -17.296 -25.526  0.00  0.00    +0.188 HD
ENDBRANCH  27  31
ENDBRANCH   3  19
TORSDOF 4
ENDMDL
MODEL 3
REMARK VINA RESULT:     -10.4      8.516     15.429
REMARK  Name = 447731
REMARK  4 active torsions:
REMARK  status: ('A' for Active; 'I' for Inactive)
REMARK    1  A    between atoms: N_2  and  C_13
REMARK    2  A    between atoms: C_3  and  C_19
REMARK    3  A    between atoms: C_6  and  C_17
REMARK    4  A    between atoms: C_27  and  C_31
REMARK                            x       y       z     vdW  Elec       q    Type
REMARK                         _______ _______ _______ _____ _____    ______ ____
ROOT
ATOM      1  O   UNL     1      33.444 -10.906 -24.894  0.00  0.00    -0.270 OA
ATOM      2  N   UNL     1      33.026 -10.275 -22.667  0.00  0.00    -0.280 N 
ATOM      3  C   UNL     1      33.419 -11.146 -23.691  0.00  0.00    +0.249 C 
ATOM      4  H   UNL     1      33.069 -10.636 -21.752  0.00  0.00    +0.155 HD
ENDROOT
BRANCH   2  13
ATOM      5  N   UNL     1      32.261  -3.889 -23.098  0.00  0.00    +0.387 N 
ATOM      6  C   UNL     1      34.005  -5.522 -23.727  0.00  0.00    +0.001 C 
ATOM      7  C   UNL     1      33.039  -6.626 -23.322  0.00  0.00    -0.029 C 
ATOM      8  C   UNL     1      33.270  -4.220 -24.103  0.00  0.00    -0.077 C 
ATOM      9  C   UNL     1      31.705  -6.309 -22.997  0.00  0.00    -0.048 C 
ATOM     10  C   UNL     1      31.194  -4.894 -23.113  0.00  0.00    -0.055 C 
ATOM     11  C   UNL     1      33.468  -7.956 -23.186  0.00  0.00    +0.010 C 
ATOM     12  C   UNL     1      30.819  -7.324 -22.607  0.00  0.00    -0.005 C 
ATOM     13  C   UNL     1      32.580  -8.957 -22.784  0.00  0.00    +0.050 C 
ATOM     14  C   UNL     1      31.256  -8.642 -22.501  0.00  0.00    +0.014 C 
ATOM     15  H   UNL     1      31.864  -2.973 -23.306  0.00  0.00    -0.084 HD
ATOM     16  H   UNL     1      32.696  -3.877 -22.176  0.00  0.00    -0.084 HD
BRANCH   6  17
ATOM     17  C   UNL     1      34.933  -5.909 -24.884  0.00  0.00    +0.002 C 
ATOM     18  C   UNL     1      35.051  -4.785 -25.890  0.00  0.00    +0.000 C 
ENDBRANCH   6  17
ENDBRANCH   2  13
BRANCH   3  19
ATOM     19  C   UNL     1      33.820 -12.508 -23.250  0.00  0.00    +0.054 C 
ATOM     20  C   UNL     1      34.187 -14.828 -23.770  0.00  0.00    +0.000 C 
ATOM     21  C   UNL     1      34.569 -15.051 -22.425  0.00  0.00    +0.000 C 
ATOM     22  C   UNL     1      33.811 -13.535 -24.171  0.00  0.00    +0.005 C 
ATOM     23  C   UNL     1      34.187 -12.699 -21.937  0.00  0.00    +0.005 C 
ATOM     24  C   UNL     1      34.563 -13.975 -21.521  0.00  0.00    +0.000 C 
ATOM     25  C   UNL     1      34.944 -16.343 -22.023  0.00  0.00    +0.003 C 
ATOM     26  C   UNL     1      34.193 -15.903 -24.672  0.00  0.00    +0.000 C 
ATOM     27  C   UNL     1      34.944 -17.400 -22.933  0.00  0.00    +0.031 C 
ATOM     28  C   UNL     1      34.569 -17.179 -24.256  0.00  0.00    +0.003 C 
BRANCH  27  31
ATOM     29  N   UNL     1      36.127 -18.924 -21.371  0.00  0.00    -0.343 N 
ATOM     30  N   UNL     1      34.944 -19.789 -23.189  0.00  0.00    -0.285 NA
ATOM     31  C   UNL     1      35.336 -18.732 -22.502  0.00  0.00    +0.117 C 
ATOM     32  H   UNL     1      36.381 -19.834 -21.096  0.00  0.00    +0.144 HD
ATOM     33  H   UNL     1      36.432 -18.148 -20.845  0.00  0.00    +0.144 HD
ATOM     34  H   UNL     1      35.208 -20.692 -22.899  0.00  0.00    +0.188 HD
ENDBRANCH  27  31
ENDBRANCH   3  19
TORSDOF 4
ENDMDL
MODEL 4
REMARK VINA RESULT:     -10.4      1.460      1.725
REMARK  Name = 447731
REMARK  4 active torsions:
REMARK  status: ('A' for Active; 'I' for Inactive)
REMARK    1  A    between atoms: N_2  and  C_13
REMARK    2  A    between atoms: C_3  and  C_19
REMARK    3  A    between atoms: C_6  and  C_17
REMARK    4  A    between atoms: C_27  and  C_31
REMARK                            x       y       z     vdW  Elec       q    Type
REMARK                         _______ _______ _______ _____ _____    ______ ____
ROOT
ATOM      1  O   UNL     1      37.915 -21.788 -16.712  0.00  0.00    -0.270 OA
ATOM      2  N   UNL     1      35.873 -22.791 -16.118  0.00  0.00    -0.280 N 
ATOM      3  C   UNL     1      36.728 -22.019 -16.915  0.00  0.00    +0.249 C 
ATOM      4  H   UNL     1      34.944 -22.872 -16.433  0.00  0.00    +0.155 HD
ENDROOT
BRANCH   2  13
ATOM      5  N   UNL     1      37.126 -26.976 -11.378  0.00  0.00    +0.387 N 
ATOM      6  C   UNL     1      37.446 -26.909 -13.827  0.00  0.00    +0.001 C 
ATOM      7  C   UNL     1      36.968 -25.465 -13.794  0.00  0.00    -0.029 C 
ATOM      8  C   UNL     1      38.021 -27.358 -12.469  0.00  0.00    -0.077 C 
ATOM      9  C   UNL     1      36.764 -24.819 -12.557  0.00  0.00    -0.048 C 
ATOM     10  C   UNL     1      37.082 -25.516 -11.258  0.00  0.00    -0.055 C 
ATOM     11  C   UNL     1      36.645 -24.776 -14.974  0.00  0.00    +0.010 C 
ATOM     12  C   UNL     1      36.306 -23.494 -12.526  0.00  0.00    -0.005 C 
ATOM     13  C   UNL     1      36.177 -23.460 -14.931  0.00  0.00    +0.050 C 
ATOM     14  C   UNL     1      36.013 -22.818 -13.708  0.00  0.00    +0.014 C 
ATOM     15  H   UNL     1      37.468 -27.377 -10.504  0.00  0.00    -0.084 HD
ATOM     16  H   UNL     1      36.188 -27.325 -11.576  0.00  0.00    -0.084 HD
BRANCH   6  17
ATOM     17  C   UNL     1      38.489 -27.186 -14.915  0.00  0.00    +0.002 C 
ATOM     18  C   UNL     1      39.862 -26.714 -14.488  0.00  0.00    +0.000 C 
ENDBRANCH   6  17
ENDBRANCH   2  13
BRANCH   3  19
ATOM     19  C   UNL     1      36.099 -21.406 -18.114  0.00  0.00    +0.054 C 
ATOM     20  C   UNL     1      36.264 -19.950 -20.022  0.00  0.00    +0.000 C 
ATOM     21  C   UNL     1      34.924 -20.260 -20.354  0.00  0.00    +0.000 C 
ATOM     22  C   UNL     1      36.844 -20.538 -18.885  0.00  0.00    +0.005 C 
ATOM     23  C   UNL     1      34.795 -21.724 -18.415  0.00  0.00    +0.005 C 
ATOM     24  C   UNL     1      34.203 -21.149 -19.539  0.00  0.00    +0.000 C 
ATOM     25  C   UNL     1      34.343 -19.672 -21.490  0.00  0.00    +0.003 C 
ATOM     26  C   UNL     1      36.985 -19.061 -20.835  0.00  0.00    +0.000 C 
ATOM     27  C   UNL     1      35.074 -18.791 -22.287  0.00  0.00    +0.031 C 
ATOM     28  C   UNL     1      36.393 -18.486 -21.960  0.00  0.00    +0.003 C 
BRANCH  27  31
ATOM     29  N   UNL     1      33.427 -18.830 -24.144  0.00  0.00    -0.343 N 
ATOM     30  N   UNL     1      34.880 -17.018 -23.896  0.00  0.00    -0.285 NA
ATOM     31  C   UNL     1      34.459 -18.190 -23.459  0.00  0.00    +0.117 C 
ATOM     32  H   UNL     1      33.024 -18.406 -24.935  0.00  0.00    +0.144 HD
ATOM     33  H   UNL     1      33.100 -19.706 -23.835  0.00  0.00    +0.144 HD
ATOM     34  H   UNL     1      34.465 -16.610 -24.691  0.00  0.00    +0.188 HD
ENDBRANCH  27  31
ENDBRANCH   3  19
TORSDOF 4
ENDMDL
MODEL 5
REMARK VINA RESULT:     -10.2      9.716     16.400
REMARK  Name = 447731
REMARK  4 active torsions:
REMARK  status: ('A' for Active; 'I' for Inactive)
REMARK    1  A    between atoms: N_2  and  C_13
REMARK    2  A    between atoms: C_3  and  C_19
REMARK    3  A    between atoms: C_6  and  C_17
REMARK    4  A    between atoms: C_27  and  C_31
REMARK                            x       y       z     vdW  Elec       q    Type
REMARK                         _______ _______ _______ _____ _____    ______ ____
ROOT
ATOM      1  O   UNL     1      34.921  -8.983 -23.472  0.00  0.00    -0.270 OA
ATOM      2  N   UNL     1      32.592  -9.059 -23.153  0.00  0.00    -0.280 N 
ATOM      3  C   UNL     1      33.856  -9.591 -23.440  0.00  0.00    +0.249 C 
ATOM      4  H   UNL     1      31.841  -9.696 -23.171  0.00  0.00    +0.155 HD
ENDROOT
BRANCH   2  13
ATOM      5  N   UNL     1      32.117  -2.662 -22.530  0.00  0.00    +0.387 N 
ATOM      6  C   UNL     1      32.853  -4.231 -24.290  0.00  0.00    +0.001 C 
ATOM      7  C   UNL     1      32.366  -5.367 -23.403  0.00  0.00    -0.029 C 
ATOM      8  C   UNL     1      32.139  -2.902 -23.971  0.00  0.00    -0.077 C 
ATOM      9  C   UNL     1      31.641  -5.081 -22.228  0.00  0.00    -0.048 C 
ATOM     10  C   UNL     1      31.275  -3.663 -21.869  0.00  0.00    -0.055 C 
ATOM     11  C   UNL     1      32.692  -6.704 -23.685  0.00  0.00    +0.010 C 
ATOM     12  C   UNL     1      31.208  -6.128 -21.401  0.00  0.00    -0.005 C 
ATOM     13  C   UNL     1      32.266  -7.737 -22.847  0.00  0.00    +0.050 C 
ATOM     14  C   UNL     1      31.520  -7.449 -21.709  0.00  0.00    +0.014 C 
ATOM     15  H   UNL     1      31.741  -1.731 -22.348  0.00  0.00    -0.084 HD
ATOM     16  H   UNL     1      33.067  -2.728 -22.164  0.00  0.00    -0.084 HD
BRANCH   6  17
ATOM     17  C   UNL     1      32.708  -4.515 -25.789  0.00  0.00    +0.002 C 
ATOM     18  C   UNL     1      34.050  -4.472 -26.487  0.00  0.00    +0.000 C 
ENDBRANCH   6  17
ENDBRANCH   2  13
BRANCH   3  19
ATOM     19  C   UNL     1      33.879 -11.043 -23.758  0.00  0.00    +0.054 C 
ATOM     20  C   UNL     1      34.204 -13.315 -23.039  0.00  0.00    +0.000 C 
ATOM     21  C   UNL     1      33.922 -13.755 -24.355  0.00  0.00    +0.000 C 
ATOM     22  C   UNL     1      34.178 -11.939 -22.754  0.00  0.00    +0.005 C 
ATOM     23  C   UNL     1      33.601 -11.444 -25.045  0.00  0.00    +0.005 C 
ATOM     24  C   UNL     1      33.623 -12.805 -25.347  0.00  0.00    +0.000 C 
ATOM     25  C   UNL     1      33.949 -15.129 -24.641  0.00  0.00    +0.003 C 
ATOM     26  C   UNL     1      34.504 -14.264 -22.049  0.00  0.00    +0.000 C 
ATOM     27  C   UNL     1      34.249 -16.058 -23.644  0.00  0.00    +0.031 C 
ATOM     28  C   UNL     1      34.526 -15.625 -22.350  0.00  0.00    +0.003 C 
BRANCH  27  31
ATOM     29  N   UNL     1      35.134 -18.351 -23.296  0.00  0.00    -0.343 N 
ATOM     30  N   UNL     1      33.468 -17.960 -24.885  0.00  0.00    -0.285 NA
ATOM     31  C   UNL     1      34.272 -17.478 -23.956  0.00  0.00    +0.117 C 
ATOM     32  H   UNL     1      35.133 -19.309 -23.522  0.00  0.00    +0.144 HD
ATOM     33  H   UNL     1      35.744 -18.010 -22.601  0.00  0.00    +0.144 HD
ATOM     34  H   UNL     1      33.482 -18.922 -25.098  0.00  0.00    +0.188 HD
ENDBRANCH  27  31
ENDBRANCH   3  19
TORSDOF 4
ENDMDL
MODEL 6
REMARK VINA RESULT:     -10.2      1.653      2.021
REMARK  Name = 447731
REMARK  4 active torsions:
REMARK  status: ('A' for Active; 'I' for Inactive)
REMARK    1  A    between atoms: N_2  and  C_13
REMARK    2  A    between atoms: C_3  and  C_19
REMARK    3  A    between atoms: C_6  and  C_17
REMARK    4  A    between atoms: C_27  and  C_31
REMARK                            x       y       z     vdW  Elec       q    Type
REMARK                         _______ _______ _______ _____ _____    ______ ____
ROOT
ATOM      1  O   UNL     1      33.409 -23.674 -15.425  0.00  0.00    -0.270 OA
ATOM      2  N   UNL     1      35.745 -23.673 -15.702  0.00  0.00    -0.280 N 
ATOM      3  C   UNL     1      34.424 -23.333 -16.024  0.00  0.00    +0.249 C 
ATOM      4  H   UNL     1      36.441 -23.308 -16.295  0.00  0.00    +0.155 HD
ENDROOT
BRANCH   2  13
ATOM      5  N   UNL     1      37.513 -28.345 -11.630  0.00  0.00    +0.387 N 
ATOM      6  C   UNL     1      37.463 -28.042 -14.081  0.00  0.00    +0.001 C 
ATOM      7  C   UNL     1      37.059 -26.595 -13.838  0.00  0.00    -0.029 C 
ATOM      8  C   UNL     1      38.216 -28.642 -12.877  0.00  0.00    -0.077 C 
ATOM      9  C   UNL     1      37.072 -26.072 -12.529  0.00  0.00    -0.048 C 
ATOM     10  C   UNL     1      37.551 -26.905 -11.367  0.00  0.00    -0.055 C 
ATOM     11  C   UNL     1      36.593 -25.783 -14.884  0.00  0.00    +0.010 C 
ATOM     12  C   UNL     1      36.682 -24.743 -12.303  0.00  0.00    -0.005 C 
ATOM     13  C   UNL     1      36.194 -24.466 -14.645  0.00  0.00    +0.050 C 
ATOM     14  C   UNL     1      36.245 -23.945 -13.357  0.00  0.00    +0.014 C 
ATOM     15  H   UNL     1      37.965 -28.841 -10.861  0.00  0.00    -0.084 HD
ATOM     16  H   UNL     1      36.542 -28.646 -11.713  0.00  0.00    -0.084 HD
BRANCH   6  17
ATOM     17  C   UNL     1      38.319 -28.239 -15.338  0.00  0.00    +0.002 C 
ATOM     18  C   UNL     1      39.450 -29.211 -15.083  0.00  0.00    +0.000 C 
ENDBRANCH   6  17
ENDBRANCH   2  13
BRANCH   3  19
ATOM     19  C   UNL     1      34.261 -22.489 -17.236  0.00  0.00    +0.054 C 
ATOM     20  C   UNL     1      35.247 -21.161 -18.983  0.00  0.00    +0.000 C 
ATOM     21  C   UNL     1      33.954 -20.912 -19.501  0.00  0.00    +0.000 C 
ATOM     22  C   UNL     1      35.385 -21.961 -17.836  0.00  0.00    +0.005 C 
ATOM     23  C   UNL     1      32.993 -22.262 -17.720  0.00  0.00    +0.005 C 
ATOM     24  C   UNL     1      32.837 -21.470 -18.857  0.00  0.00    +0.000 C 
ATOM     25  C   UNL     1      33.815 -20.112 -20.647  0.00  0.00    +0.003 C 
ATOM     26  C   UNL     1      36.363 -20.603 -19.626  0.00  0.00    +0.000 C 
ATOM     27  C   UNL     1      34.936 -19.565 -21.273  0.00  0.00    +0.031 C 
ATOM     28  C   UNL     1      36.208 -19.811 -20.763  0.00  0.00    +0.003 C 
BRANCH  27  31
ATOM     29  N   UNL     1      35.681 -17.726 -22.764  0.00  0.00    -0.343 N 
ATOM     30  N   UNL     1      33.752 -18.942 -23.269  0.00  0.00    -0.285 NA
ATOM     31  C   UNL     1      34.775 -18.739 -22.459  0.00  0.00    +0.117 C 
ATOM     32  H   UNL     1      35.554 -17.178 -23.572  0.00  0.00    +0.144 HD
ATOM     33  H   UNL     1      36.450 -17.557 -22.171  0.00  0.00    +0.144 HD
ATOM     34  H   UNL     1      33.641 -18.383 -24.072  0.00  0.00    +0.188 HD
ENDBRANCH  27  31
ENDBRANCH   3  19
TORSDOF 4
ENDMDL
MODEL 7
REMARK VINA RESULT:     -10.1      8.117     15.016
REMARK  Name = 447731
REMARK  4 active torsions:
REMARK  status: ('A' for Active; 'I' for Inactive)
REMARK    1  A    between atoms: N_2  and  C_13
REMARK    2  A    between atoms: C_3  and  C_19
REMARK    3  A    between atoms: C_6  and  C_17
REMARK    4  A    between atoms: C_27  and  C_31
REMARK                            x       y       z     vdW  Elec       q    Type
REMARK                         _______ _______ _______ _____ _____    ______ ____
ROOT
ATOM      1  O   UNL     1      33.450 -11.822 -24.682  0.00  0.00    -0.270 OA
ATOM      2  N   UNL     1      34.186 -10.603 -22.810  0.00  0.00    -0.280 N 
ATOM      3  C   UNL     1      33.906 -11.762 -23.545  0.00  0.00    +0.249 C 
ATOM      4  H   UNL     1      34.552 -10.741 -21.907  0.00  0.00    +0.155 HD
ENDROOT
BRANCH   2  13
ATOM      5  N   UNL     1      32.106  -4.674 -24.250  0.00  0.00    +0.387 N 
ATOM      6  C   UNL     1      31.531  -6.410 -22.588  0.00  0.00    +0.001 C 
ATOM      7  C   UNL     1      32.730  -7.204 -23.086  0.00  0.00    -0.029 C 
ATOM      8  C   UNL     1      31.681  -4.902 -22.870  0.00  0.00    -0.077 C 
ATOM      9  C   UNL     1      33.630  -6.620 -24.002  0.00  0.00    -0.048 C 
ATOM     10  C   UNL     1      33.464  -5.188 -24.444  0.00  0.00    -0.055 C 
ATOM     11  C   UNL     1      32.922  -8.545 -22.715  0.00  0.00    +0.010 C 
ATOM     12  C   UNL     1      34.725  -7.359 -24.474  0.00  0.00    -0.005 C 
ATOM     13  C   UNL     1      34.009  -9.274 -23.202  0.00  0.00    +0.050 C 
ATOM     14  C   UNL     1      34.912  -8.680 -24.076  0.00  0.00    +0.014 C 
ATOM     15  H   UNL     1      32.092  -3.674 -24.448  0.00  0.00    -0.084 HD
ATOM     16  H   UNL     1      31.469  -5.161 -24.882  0.00  0.00    -0.084 HD
BRANCH   6  17
ATOM     17  C   UNL     1      31.244  -6.601 -21.095  0.00  0.00    +0.002 C 
ATOM     18  C   UNL     1      32.257  -5.867 -20.245  0.00  0.00    +0.000 C 
ENDBRANCH   6  17
ENDBRANCH   2  13
BRANCH   3  19
ATOM     19  C   UNL     1      34.177 -13.043 -22.841  0.00  0.00    +0.054 C 
ATOM     20  C   UNL     1      34.720 -15.385 -22.938  0.00  0.00    +0.000 C 
ATOM     21  C   UNL     1      34.682 -15.435 -21.523  0.00  0.00    +0.000 C 
ATOM     22  C   UNL     1      34.462 -14.166 -23.589  0.00  0.00    +0.005 C 
ATOM     23  C   UNL     1      34.134 -13.065 -21.465  0.00  0.00    +0.005 C 
ATOM     24  C   UNL     1      34.387 -14.266 -20.802  0.00  0.00    +0.000 C 
ATOM     25  C   UNL     1      34.939 -16.653 -20.872  0.00  0.00    +0.003 C 
ATOM     26  C   UNL     1      35.013 -16.553 -23.658  0.00  0.00    +0.000 C 
ATOM     27  C   UNL     1      35.230 -17.804 -21.605  0.00  0.00    +0.031 C 
ATOM     28  C   UNL     1      35.267 -17.753 -22.996  0.00  0.00    +0.003 C 
BRANCH  27  31
ATOM     29  N   UNL     1      36.677 -19.258 -20.208  0.00  0.00    -0.343 N 
ATOM     30  N   UNL     1      34.604 -20.031 -20.957  0.00  0.00    -0.285 NA
ATOM     31  C   UNL     1      35.494 -19.056 -20.915  0.00  0.00    +0.117 C 
ATOM     32  H   UNL     1      36.836 -20.114 -19.748  0.00  0.00    +0.144 HD
ATOM     33  H   UNL     1      37.355 -18.545 -20.166  0.00  0.00    +0.144 HD
ATOM     34  H   UNL     1      34.781 -20.880 -20.492  0.00  0.00    +0.188 HD
ENDBRANCH  27  31
ENDBRANCH   3  19
TORSDOF 4
ENDMDL
MODEL 8
REMARK VINA RESULT:     -10.0      7.962     14.740
REMARK  Name = 447731
REMARK  4 active torsions:
REMARK  status: ('A' for Active; 'I' for Inactive)
REMARK    1  A    between atoms: N_2  and  C_13
REMARK    2  A    between atoms: C_3  and  C_19
REMARK    3  A    between atoms: C_6  and  C_17
REMARK    4  A    between atoms: C_27  and  C_31
REMARK                            x       y       z     vdW  Elec       q    Type
REMARK                         _______ _______ _______ _____ _____    ______ ____
ROOT
ATOM      1  O   UNL     1      33.234 -11.577 -25.372  0.00  0.00    -0.270 OA
ATOM      2  N   UNL     1      34.166 -10.871 -23.331  0.00  0.00    -0.280 N 
ATOM      3  C   UNL     1      33.778 -11.809 -24.297  0.00  0.00    +0.249 C 
ATOM      4  H   UNL     1      34.592 -11.236 -22.522  0.00  0.00    +0.155 HD
ENDROOT
BRANCH   2  13
ATOM      5  N   UNL     1      32.297  -4.710 -23.020  0.00  0.00    +0.387 N 
ATOM      6  C   UNL     1      31.863  -6.772 -21.729  0.00  0.00    +0.001 C 
ATOM      7  C   UNL     1      32.917  -7.461 -22.583  0.00  0.00    -0.029 C 
ATOM      8  C   UNL     1      32.070  -5.245 -21.679  0.00  0.00    -0.077 C 
ATOM      9  C   UNL     1      33.706  -6.705 -23.474  0.00  0.00    -0.048 C 
ATOM     10  C   UNL     1      33.573  -5.205 -23.544  0.00  0.00    -0.055 C 
ATOM     11  C   UNL     1      33.072  -8.857 -22.564  0.00  0.00    +0.010 C 
ATOM     12  C   UNL     1      34.666  -7.344 -24.273  0.00  0.00    -0.005 C 
ATOM     13  C   UNL     1      34.022  -9.483 -23.375  0.00  0.00    +0.050 C 
ATOM     14  C   UNL     1      34.821  -8.727 -24.224  0.00  0.00    +0.014 C 
ATOM     15  H   UNL     1      32.321  -3.691 -22.979  0.00  0.00    -0.084 HD
ATOM     16  H   UNL     1      31.542  -5.014 -23.635  0.00  0.00    -0.084 HD
BRANCH   6  17
ATOM     17  C   UNL     1      31.791  -7.302 -20.293  0.00  0.00    +0.002 C 
ATOM     18  C   UNL     1      32.866  -6.683 -19.427  0.00  0.00    +0.000 C 
ENDBRANCH   6  17
ENDBRANCH   2  13
BRANCH   3  19
ATOM     19  C   UNL     1      34.041 -13.229 -23.948  0.00  0.00    +0.054 C 
ATOM     20  C   UNL     1      34.555 -14.892 -22.288  0.00  0.00    +0.000 C 
ATOM     21  C   UNL     1      34.532 -15.884 -23.298  0.00  0.00    +0.000 C 
ATOM     22  C   UNL     1      34.304 -13.554 -22.634  0.00  0.00    +0.005 C 
ATOM     23  C   UNL     1      34.013 -14.174 -24.949  0.00  0.00    +0.005 C 
ATOM     24  C   UNL     1      34.260 -15.507 -24.624  0.00  0.00    +0.000 C 
ATOM     25  C   UNL     1      34.784 -17.222 -22.953  0.00  0.00    +0.003 C 
ATOM     26  C   UNL     1      34.828 -15.268 -20.963  0.00  0.00    +0.000 C 
ATOM     27  C   UNL     1      35.053 -17.577 -21.632  0.00  0.00    +0.031 C 
ATOM     28  C   UNL     1      35.075 -16.602 -20.639  0.00  0.00    +0.003 C 
BRANCH  27  31
ATOM     29  N   UNL     1      36.205 -19.311 -20.279  0.00  0.00    -0.343 N 
ATOM     30  N   UNL     1      34.695 -19.931 -21.949  0.00  0.00    -0.285 NA
ATOM     31  C   UNL     1      35.311 -18.967 -21.291  0.00  0.00    +0.117 C 
ATOM     32  H   UNL     1      36.365 -20.258 -20.063  0.00  0.00    +0.144 HD
ATOM     33  H   UNL     1      36.677 -18.606 -19.777  0.00  0.00    +0.144 HD
ATOM     34  H   UNL     1      34.869 -20.873 -21.720  0.00  0.00    +0.188 HD
ENDBRANCH  27  31
ENDBRANCH   3  19
TORSDOF 4
ENDMDL
MODEL 9
REMARK VINA RESULT:      -9.7      9.497     14.400
REMARK  Name = 447731
REMARK  4 active torsions:
REMARK  status: ('A' for Active; 'I' for Inactive)
REMARK    1  A    between atoms: N_2  and  C_13
REMARK    2  A    between atoms: C_3  and  C_19
REMARK    3  A    between atoms: C_6  and  C_17
REMARK    4  A    between atoms: C_27  and  C_31
REMARK                            x       y       z     vdW  Elec       q    Type
REMARK                         _______ _______ _______ _____ _____    ______ ____
ROOT
ATOM      1  O   UNL     1      31.538 -10.974 -21.370  0.00  0.00    -0.270 OA
ATOM      2  N   UNL     1      33.144 -10.769 -23.076  0.00  0.00    -0.280 N 
ATOM      3  C   UNL     1      32.236 -10.298 -22.118  0.00  0.00    +0.249 C 
ATOM      4  H   UNL     1      33.622 -10.081 -23.592  0.00  0.00    +0.155 HD
ENDROOT
BRANCH   2  13
ATOM      5  N   UNL     1      35.397 -16.794 -23.479  0.00  0.00    +0.387 N 
ATOM      6  C   UNL     1      34.990 -15.161 -21.670  0.00  0.00    +0.001 C 
ATOM      7  C   UNL     1      34.334 -14.261 -22.707  0.00  0.00    -0.029 C 
ATOM      8  C   UNL     1      34.960 -16.644 -22.092  0.00  0.00    -0.077 C 
ATOM      9  C   UNL     1      34.100 -14.744 -24.011  0.00  0.00    -0.048 C 
ATOM     10  C   UNL     1      34.424 -16.170 -24.379  0.00  0.00    -0.055 C 
ATOM     11  C   UNL     1      34.025 -12.921 -22.419  0.00  0.00    +0.010 C 
ATOM     12  C   UNL     1      33.512 -13.907 -24.972  0.00  0.00    -0.005 C 
ATOM     13  C   UNL     1      33.452 -12.094 -23.388  0.00  0.00    +0.050 C 
ATOM     14  C   UNL     1      33.190 -12.589 -24.661  0.00  0.00    +0.014 C 
ATOM     15  H   UNL     1      35.476 -17.786 -23.703  0.00  0.00    -0.084 HD
ATOM     16  H   UNL     1      36.303 -16.340 -23.597  0.00  0.00    -0.084 HD
BRANCH   6  17
ATOM     17  C   UNL     1      34.374 -15.039 -20.272  0.00  0.00    +0.002 C 
ATOM     18  C   UNL     1      33.151 -14.147 -20.289  0.00  0.00    +0.000 C 
ENDBRANCH   6  17
ENDBRANCH   2  13
BRANCH   3  19
ATOM     19  C   UNL     1      32.104  -8.820 -22.038  0.00  0.00    +0.054 C 
ATOM     20  C   UNL     1      31.690  -6.716 -23.129  0.00  0.00    +0.000 C 
ATOM     21  C   UNL     1      31.858  -6.058 -21.886  0.00  0.00    +0.000 C 
ATOM     22  C   UNL     1      31.817  -8.114 -23.188  0.00  0.00    +0.005 C 
ATOM     23  C   UNL     1      32.273  -8.204 -20.819  0.00  0.00    +0.005 C 
ATOM     24  C   UNL     1      32.150  -6.817 -20.741  0.00  0.00    +0.000 C 
ATOM     25  C   UNL     1      31.731  -4.660 -21.826  0.00  0.00    +0.003 C 
ATOM     26  C   UNL     1      31.399  -5.957 -24.273  0.00  0.00    +0.000 C 
ATOM     27  C   UNL     1      31.442  -3.922 -22.974  0.00  0.00    +0.031 C 
ATOM     28  C   UNL     1      31.276  -4.570 -24.195  0.00  0.00    +0.003 C 
BRANCH  27  31
ATOM     29  N   UNL     1      30.352  -1.793 -23.638  0.00  0.00    -0.343 N 
ATOM     30  N   UNL     1      32.121  -1.786 -22.112  0.00  0.00    -0.285 NA
ATOM     31  C   UNL     1      31.314  -2.476 -22.896  0.00  0.00    +0.117 C 
ATOM     32  H   UNL     1      30.282  -0.813 -23.569  0.00  0.00    +0.144 HD
ATOM     33  H   UNL     1      29.742  -2.289 -24.230  0.00  0.00    +0.144 HD
ATOM     34  H   UNL     1      32.036  -0.806 -22.057  0.00  0.00    +0.188 HD
ENDBRANCH  27  31
ENDBRANCH   3  19
TORSDOF 4
ENDMDL
