MODEL 1
REMARK VINA RESULT:     -11.1      0.000      0.000
REMARK  Name = 447546
REMARK  10 active torsions:
REMARK  status: ('A' for Active; 'I' for Inactive)
REMARK    1  A    between atoms: N_1  and  C_23
REMARK    2  A    between atoms: C_8  and  N_11
REMARK    3  A    between atoms: N_12  and  C_16
REMARK    4  A    between atoms: C_16  and  C_17
REMARK    5  A    between atoms: C_23  and  C_24
REMARK    6  A    between atoms: C_24  and  C_25
REMARK    7  A    between atoms: C_25  and  N_26
REMARK    8  A    between atoms: C_25  and  C_36
REMARK    9  A    between atoms: C_30  and  C_33
REMARK   10  A    between atoms: C_36  and  O_37
REMARK                            x       y       z     vdW  Elec       q    Type
REMARK                         _______ _______ _______ _____ _____    ______ ____
ROOT
ATOM      1  N   UNL     1      34.592 -23.886 -14.617  0.00  0.00    -0.286 N 
ATOM      2  C   UNL     1      35.496 -23.187 -15.384  0.00  0.00    +0.053 C 
ATOM      3  C   UNL     1      36.750 -23.349 -14.789  0.00  0.00    +0.015 C 
ATOM      4  C   UNL     1      35.229 -24.484 -13.562  0.00  0.00    +0.065 C 
ATOM      5  C   UNL     1      36.565 -24.169 -13.642  0.00  0.00    +0.017 C 
ATOM      6  C   UNL     1      35.303 -22.431 -16.546  0.00  0.00    +0.030 C 
ATOM      7  C   UNL     1      37.867 -22.726 -15.382  0.00  0.00    +0.003 C 
ATOM      8  C   UNL     1      36.426 -21.823 -17.115  0.00  0.00    +0.053 C 
ATOM      9  C   UNL     1      37.689 -21.968 -16.545  0.00  0.00    +0.015 C 
ENDROOT
BRANCH   8  11
ATOM     10  O   UNL     1      34.523 -22.137 -19.414  0.00  0.00    -0.252 OA
ATOM     11  N   UNL     1      36.277 -21.062 -18.276  0.00  0.00    -0.268 N 
ATOM     12  N   UNL     1      35.536 -20.265 -20.317  0.00  0.00    -0.285 N 
ATOM     13  C   UNL     1      35.365 -21.247 -19.334  0.00  0.00    +0.305 C 
ATOM     14  H   UNL     1      36.888 -20.295 -18.367  0.00  0.00    +0.156 HD
ATOM     15  H   UNL     1      36.233 -19.583 -20.182  0.00  0.00    +0.151 HD
BRANCH  12  16
ATOM     16  C   UNL     1      34.738 -20.206 -21.519  0.00  0.00    +0.118 C 
BRANCH  16  17
ATOM     17  C   UNL     1      34.810 -18.858 -22.176  0.00  0.00    -0.003 C 
ATOM     18  C   UNL     1      34.375 -18.697 -23.490  0.00  0.00    -0.003 C 
ATOM     19  C   UNL     1      35.312 -17.764 -21.470  0.00  0.00    -0.003 C 
ATOM     20  C   UNL     1      34.442 -17.445 -24.100  0.00  0.00    -0.000 C 
ATOM     21  C   UNL     1      35.379 -16.511 -22.079  0.00  0.00    -0.000 C 
ATOM     22  C   UNL     1      34.944 -16.352 -23.395  0.00  0.00    -0.000 C 
ENDBRANCH  16  17
ENDBRANCH  12  16
ENDBRANCH   8  11
BRANCH   1  23
ATOM     23  C   UNL     1      33.171 -23.985 -14.874  0.00  0.00    +0.097 C 
BRANCH  23  24
ATOM     24  C   UNL     1      32.340 -22.842 -14.275  0.00  0.00    +0.040 C 
BRANCH  24  25
ATOM     25  C   UNL     1      30.910 -23.231 -13.836  0.00  0.00    +0.091 C 
BRANCH  25  26
ATOM     26  N   UNL     1      29.882 -22.930 -14.848  0.00  0.00    -0.246 NA
ATOM     27  N   UNL     1      28.819 -22.600 -16.768  0.00  0.00    -0.251 NA
ATOM     28  C   UNL     1      28.574 -22.590 -14.610  0.00  0.00    +0.125 C 
ATOM     29  C   UNL     1      29.997 -22.928 -16.157  0.00  0.00    +0.201 C 
ATOM     30  C   UNL     1      27.894 -22.380 -15.787  0.00  0.00    +0.124 C 
BRANCH  30  33
ATOM     31  O   UNL     1      25.624 -22.196 -15.153  0.00  0.00    -0.269 OA
ATOM     32  N   UNL     1      26.198 -21.394 -17.207  0.00  0.00    -0.324 N 
ATOM     33  C   UNL     1      26.534 -22.013 -15.997  0.00  0.00    +0.257 C 
ATOM     34  H   UNL     1      25.267 -21.129 -17.383  0.00  0.00    +0.145 HD
ATOM     35  H   UNL     1      26.894 -21.224 -17.883  0.00  0.00    +0.145 HD
ENDBRANCH  30  33
ENDBRANCH  25  26
BRANCH  25  36
ATOM     36  C   UNL     1      30.852 -24.714 -13.436  0.00  0.00    +0.153 C 
BRANCH  36  37
ATOM     37  O   UNL     1      30.376 -24.831 -12.099  0.00  0.00    -0.381 OA
ATOM     38  H   UNL     1      29.715 -24.142 -11.931  0.00  0.00    +0.210 HD
ENDBRANCH  36  37
ENDBRANCH  25  36
ENDBRANCH  24  25
ENDBRANCH  23  24
ENDBRANCH   1  23
TORSDOF 10
ENDMDL
MODEL 2
REMARK VINA RESULT:     -11.0      1.509      2.101
REMARK  Name = 447546
REMARK  10 active torsions:
REMARK  status: ('A' for Active; 'I' for Inactive)
REMARK    1  A    between atoms: N_1  and  C_23
REMARK    2  A    between atoms: C_8  and  N_11
REMARK    3  A    between atoms: N_12  and  C_16
REMARK    4  A    between atoms: C_16  and  C_17
REMARK    5  A    between atoms: C_23  and  C_24
REMARK    6  A    between atoms: C_24  and  C_25
REMARK    7  A    between atoms: C_25  and  N_26
REMARK    8  A    between atoms: C_25  and  C_36
REMARK    9  A    between atoms: C_30  and  C_33
REMARK   10  A    between atoms: C_36  and  O_37
REMARK                            x       y       z     vdW  Elec       q    Type
REMARK                         _______ _______ _______ _____ _____    ______ ____
ROOT
ATOM      1  N   UNL     1      33.509 -23.215 -15.959  0.00  0.00    -0.286 N 
ATOM      2  C   UNL     1      34.323 -22.564 -16.860  0.00  0.00    +0.053 C 
ATOM      3  C   UNL     1      35.622 -22.614 -16.348  0.00  0.00    +0.015 C 
ATOM      4  C   UNL     1      34.246 -23.673 -14.900  0.00  0.00    +0.065 C 
ATOM      5  C   UNL     1      35.557 -23.316 -15.113  0.00  0.00    +0.017 C 
ATOM      6  C   UNL     1      34.012 -21.943 -18.074  0.00  0.00    +0.030 C 
ATOM      7  C   UNL     1      36.663 -22.013 -17.083  0.00  0.00    +0.003 C 
ATOM      8  C   UNL     1      35.062 -21.354 -18.786  0.00  0.00    +0.053 C 
ATOM      9  C   UNL     1      36.367 -21.389 -18.300  0.00  0.00    +0.015 C 
ENDROOT
BRANCH   8  11
ATOM     10  O   UNL     1      36.826 -19.661 -20.526  0.00  0.00    -0.252 OA
ATOM     11  N   UNL     1      34.795 -20.726 -20.003  0.00  0.00    -0.268 N 
ATOM     12  N   UNL     1      35.008 -19.488 -21.945  0.00  0.00    -0.285 N 
ATOM     13  C   UNL     1      35.658 -19.937 -20.790  0.00  0.00    +0.305 C 
ATOM     14  H   UNL     1      33.886 -20.851 -20.360  0.00  0.00    +0.156 HD
ATOM     15  H   UNL     1      34.071 -19.751 -22.088  0.00  0.00    +0.151 HD
BRANCH  12  16
ATOM     16  C   UNL     1      35.650 -18.657 -22.938  0.00  0.00    +0.118 C 
BRANCH  16  17
ATOM     17  C   UNL     1      35.110 -17.257 -22.933  0.00  0.00    -0.003 C 
ATOM     18  C   UNL     1      35.159 -16.493 -21.768  0.00  0.00    -0.003 C 
ATOM     19  C   UNL     1      34.558 -16.718 -24.097  0.00  0.00    -0.003 C 
ATOM     20  C   UNL     1      34.657 -15.192 -21.764  0.00  0.00    -0.000 C 
ATOM     21  C   UNL     1      34.056 -15.417 -24.093  0.00  0.00    -0.000 C 
ATOM     22  C   UNL     1      34.105 -14.654 -22.926  0.00  0.00    -0.000 C 
ENDBRANCH  16  17
ENDBRANCH  12  16
ENDBRANCH   8  11
BRANCH   1  23
ATOM     23  C   UNL     1      32.080 -23.396 -16.096  0.00  0.00    +0.097 C 
BRANCH  23  24
ATOM     24  C   UNL     1      31.256 -22.830 -14.931  0.00  0.00    +0.040 C 
BRANCH  24  25
ATOM     25  C   UNL     1      29.965 -23.611 -14.599  0.00  0.00    +0.091 C 
BRANCH  25  26
ATOM     26  N   UNL     1      28.906 -23.455 -15.611  0.00  0.00    -0.246 NA
ATOM     27  N   UNL     1      27.413 -23.845 -17.206  0.00  0.00    -0.251 NA
ATOM     28  C   UNL     1      28.249 -22.294 -15.936  0.00  0.00    +0.125 C 
ATOM     29  C   UNL     1      28.378 -24.369 -16.394  0.00  0.00    +0.201 C 
ATOM     30  C   UNL     1      27.317 -22.512 -16.924  0.00  0.00    +0.124 C 
BRANCH  30  33
ATOM     31  O   UNL     1      26.163 -20.456 -17.092  0.00  0.00    -0.269 OA
ATOM     32  N   UNL     1      25.827 -21.976 -18.756  0.00  0.00    -0.324 N 
ATOM     33  C   UNL     1      26.426 -21.594 -17.550  0.00  0.00    +0.257 C 
ATOM     34  H   UNL     1      25.206 -21.364 -19.213  0.00  0.00    +0.145 HD
ATOM     35  H   UNL     1      26.026 -22.858 -19.147  0.00  0.00    +0.145 HD
ENDBRANCH  30  33
ENDBRANCH  25  26
BRANCH  25  36
ATOM     36  C   UNL     1      30.277 -25.101 -14.375  0.00  0.00    +0.153 C 
BRANCH  36  37
ATOM     37  O   UNL     1      30.769 -25.293 -13.053  0.00  0.00    -0.381 OA
ATOM     38  H   UNL     1      30.134 -24.929 -12.417  0.00  0.00    +0.210 HD
ENDBRANCH  36  37
ENDBRANCH  25  36
ENDBRANCH  24  25
ENDBRANCH  23  24
ENDBRANCH   1  23
TORSDOF 10
ENDMDL
MODEL 3
REMARK VINA RESULT:     -10.8      1.780      2.815
REMARK  Name = 447546
REMARK  10 active torsions:
REMARK  status: ('A' for Active; 'I' for Inactive)
REMARK    1  A    between atoms: N_1  and  C_23
REMARK    2  A    between atoms: C_8  and  N_11
REMARK    3  A    between atoms: N_12  and  C_16
REMARK    4  A    between atoms: C_16  and  C_17
REMARK    5  A    between atoms: C_23  and  C_24
REMARK    6  A    between atoms: C_24  and  C_25
REMARK    7  A    between atoms: C_25  and  N_26
REMARK    8  A    between atoms: C_25  and  C_36
REMARK    9  A    between atoms: C_30  and  C_33
REMARK   10  A    between atoms: C_36  and  O_37
REMARK                            x       y       z     vdW  Elec       q    Type
REMARK                         _______ _______ _______ _____ _____    ______ ____
ROOT
ATOM      1  N   UNL     1      34.074 -22.620 -17.006  0.00  0.00    -0.286 N 
ATOM      2  C   UNL     1      34.698 -21.865 -17.972  0.00  0.00    +0.053 C 
ATOM      3  C   UNL     1      36.053 -21.805 -17.635  0.00  0.00    +0.015 C 
ATOM      4  C   UNL     1      34.984 -23.040 -16.073  0.00  0.00    +0.065 C 
ATOM      5  C   UNL     1      36.217 -22.552 -16.435  0.00  0.00    +0.017 C 
ATOM      6  C   UNL     1      34.174 -21.236 -19.107  0.00  0.00    +0.030 C 
ATOM      7  C   UNL     1      36.928 -21.083 -18.470  0.00  0.00    +0.003 C 
ATOM      8  C   UNL     1      35.062 -20.525 -19.920  0.00  0.00    +0.053 C 
ATOM      9  C   UNL     1      36.418 -20.450 -19.609  0.00  0.00    +0.015 C 
ENDROOT
BRANCH   8  11
ATOM     10  O   UNL     1      36.429 -18.640 -21.813  0.00  0.00    -0.252 OA
ATOM     11  N   UNL     1      34.580 -19.885 -21.063  0.00  0.00    -0.268 N 
ATOM     12  N   UNL     1      34.424 -18.576 -22.964  0.00  0.00    -0.285 N 
ATOM     13  C   UNL     1      35.261 -19.004 -21.927  0.00  0.00    +0.305 C 
ATOM     14  H   UNL     1      33.643 -20.075 -21.297  0.00  0.00    +0.156 HD
ATOM     15  H   UNL     1      33.499 -18.912 -22.988  0.00  0.00    +0.151 HD
BRANCH  12  16
ATOM     16  C   UNL     1      34.854 -17.666 -24.000  0.00  0.00    +0.118 C 
BRANCH  16  17
ATOM     17  C   UNL     1      34.482 -16.245 -23.689  0.00  0.00    -0.003 C 
ATOM     18  C   UNL     1      34.853 -15.677 -22.472  0.00  0.00    -0.003 C 
ATOM     19  C   UNL     1      33.765 -15.493 -24.621  0.00  0.00    -0.003 C 
ATOM     20  C   UNL     1      34.507 -14.356 -22.184  0.00  0.00    -0.000 C 
ATOM     21  C   UNL     1      33.419 -14.173 -24.333  0.00  0.00    -0.000 C 
ATOM     22  C   UNL     1      33.790 -13.605 -23.114  0.00  0.00    -0.000 C 
ENDBRANCH  16  17
ENDBRANCH  12  16
ENDBRANCH   8  11
BRANCH   1  23
ATOM     23  C   UNL     1      32.661 -22.934 -16.966  0.00  0.00    +0.097 C 
BRANCH  23  24
ATOM     24  C   UNL     1      32.257 -23.882 -15.828  0.00  0.00    +0.040 C 
BRANCH  24  25
ATOM     25  C   UNL     1      31.252 -23.294 -14.811  0.00  0.00    +0.091 C 
BRANCH  25  26
ATOM     26  N   UNL     1      29.848 -23.393 -15.246  0.00  0.00    -0.246 NA
ATOM     27  N   UNL     1      27.911 -24.143 -16.029  0.00  0.00    -0.251 NA
ATOM     28  C   UNL     1      28.908 -22.393 -15.213  0.00  0.00    +0.125 C 
ATOM     29  C   UNL     1      29.215 -24.433 -15.742  0.00  0.00    +0.201 C 
ATOM     30  C   UNL     1      27.698 -22.835 -15.694  0.00  0.00    +0.124 C 
BRANCH  30  33
ATOM     31  O   UNL     1      25.570 -22.116 -14.958  0.00  0.00    -0.269 OA
ATOM     32  N   UNL     1      26.255 -21.404 -17.011  0.00  0.00    -0.324 N 
ATOM     33  C   UNL     1      26.466 -22.134 -15.835  0.00  0.00    +0.257 C 
ATOM     34  H   UNL     1      25.415 -20.909 -17.140  0.00  0.00    +0.145 HD
ATOM     35  H   UNL     1      26.948 -21.387 -17.711  0.00  0.00    +0.145 HD
ENDBRANCH  30  33
ENDBRANCH  25  26
BRANCH  25  36
ATOM     36  C   UNL     1      31.434 -23.948 -13.431  0.00  0.00    +0.153 C 
BRANCH  36  37
ATOM     37  O   UNL     1      31.782 -22.955 -12.473  0.00  0.00    -0.381 OA
ATOM     38  H   UNL     1      31.719 -23.331 -11.581  0.00  0.00    +0.210 HD
ENDBRANCH  36  37
ENDBRANCH  25  36
ENDBRANCH  24  25
ENDBRANCH  23  24
ENDBRANCH   1  23
TORSDOF 10
ENDMDL
MODEL 4
REMARK VINA RESULT:     -10.8      3.067      6.854
REMARK  Name = 447546
REMARK  10 active torsions:
REMARK  status: ('A' for Active; 'I' for Inactive)
REMARK    1  A    between atoms: N_1  and  C_23
REMARK    2  A    between atoms: C_8  and  N_11
REMARK    3  A    between atoms: N_12  and  C_16
REMARK    4  A    between atoms: C_16  and  C_17
REMARK    5  A    between atoms: C_23  and  C_24
REMARK    6  A    between atoms: C_24  and  C_25
REMARK    7  A    between atoms: C_25  and  N_26
REMARK    8  A    between atoms: C_25  and  C_36
REMARK    9  A    between atoms: C_30  and  C_33
REMARK   10  A    between atoms: C_36  and  O_37
REMARK                            x       y       z     vdW  Elec       q    Type
REMARK                         _______ _______ _______ _____ _____    ______ ____
ROOT
ATOM      1  N   UNL     1      32.945 -24.411 -13.748  0.00  0.00    -0.286 N 
ATOM      2  C   UNL     1      32.338 -23.788 -14.815  0.00  0.00    +0.053 C 
ATOM      3  C   UNL     1      30.958 -23.921 -14.637  0.00  0.00    +0.015 C 
ATOM      4  C   UNL     1      32.000 -24.930 -12.904  0.00  0.00    +0.065 C 
ATOM      5  C   UNL     1      30.761 -24.643 -13.427  0.00  0.00    +0.017 C 
ATOM      6  C   UNL     1      32.898 -23.124 -15.912  0.00  0.00    +0.030 C 
ATOM      7  C   UNL     1      30.094 -23.365 -15.601  0.00  0.00    +0.003 C 
ATOM      8  C   UNL     1      32.020 -22.581 -16.855  0.00  0.00    +0.053 C 
ATOM      9  C   UNL     1      30.640 -22.698 -16.703  0.00  0.00    +0.015 C 
ENDROOT
BRANCH   8  11
ATOM     10  O   UNL     1      34.847 -22.327 -17.829  0.00  0.00    -0.252 OA
ATOM     11  N   UNL     1      32.537 -21.909 -17.964  0.00  0.00    -0.268 N 
ATOM     12  N   UNL     1      33.982 -21.048 -19.551  0.00  0.00    -0.285 N 
ATOM     13  C   UNL     1      33.878 -21.817 -18.386  0.00  0.00    +0.305 C 
ATOM     14  H   UNL     1      31.878 -21.439 -18.525  0.00  0.00    +0.156 HD
ATOM     15  H   UNL     1      33.161 -20.671 -19.939  0.00  0.00    +0.151 HD
BRANCH  12  16
ATOM     16  C   UNL     1      35.240 -20.784 -20.210  0.00  0.00    +0.118 C 
BRANCH  16  17
ATOM     17  C   UNL     1      35.154 -19.602 -21.132  0.00  0.00    -0.003 C 
ATOM     18  C   UNL     1      34.521 -19.725 -22.367  0.00  0.00    -0.003 C 
ATOM     19  C   UNL     1      35.707 -18.379 -20.751  0.00  0.00    -0.003 C 
ATOM     20  C   UNL     1      34.440 -18.627 -23.224  0.00  0.00    -0.000 C 
ATOM     21  C   UNL     1      35.627 -17.280 -21.607  0.00  0.00    -0.000 C 
ATOM     22  C   UNL     1      34.993 -17.405 -22.843  0.00  0.00    -0.000 C 
ENDBRANCH  16  17
ENDBRANCH  12  16
ENDBRANCH   8  11
BRANCH   1  23
ATOM     23  C   UNL     1      34.373 -24.512 -13.534  0.00  0.00    +0.097 C 
BRANCH  23  24
ATOM     24  C   UNL     1      34.859 -23.895 -12.215  0.00  0.00    +0.040 C 
BRANCH  24  25
ATOM     25  C   UNL     1      35.864 -24.757 -11.419  0.00  0.00    +0.091 C 
BRANCH  25  26
ATOM     26  N   UNL     1      37.201 -24.820 -12.033  0.00  0.00    -0.246 NA
ATOM     27  N   UNL     1      39.323 -24.429 -12.557  0.00  0.00    -0.251 NA
ATOM     28  C   UNL     1      37.617 -25.698 -13.003  0.00  0.00    +0.125 C 
ATOM     29  C   UNL     1      38.253 -24.070 -11.787  0.00  0.00    +0.201 C 
ATOM     30  C   UNL     1      38.930 -25.475 -13.344  0.00  0.00    +0.124 C 
BRANCH  30  33
ATOM     31  O   UNL     1      41.001 -26.170 -14.248  0.00  0.00    -0.269 OA
ATOM     32  N   UNL     1      39.114 -26.848 -15.331  0.00  0.00    -0.324 N 
ATOM     33  C   UNL     1      39.748 -26.150 -14.296  0.00  0.00    +0.257 C 
ATOM     34  H   UNL     1      39.650 -27.324 -16.005  0.00  0.00    +0.145 HD
ATOM     35  H   UNL     1      38.131 -26.862 -15.386  0.00  0.00    +0.145 HD
ENDBRANCH  30  33
ENDBRANCH  25  26
BRANCH  25  36
ATOM     36  C   UNL     1      35.964 -24.266  -9.964  0.00  0.00    +0.153 C 
BRANCH  36  37
ATOM     37  O   UNL     1      35.205 -25.121  -9.118  0.00  0.00    -0.381 OA
ATOM     38  H   UNL     1      35.362 -26.045  -9.367  0.00  0.00    +0.210 HD
ENDBRANCH  36  37
ENDBRANCH  25  36
ENDBRANCH  24  25
ENDBRANCH  23  24
ENDBRANCH   1  23
TORSDOF 10
ENDMDL
MODEL 5
REMARK VINA RESULT:     -10.7      7.913     13.195
REMARK  Name = 447546
REMARK  10 active torsions:
REMARK  status: ('A' for Active; 'I' for Inactive)
REMARK    1  A    between atoms: N_1  and  C_23
REMARK    2  A    between atoms: C_8  and  N_11
REMARK    3  A    between atoms: N_12  and  C_16
REMARK    4  A    between atoms: C_16  and  C_17
REMARK    5  A    between atoms: C_23  and  C_24
REMARK    6  A    between atoms: C_24  and  C_25
REMARK    7  A    between atoms: C_25  and  N_26
REMARK    8  A    between atoms: C_25  and  C_36
REMARK    9  A    between atoms: C_30  and  C_33
REMARK   10  A    between atoms: C_36  and  O_37
REMARK                            x       y       z     vdW  Elec       q    Type
REMARK                         _______ _______ _______ _____ _____    ______ ____
ROOT
ATOM      1  N   UNL     1      33.679 -11.818 -23.860  0.00  0.00    -0.286 N 
ATOM      2  C   UNL     1      33.942 -13.168 -23.804  0.00  0.00    +0.053 C 
ATOM      3  C   UNL     1      33.711 -13.684 -25.082  0.00  0.00    +0.015 C 
ATOM      4  C   UNL     1      33.293 -11.464 -25.125  0.00  0.00    +0.065 C 
ATOM      5  C   UNL     1      33.303 -12.597 -25.903  0.00  0.00    +0.017 C 
ATOM      6  C   UNL     1      34.361 -13.964 -22.732  0.00  0.00    +0.030 C 
ATOM      7  C   UNL     1      33.907 -15.062 -25.301  0.00  0.00    +0.003 C 
ATOM      8  C   UNL     1      34.549 -15.328 -22.975  0.00  0.00    +0.053 C 
ATOM      9  C   UNL     1      34.327 -15.870 -24.239  0.00  0.00    +0.015 C 
ENDROOT
BRANCH   8  11
ATOM     10  O   UNL     1      35.655 -18.117 -23.035  0.00  0.00    -0.252 OA
ATOM     11  N   UNL     1      34.969 -16.157 -21.933  0.00  0.00    -0.268 N 
ATOM     12  N   UNL     1      35.789 -17.955 -20.732  0.00  0.00    -0.285 N 
ATOM     13  C   UNL     1      35.485 -17.466 -22.008  0.00  0.00    +0.305 C 
ATOM     14  H   UNL     1      34.896 -15.776 -21.027  0.00  0.00    +0.156 HD
ATOM     15  H   UNL     1      35.626 -17.374 -19.956  0.00  0.00    +0.151 HD
BRANCH  12  16
ATOM     16  C   UNL     1      36.335 -19.273 -20.503  0.00  0.00    +0.118 C 
BRANCH  16  17
ATOM     17  C   UNL     1      35.317 -20.209 -19.918  0.00  0.00    -0.003 C 
ATOM     18  C   UNL     1      33.968 -20.062 -20.240  0.00  0.00    -0.003 C 
ATOM     19  C   UNL     1      35.721 -21.226 -19.053  0.00  0.00    -0.003 C 
ATOM     20  C   UNL     1      33.023 -20.932 -19.696  0.00  0.00    -0.000 C 
ATOM     21  C   UNL     1      34.775 -22.095 -18.509  0.00  0.00    -0.000 C 
ATOM     22  C   UNL     1      33.426 -21.948 -18.831  0.00  0.00    -0.000 C 
ENDBRANCH  16  17
ENDBRANCH  12  16
ENDBRANCH   8  11
BRANCH   1  23
ATOM     23  C   UNL     1      33.790 -10.893 -22.753  0.00  0.00    +0.097 C 
BRANCH  23  24
ATOM     24  C   UNL     1      32.541 -10.031 -22.523  0.00  0.00    +0.040 C 
BRANCH  24  25
ATOM     25  C   UNL     1      32.348  -9.529 -21.074  0.00  0.00    +0.091 C 
BRANCH  25  26
ATOM     26  N   UNL     1      32.105  -8.079 -20.981  0.00  0.00    -0.246 NA
ATOM     27  N   UNL     1      31.953  -5.990 -20.246  0.00  0.00    -0.251 NA
ATOM     28  C   UNL     1      31.626  -7.263 -21.975  0.00  0.00    +0.125 C 
ATOM     29  C   UNL     1      32.291  -7.281 -19.953  0.00  0.00    +0.201 C 
ATOM     30  C   UNL     1      31.524  -5.961 -21.543  0.00  0.00    +0.124 C 
BRANCH  30  33
ATOM     31  O   UNL     1      30.933  -4.756 -23.489  0.00  0.00    -0.269 OA
ATOM     32  N   UNL     1      30.762  -3.663 -21.497  0.00  0.00    -0.324 N 
ATOM     33  C   UNL     1      31.078  -4.804 -22.244  0.00  0.00    +0.257 C 
ATOM     34  H   UNL     1      30.452  -2.847 -21.951  0.00  0.00    +0.145 HD
ATOM     35  H   UNL     1      30.852  -3.676 -20.516  0.00  0.00    +0.145 HD
ENDBRANCH  30  33
ENDBRANCH  25  26
BRANCH  25  36
ATOM     36  C   UNL     1      31.220 -10.308 -20.377  0.00  0.00    +0.153 C 
BRANCH  36  37
ATOM     37  O   UNL     1      30.569 -11.153 -21.319  0.00  0.00    -0.381 OA
ATOM     38  H   UNL     1      29.835 -10.670 -21.732  0.00  0.00    +0.210 HD
ENDBRANCH  36  37
ENDBRANCH  25  36
ENDBRANCH  24  25
ENDBRANCH  23  24
ENDBRANCH   1  23
TORSDOF 10
ENDMDL
MODEL 6
REMARK VINA RESULT:     -10.5      2.875      9.319
REMARK  Name = 447546
REMARK  10 active torsions:
REMARK  status: ('A' for Active; 'I' for Inactive)
REMARK    1  A    between atoms: N_1  and  C_23
REMARK    2  A    between atoms: C_8  and  N_11
REMARK    3  A    between atoms: N_12  and  C_16
REMARK    4  A    between atoms: C_16  and  C_17
REMARK    5  A    between atoms: C_23  and  C_24
REMARK    6  A    between atoms: C_24  and  C_25
REMARK    7  A    between atoms: C_25  and  N_26
REMARK    8  A    between atoms: C_25  and  C_36
REMARK    9  A    between atoms: C_30  and  C_33
REMARK   10  A    between atoms: C_36  and  O_37
REMARK                            x       y       z     vdW  Elec       q    Type
REMARK                         _______ _______ _______ _____ _____    ______ ____
ROOT
ATOM      1  N   UNL     1      35.541 -21.399 -19.011  0.00  0.00    -0.286 N 
ATOM      2  C   UNL     1      34.977 -22.048 -17.936  0.00  0.00    +0.053 C 
ATOM      3  C   UNL     1      35.936 -22.066 -16.920  0.00  0.00    +0.015 C 
ATOM      4  C   UNL     1      36.818 -21.007 -18.711  0.00  0.00    +0.065 C 
ATOM      5  C   UNL     1      37.091 -21.406 -17.424  0.00  0.00    +0.017 C 
ATOM      6  C   UNL     1      33.706 -22.614 -17.786  0.00  0.00    +0.030 C 
ATOM      7  C   UNL     1      35.612 -22.680 -15.693  0.00  0.00    +0.003 C 
ATOM      8  C   UNL     1      33.408 -23.216 -16.560  0.00  0.00    +0.053 C 
ATOM      9  C   UNL     1      34.344 -23.249 -15.528  0.00  0.00    +0.015 C 
ENDROOT
BRANCH   8  11
ATOM     10  O   UNL     1      31.145 -22.386 -14.772  0.00  0.00    -0.252 OA
ATOM     11  N   UNL     1      32.150 -23.791 -16.368  0.00  0.00    -0.268 N 
ATOM     12  N   UNL     1      30.006 -24.215 -15.612  0.00  0.00    -0.285 N 
ATOM     13  C   UNL     1      31.113 -23.364 -15.514  0.00  0.00    +0.305 C 
ATOM     14  H   UNL     1      31.963 -24.598 -16.899  0.00  0.00    +0.156 HD
ATOM     15  H   UNL     1      30.056 -24.979 -16.229  0.00  0.00    +0.151 HD
BRANCH  12  16
ATOM     16  C   UNL     1      28.794 -24.022 -14.850  0.00  0.00    +0.118 C 
BRANCH  16  17
ATOM     17  C   UNL     1      27.807 -23.154 -15.575  0.00  0.00    -0.003 C 
ATOM     18  C   UNL     1      26.880 -22.401 -14.856  0.00  0.00    -0.003 C 
ATOM     19  C   UNL     1      27.818 -23.100 -16.969  0.00  0.00    -0.003 C 
ATOM     20  C   UNL     1      25.962 -21.595 -15.530  0.00  0.00    -0.000 C 
ATOM     21  C   UNL     1      26.901 -22.294 -17.643  0.00  0.00    -0.000 C 
ATOM     22  C   UNL     1      25.973 -21.541 -16.923  0.00  0.00    -0.000 C 
ENDBRANCH  16  17
ENDBRANCH  12  16
ENDBRANCH   8  11
BRANCH   1  23
ATOM     23  C   UNL     1      34.892 -21.158 -20.282  0.00  0.00    +0.097 C 
BRANCH  23  24
ATOM     24  C   UNL     1      34.708 -19.674 -20.627  0.00  0.00    +0.040 C 
BRANCH  24  25
ATOM     25  C   UNL     1      35.672 -19.126 -21.703  0.00  0.00    +0.091 C 
BRANCH  25  26
ATOM     26  N   UNL     1      35.005 -18.306 -22.729  0.00  0.00    -0.246 NA
ATOM     27  N   UNL     1      33.840 -17.648 -24.500  0.00  0.00    -0.251 NA
ATOM     28  C   UNL     1      34.979 -16.935 -22.793  0.00  0.00    +0.125 C 
ATOM     29  C   UNL     1      34.309 -18.704 -23.771  0.00  0.00    +0.201 C 
ATOM     30  C   UNL     1      34.261 -16.503 -23.884  0.00  0.00    +0.124 C 
BRANCH  30  33
ATOM     31  O   UNL     1      33.810 -14.861 -25.523  0.00  0.00    -0.269 OA
ATOM     32  N   UNL     1      33.885 -14.170 -23.353  0.00  0.00    -0.324 N 
ATOM     33  C   UNL     1      33.986 -15.176 -24.322  0.00  0.00    +0.257 C 
ATOM     34  H   UNL     1      33.697 -13.243 -23.623  0.00  0.00    +0.145 HD
ATOM     35  H   UNL     1      34.003 -14.391 -22.400  0.00  0.00    +0.145 HD
ENDBRANCH  30  33
ENDBRANCH  25  26
BRANCH  25  36
ATOM     36  C   UNL     1      36.821 -18.338 -21.050  0.00  0.00    +0.153 C 
BRANCH  36  37
ATOM     37  O   UNL     1      37.998 -18.466 -21.840  0.00  0.00    -0.381 OA
ATOM     38  H   UNL     1      38.337 -17.583 -22.058  0.00  0.00    +0.210 HD
ENDBRANCH  36  37
ENDBRANCH  25  36
ENDBRANCH  24  25
ENDBRANCH  23  24
ENDBRANCH   1  23
TORSDOF 10
ENDMDL
MODEL 7
REMARK VINA RESULT:     -10.5      4.000     10.203
REMARK  Name = 447546
REMARK  10 active torsions:
REMARK  status: ('A' for Active; 'I' for Inactive)
REMARK    1  A    between atoms: N_1  and  C_23
REMARK    2  A    between atoms: C_8  and  N_11
REMARK    3  A    between atoms: N_12  and  C_16
REMARK    4  A    between atoms: C_16  and  C_17
REMARK    5  A    between atoms: C_23  and  C_24
REMARK    6  A    between atoms: C_24  and  C_25
REMARK    7  A    between atoms: C_25  and  N_26
REMARK    8  A    between atoms: C_25  and  C_36
REMARK    9  A    between atoms: C_30  and  C_33
REMARK   10  A    between atoms: C_36  and  O_37
REMARK                            x       y       z     vdW  Elec       q    Type
REMARK                         _______ _______ _______ _____ _____    ______ ____
ROOT
ATOM      1  N   UNL     1      34.315 -20.895 -19.511  0.00  0.00    -0.286 N 
ATOM      2  C   UNL     1      34.506 -21.625 -18.359  0.00  0.00    +0.053 C 
ATOM      3  C   UNL     1      33.247 -22.058 -17.935  0.00  0.00    +0.015 C 
ATOM      4  C   UNL     1      32.983 -20.854 -19.829  0.00  0.00    +0.065 C 
ATOM      5  C   UNL     1      32.298 -21.565 -18.872  0.00  0.00    +0.017 C 
ATOM      6  C   UNL     1      35.684 -21.931 -17.668  0.00  0.00    +0.030 C 
ATOM      7  C   UNL     1      33.159 -22.835 -16.762  0.00  0.00    +0.003 C 
ATOM      8  C   UNL     1      35.570 -22.703 -16.508  0.00  0.00    +0.053 C 
ATOM      9  C   UNL     1      34.328 -23.150 -16.061  0.00  0.00    +0.015 C 
ENDROOT
BRANCH   8  11
ATOM     10  O   UNL     1      35.937 -24.536 -14.160  0.00  0.00    -0.252 OA
ATOM     11  N   UNL     1      36.720 -23.032 -15.790  0.00  0.00    -0.268 N 
ATOM     12  N   UNL     1      38.176 -23.963 -14.252  0.00  0.00    -0.285 N 
ATOM     13  C   UNL     1      36.847 -23.903 -14.689  0.00  0.00    +0.305 C 
ATOM     14  H   UNL     1      37.552 -22.601 -16.093  0.00  0.00    +0.156 HD
ATOM     15  H   UNL     1      38.850 -23.427 -14.727  0.00  0.00    +0.151 HD
BRANCH  12  16
ATOM     16  C   UNL     1      38.602 -24.778 -13.138  0.00  0.00    +0.118 C 
BRANCH  16  17
ATOM     17  C   UNL     1      39.057 -26.139 -13.578  0.00  0.00    -0.003 C 
ATOM     18  C   UNL     1      38.295 -27.264 -13.268  0.00  0.00    -0.003 C 
ATOM     19  C   UNL     1      40.244 -26.278 -14.300  0.00  0.00    -0.003 C 
ATOM     20  C   UNL     1      38.719 -28.528 -13.678  0.00  0.00    -0.000 C 
ATOM     21  C   UNL     1      40.667 -27.542 -14.709  0.00  0.00    -0.000 C 
ATOM     22  C   UNL     1      39.904 -28.667 -14.398  0.00  0.00    -0.000 C 
ENDBRANCH  16  17
ENDBRANCH  12  16
ENDBRANCH   8  11
BRANCH   1  23
ATOM     23  C   UNL     1      35.358 -20.258 -20.286  0.00  0.00    +0.097 C 
BRANCH  23  24
ATOM     24  C   UNL     1      34.891 -19.706 -21.640  0.00  0.00    +0.040 C 
BRANCH  24  25
ATOM     25  C   UNL     1      35.873 -18.727 -22.323  0.00  0.00    +0.091 C 
BRANCH  25  26
ATOM     26  N   UNL     1      35.204 -17.651 -23.075  0.00  0.00    -0.246 NA
ATOM     27  N   UNL     1      34.116 -16.502 -24.631  0.00  0.00    -0.251 NA
ATOM     28  C   UNL     1      35.039 -16.350 -22.671  0.00  0.00    +0.125 C 
ATOM     29  C   UNL     1      34.636 -17.710 -24.259  0.00  0.00    +0.201 C 
ATOM     30  C   UNL     1      34.366 -15.617 -23.621  0.00  0.00    +0.124 C 
BRANCH  30  33
ATOM     31  O   UNL     1      34.409 -13.413 -22.769  0.00  0.00    -0.269 OA
ATOM     32  N   UNL     1      33.114 -13.793 -24.605  0.00  0.00    -0.324 N 
ATOM     33  C   UNL     1      33.988 -14.244 -23.608  0.00  0.00    +0.257 C 
ATOM     34  H   UNL     1      32.834 -12.850 -24.624  0.00  0.00    +0.145 HD
ATOM     35  H   UNL     1      32.779 -14.420 -25.287  0.00  0.00    +0.145 HD
ENDBRANCH  30  33
ENDBRANCH  25  26
BRANCH  25  36
ATOM     36  C   UNL     1      36.850 -18.135 -21.294  0.00  0.00    +0.153 C 
BRANCH  36  37
ATOM     37  O   UNL     1      38.189 -18.367 -21.716  0.00  0.00    -0.381 OA
ATOM     38  H   UNL     1      38.798 -18.144 -20.995  0.00  0.00    +0.210 HD
ENDBRANCH  36  37
ENDBRANCH  25  36
ENDBRANCH  24  25
ENDBRANCH  23  24
ENDBRANCH   1  23
TORSDOF 10
ENDMDL
MODEL 8
REMARK VINA RESULT:     -10.4      6.480     11.172
REMARK  Name = 447546
REMARK  10 active torsions:
REMARK  status: ('A' for Active; 'I' for Inactive)
REMARK    1  A    between atoms: N_1  and  C_23
REMARK    2  A    between atoms: C_8  and  N_11
REMARK    3  A    between atoms: N_12  and  C_16
REMARK    4  A    between atoms: C_16  and  C_17
REMARK    5  A    between atoms: C_23  and  C_24
REMARK    6  A    between atoms: C_24  and  C_25
REMARK    7  A    between atoms: C_25  and  N_26
REMARK    8  A    between atoms: C_25  and  C_36
REMARK    9  A    between atoms: C_30  and  C_33
REMARK   10  A    between atoms: C_36  and  O_37
REMARK                            x       y       z     vdW  Elec       q    Type
REMARK                         _______ _______ _______ _____ _____    ______ ____
ROOT
ATOM      1  N   UNL     1      34.784 -16.180 -22.725  0.00  0.00    -0.286 N 
ATOM      2  C   UNL     1      34.391 -14.990 -23.295  0.00  0.00    +0.053 C 
ATOM      3  C   UNL     1      33.917 -15.285 -24.575  0.00  0.00    +0.015 C 
ATOM      4  C   UNL     1      34.573 -17.214 -23.598  0.00  0.00    +0.065 C 
ATOM      5  C   UNL     1      34.037 -16.691 -24.751  0.00  0.00    +0.017 C 
ATOM      6  C   UNL     1      34.420 -13.688 -22.781  0.00  0.00    +0.030 C 
ATOM      7  C   UNL     1      33.448 -14.230 -25.384  0.00  0.00    +0.003 C 
ATOM      8  C   UNL     1      33.949 -12.659 -23.601  0.00  0.00    +0.053 C 
ATOM      9  C   UNL     1      33.469 -12.924 -24.882  0.00  0.00    +0.015 C 
ENDROOT
BRANCH   8  11
ATOM     10  O   UNL     1      34.997 -10.144 -24.859  0.00  0.00    -0.252 OA
ATOM     11  N   UNL     1      33.958 -11.347 -23.126  0.00  0.00    -0.268 N 
ATOM     12  N   UNL     1      34.279  -9.064 -22.944  0.00  0.00    -0.285 N 
ATOM     13  C   UNL     1      34.462 -10.191 -23.754  0.00  0.00    +0.305 C 
ATOM     14  H   UNL     1      33.558 -11.211 -22.236  0.00  0.00    +0.156 HD
ATOM     15  H   UNL     1      33.842  -9.180 -22.071  0.00  0.00    +0.151 HD
BRANCH  12  16
ATOM     16  C   UNL     1      34.700  -7.738 -23.333  0.00  0.00    +0.118 C 
BRANCH  16  17
ATOM     17  C   UNL     1      33.767  -6.679 -22.820  0.00  0.00    -0.003 C 
ATOM     18  C   UNL     1      33.168  -6.823 -21.570  0.00  0.00    -0.003 C 
ATOM     19  C   UNL     1      33.502  -5.549 -23.595  0.00  0.00    -0.003 C 
ATOM     20  C   UNL     1      32.301  -5.839 -21.095  0.00  0.00    -0.000 C 
ATOM     21  C   UNL     1      32.635  -4.566 -23.120  0.00  0.00    -0.000 C 
ATOM     22  C   UNL     1      32.035  -4.711 -21.869  0.00  0.00    -0.000 C 
ENDBRANCH  16  17
ENDBRANCH  12  16
ENDBRANCH   8  11
BRANCH   1  23
ATOM     23  C   UNL     1      35.340 -16.334 -21.398  0.00  0.00    +0.097 C 
BRANCH  23  24
ATOM     24  C   UNL     1      35.022 -17.680 -20.732  0.00  0.00    +0.040 C 
BRANCH  24  25
ATOM     25  C   UNL     1      36.234 -18.620 -20.540  0.00  0.00    +0.091 C 
BRANCH  25  26
ATOM     26  N   UNL     1      35.892 -19.898 -19.893  0.00  0.00    -0.246 NA
ATOM     27  N   UNL     1      36.000 -21.817 -18.782  0.00  0.00    -0.251 NA
ATOM     28  C   UNL     1      34.650 -20.479 -19.834  0.00  0.00    +0.125 C 
ATOM     29  C   UNL     1      36.682 -20.729 -19.250  0.00  0.00    +0.201 C 
ATOM     30  C   UNL     1      34.692 -21.672 -19.149  0.00  0.00    +0.124 C 
BRANCH  30  33
ATOM     31  O   UNL     1      33.707 -23.820 -19.092  0.00  0.00    -0.269 OA
ATOM     32  N   UNL     1      32.481 -22.091 -18.256  0.00  0.00    -0.324 N 
ATOM     33  C   UNL     1      33.642 -22.589 -18.858  0.00  0.00    +0.257 C 
ATOM     34  H   UNL     1      31.737 -22.698 -18.042  0.00  0.00    +0.145 HD
ATOM     35  H   UNL     1      32.408 -21.131 -18.046  0.00  0.00    +0.145 HD
ENDBRANCH  30  33
ENDBRANCH  25  26
BRANCH  25  36
ATOM     36  C   UNL     1      36.942 -18.870 -21.883  0.00  0.00    +0.153 C 
BRANCH  36  37
ATOM     37  O   UNL     1      38.262 -18.340 -21.834  0.00  0.00    -0.381 OA
ATOM     38  H   UNL     1      38.412 -17.928 -20.969  0.00  0.00    +0.210 HD
ENDBRANCH  36  37
ENDBRANCH  25  36
ENDBRANCH  24  25
ENDBRANCH  23  24
ENDBRANCH   1  23
TORSDOF 10
ENDMDL
MODEL 9
REMARK VINA RESULT:     -10.3     10.488     15.432
REMARK  Name = 447546
REMARK  10 active torsions:
REMARK  status: ('A' for Active; 'I' for Inactive)
REMARK    1  A    between atoms: N_1  and  C_23
REMARK    2  A    between atoms: C_8  and  N_11
REMARK    3  A    between atoms: N_12  and  C_16
REMARK    4  A    between atoms: C_16  and  C_17
REMARK    5  A    between atoms: C_23  and  C_24
REMARK    6  A    between atoms: C_24  and  C_25
REMARK    7  A    between atoms: C_25  and  N_26
REMARK    8  A    between atoms: C_25  and  C_36
REMARK    9  A    between atoms: C_30  and  C_33
REMARK   10  A    between atoms: C_36  and  O_37
REMARK                            x       y       z     vdW  Elec       q    Type
REMARK                         _______ _______ _______ _____ _____    ______ ____
ROOT
ATOM      1  N   UNL     1      31.774 -10.159 -20.884  0.00  0.00    -0.286 N 
ATOM      2  C   UNL     1      32.091  -8.820 -20.937  0.00  0.00    +0.053 C 
ATOM      3  C   UNL     1      32.145  -8.359 -19.619  0.00  0.00    +0.015 C 
ATOM      4  C   UNL     1      31.628 -10.559 -19.583  0.00  0.00    +0.065 C 
ATOM      5  C   UNL     1      31.851  -9.467 -18.777  0.00  0.00    +0.017 C 
ATOM      6  C   UNL     1      32.331  -7.990 -22.039  0.00  0.00    +0.030 C 
ATOM      7  C   UNL     1      32.454  -7.004 -19.388  0.00  0.00    +0.003 C 
ATOM      8  C   UNL     1      32.636  -6.650 -21.783  0.00  0.00    +0.053 C 
ATOM      9  C   UNL     1      32.698  -6.163 -20.479  0.00  0.00    +0.015 C 
ENDROOT
BRANCH   8  11
ATOM     10  O   UNL     1      30.849  -4.643 -23.120  0.00  0.00    -0.252 OA
ATOM     11  N   UNL     1      32.885  -5.789 -22.853  0.00  0.00    -0.268 N 
ATOM     12  N   UNL     1      32.645  -4.185 -24.502  0.00  0.00    -0.285 N 
ATOM     13  C   UNL     1      32.012  -4.858 -23.451  0.00  0.00    +0.305 C 
ATOM     14  H   UNL     1      33.789  -5.838 -23.241  0.00  0.00    +0.156 HD
ATOM     15  H   UNL     1      33.579  -4.412 -24.708  0.00  0.00    +0.151 HD
BRANCH  12  16
ATOM     16  C   UNL     1      31.989  -3.172 -25.297  0.00  0.00    +0.118 C 
BRANCH  16  17
ATOM     17  C   UNL     1      32.478  -3.168 -26.716  0.00  0.00    -0.003 C 
ATOM     18  C   UNL     1      33.465  -4.067 -27.117  0.00  0.00    -0.003 C 
ATOM     19  C   UNL     1      31.943  -2.265 -27.636  0.00  0.00    -0.003 C 
ATOM     20  C   UNL     1      33.918  -4.064 -28.436  0.00  0.00    -0.000 C 
ATOM     21  C   UNL     1      32.397  -2.261 -28.954  0.00  0.00    -0.000 C 
ATOM     22  C   UNL     1      33.384  -3.161 -29.355  0.00  0.00    -0.000 C 
ENDBRANCH  16  17
ENDBRANCH  12  16
ENDBRANCH   8  11
BRANCH   1  23
ATOM     23  C   UNL     1      31.614 -11.031 -22.028  0.00  0.00    +0.097 C 
BRANCH  23  24
ATOM     24  C   UNL     1      32.432 -12.328 -21.953  0.00  0.00    +0.040 C 
BRANCH  24  25
ATOM     25  C   UNL     1      33.679 -12.371 -22.865  0.00  0.00    +0.091 C 
BRANCH  25  26
ATOM     26  N   UNL     1      33.826 -13.639 -23.600  0.00  0.00    -0.246 NA
ATOM     27  N   UNL     1      33.828 -15.190 -25.188  0.00  0.00    -0.251 NA
ATOM     28  C   UNL     1      34.281 -14.831 -23.094  0.00  0.00    +0.125 C 
ATOM     29  C   UNL     1      33.562 -13.890 -24.863  0.00  0.00    +0.201 C 
ATOM     30  C   UNL     1      34.292 -15.809 -24.062  0.00  0.00    +0.124 C 
BRANCH  30  33
ATOM     31  O   UNL     1      34.218 -18.086 -24.691  0.00  0.00    -0.269 OA
ATOM     32  N   UNL     1      35.667 -17.514 -23.028  0.00  0.00    -0.324 N 
ATOM     33  C   UNL     1      34.686 -17.175 -23.967  0.00  0.00    +0.257 C 
ATOM     34  H   UNL     1      35.961 -18.448 -22.938  0.00  0.00    +0.145 HD
ATOM     35  H   UNL     1      36.063 -16.816 -22.456  0.00  0.00    +0.145 HD
ENDBRANCH  30  33
ENDBRANCH  25  26
BRANCH  25  36
ATOM     36  C   UNL     1      33.676 -11.182 -23.841  0.00  0.00    +0.153 C 
BRANCH  36  37
ATOM     37  O   UNL     1      34.867 -10.421 -23.671  0.00  0.00    -0.381 OA
ATOM     38  H   UNL     1      35.389 -10.798 -22.946  0.00  0.00    +0.210 HD
ENDBRANCH  36  37
ENDBRANCH  25  36
ENDBRANCH  24  25
ENDBRANCH  23  24
ENDBRANCH   1  23
TORSDOF 10
ENDMDL
