MODEL 1
REMARK VINA RESULT:     -11.4      0.000      0.000
REMARK  Name = 24941248
REMARK  7 active torsions:
REMARK  status: ('A' for Active; 'I' for Inactive)
REMARK    1  A    between atoms: N_2  and  C_24
REMARK    2  A    between atoms: C_6  and  C_14
REMARK    3  A    between atoms: C_13  and  C_19
REMARK    4  A    between atoms: C_19  and  C_20
REMARK    5  A    between atoms: C_20  and  C_21
REMARK    6  A    between atoms: C_21  and  O_22
REMARK    7  A    between atoms: C_24  and  C_26
REMARK                            x       y       z     vdW  Elec       q    Type
REMARK                         _______ _______ _______ _____ _____    ______ ____
ROOT
ATOM      1  O   UNL     1      33.856 -15.803 -25.589  0.00  0.00    -0.352 OA
ATOM      2  N   UNL     1      35.771 -17.640 -20.852  0.00  0.00    -0.316 N 
ATOM      3  N   UNL     1      33.478 -14.499 -25.290  0.00  0.00    -0.077 NA
ATOM      4  N   UNL     1      35.311 -18.081 -23.147  0.00  0.00    -0.226 NA
ATOM      5  C   UNL     1      34.329 -15.492 -23.420  0.00  0.00    +0.062 A 
ATOM      6  C   UNL     1      33.767 -14.335 -23.995  0.00  0.00    +0.123 A 
ATOM      7  C   UNL     1      35.281 -17.203 -22.110  0.00  0.00    +0.129 C 
ATOM      8  C   UNL     1      34.805 -15.896 -22.172  0.00  0.00    +0.039 C 
ATOM      9  C   UNL     1      34.361 -16.391 -24.472  0.00  0.00    +0.196 A 
ATOM     10  C   UNL     1      34.846 -17.680 -24.355  0.00  0.00    +0.140 C 
ATOM     11  H   UNL     1      35.755 -17.011 -20.093  0.00  0.00    +0.148 HD
ENDROOT
BRANCH   6  14
ATOM     12 CL   UNL     1      34.443  -9.226 -23.862  0.00  0.00    -0.082 Cl
ATOM     13  C   UNL     1      32.447 -11.825 -21.569  0.00  0.00    -0.021 C 
ATOM     14  C   UNL     1      33.501 -13.079 -23.344  0.00  0.00    +0.021 C 
ATOM     15  C   UNL     1      32.706 -13.042 -22.200  0.00  0.00    -0.003 C 
ATOM     16  C   UNL     1      32.984 -10.645 -22.084  0.00  0.00    +0.007 C 
ATOM     17  C   UNL     1      34.039 -11.899 -23.859  0.00  0.00    +0.013 C 
ATOM     18  C   UNL     1      33.780 -10.682 -23.228  0.00  0.00    +0.057 C 
BRANCH  13  19
ATOM     19  C   UNL     1      31.595 -11.785 -20.346  0.00  0.00    +0.029 C 
BRANCH  19  20
ATOM     20  C   UNL     1      31.275 -10.350 -19.907  0.00  0.00    +0.036 C 
BRANCH  20  21
ATOM     21  C   UNL     1      31.958  -9.985 -18.597  0.00  0.00    +0.138 C 
BRANCH  21  22
ATOM     22  O   UNL     1      32.707  -8.792 -18.786  0.00  0.00    -0.382 OA
ATOM     23  H   UNL     1      33.451  -8.776 -18.165  0.00  0.00    +0.210 HD
ENDBRANCH  21  22
ENDBRANCH  20  21
ENDBRANCH  19  20
ENDBRANCH  13  19
ENDBRANCH   6  14
BRANCH   2  24
ATOM     24  C   UNL     1      36.286 -18.952 -20.641  0.00  0.00    +0.093 C 
ATOM     25  C   UNL     1      37.483 -18.883 -19.696  0.00  0.00    +0.026 C 
BRANCH  24  26
ATOM     26  C   UNL     1      35.191 -19.870 -20.142  0.00  0.00    -0.005 C 
ATOM     27  C   UNL     1      35.506 -20.945 -19.313  0.00  0.00    -0.003 C 
ATOM     28  C   UNL     1      33.866 -19.639 -20.511  0.00  0.00    -0.003 C 
ATOM     29  C   UNL     1      34.497 -21.792 -18.854  0.00  0.00    -0.000 C 
ATOM     30  C   UNL     1      32.857 -20.485 -20.053  0.00  0.00    -0.000 C 
ATOM     31  C   UNL     1      33.172 -21.561 -19.223  0.00  0.00    -0.000 C 
ENDBRANCH  24  26
ENDBRANCH   2  24
TORSDOF 7
ENDMDL
MODEL 2
REMARK VINA RESULT:     -11.0      1.541      2.309
REMARK  Name = 24941248
REMARK  7 active torsions:
REMARK  status: ('A' for Active; 'I' for Inactive)
REMARK    1  A    between atoms: N_2  and  C_24
REMARK    2  A    between atoms: C_6  and  C_14
REMARK    3  A    between atoms: C_13  and  C_19
REMARK    4  A    between atoms: C_19  and  C_20
REMARK    5  A    between atoms: C_20  and  C_21
REMARK    6  A    between atoms: C_21  and  O_22
REMARK    7  A    between atoms: C_24  and  C_26
REMARK                            x       y       z     vdW  Elec       q    Type
REMARK                         _______ _______ _______ _____ _____    ______ ____
ROOT
ATOM      1  O   UNL     1      33.859 -15.470 -25.576  0.00  0.00    -0.352 OA
ATOM      2  N   UNL     1      35.666 -17.538 -20.893  0.00  0.00    -0.316 N 
ATOM      3  N   UNL     1      33.420 -14.203 -25.212  0.00  0.00    -0.077 NA
ATOM      4  N   UNL     1      35.309 -17.846 -23.227  0.00  0.00    -0.226 NA
ATOM      5  C   UNL     1      34.238 -15.283 -23.375  0.00  0.00    +0.062 A 
ATOM      6  C   UNL     1      33.654 -14.112 -23.898  0.00  0.00    +0.123 A 
ATOM      7  C   UNL     1      35.206 -17.039 -22.140  0.00  0.00    +0.129 C 
ATOM      8  C   UNL     1      34.683 -15.749 -22.137  0.00  0.00    +0.039 C 
ATOM      9  C   UNL     1      34.345 -16.110 -24.480  0.00  0.00    +0.196 A 
ATOM     10  C   UNL     1      34.875 -17.385 -24.425  0.00  0.00    +0.140 C 
ATOM     11  H   UNL     1      35.597 -16.961 -20.097  0.00  0.00    +0.148 HD
ENDROOT
BRANCH   6  14
ATOM     12 CL   UNL     1      31.805 -11.934 -19.607  0.00  0.00    -0.082 Cl
ATOM     13  C   UNL     1      33.187 -10.502 -23.077  0.00  0.00    -0.021 C 
ATOM     14  C   UNL     1      33.314 -12.912 -23.180  0.00  0.00    +0.021 C 
ATOM     15  C   UNL     1      33.514 -11.665 -23.773  0.00  0.00    -0.003 C 
ATOM     16  C   UNL     1      32.658 -10.585 -21.789  0.00  0.00    +0.007 C 
ATOM     17  C   UNL     1      32.786 -12.995 -21.892  0.00  0.00    +0.013 C 
ATOM     18  C   UNL     1      32.458 -11.832 -21.196  0.00  0.00    +0.057 C 
BRANCH  13  19
ATOM     19  C   UNL     1      33.402  -9.168 -23.709  0.00  0.00    +0.029 C 
BRANCH  19  20
ATOM     20  C   UNL     1      34.831  -8.650 -23.502  0.00  0.00    +0.036 C 
BRANCH  20  21
ATOM     21  C   UNL     1      34.853  -7.252 -22.903  0.00  0.00    +0.138 C 
BRANCH  21  22
ATOM     22  O   UNL     1      33.894  -7.186 -21.855  0.00  0.00    -0.382 OA
ATOM     23  H   UNL     1      33.943  -6.317 -21.428  0.00  0.00    +0.210 HD
ENDBRANCH  21  22
ENDBRANCH  20  21
ENDBRANCH  19  20
ENDBRANCH  13  19
ENDBRANCH   6  14
BRANCH   2  24
ATOM     24  C   UNL     1      36.224 -18.841 -20.745  0.00  0.00    +0.093 C 
ATOM     25  C   UNL     1      37.463 -18.767 -19.856  0.00  0.00    +0.026 C 
BRANCH  24  26
ATOM     26  C   UNL     1      35.178 -19.801 -20.222  0.00  0.00    -0.005 C 
ATOM     27  C   UNL     1      35.556 -20.872 -19.413  0.00  0.00    -0.003 C 
ATOM     28  C   UNL     1      33.834 -19.615 -20.548  0.00  0.00    -0.003 C 
ATOM     29  C   UNL     1      34.592 -21.758 -18.931  0.00  0.00    -0.000 C 
ATOM     30  C   UNL     1      32.870 -20.500 -20.066  0.00  0.00    -0.000 C 
ATOM     31  C   UNL     1      33.249 -21.571 -19.257  0.00  0.00    -0.000 C 
ENDBRANCH  24  26
ENDBRANCH   2  24
TORSDOF 7
ENDMDL
MODEL 3
REMARK VINA RESULT:     -10.6      1.634      2.465
REMARK  Name = 24941248
REMARK  7 active torsions:
REMARK  status: ('A' for Active; 'I' for Inactive)
REMARK    1  A    between atoms: N_2  and  C_24
REMARK    2  A    between atoms: C_6  and  C_14
REMARK    3  A    between atoms: C_13  and  C_19
REMARK    4  A    between atoms: C_19  and  C_20
REMARK    5  A    between atoms: C_20  and  C_21
REMARK    6  A    between atoms: C_21  and  O_22
REMARK    7  A    between atoms: C_24  and  C_26
REMARK                            x       y       z     vdW  Elec       q    Type
REMARK                         _______ _______ _______ _____ _____    ______ ____
ROOT
ATOM      1  O   UNL     1      34.061 -16.272 -25.458  0.00  0.00    -0.352 OA
ATOM      2  N   UNL     1      35.867 -17.935 -20.616  0.00  0.00    -0.316 N 
ATOM      3  N   UNL     1      33.647 -14.969 -25.208  0.00  0.00    -0.077 NA
ATOM      4  N   UNL     1      35.487 -18.449 -22.909  0.00  0.00    -0.226 NA
ATOM      5  C   UNL     1      34.460 -15.891 -23.286  0.00  0.00    +0.062 A 
ATOM      6  C   UNL     1      33.893 -14.763 -23.910  0.00  0.00    +0.123 A 
ATOM      7  C   UNL     1      35.407 -17.544 -21.900  0.00  0.00    +0.129 C 
ATOM      8  C   UNL     1      34.907 -16.250 -22.013  0.00  0.00    +0.039 C 
ATOM      9  C   UNL     1      34.544 -16.818 -24.310  0.00  0.00    +0.196 A 
ATOM     10  C   UNL     1      35.052 -18.092 -24.142  0.00  0.00    +0.140 C 
ATOM     11  H   UNL     1      35.815 -17.286 -19.876  0.00  0.00    +0.148 HD
ENDROOT
BRANCH   6  14
ATOM     12 CL   UNL     1      31.910 -12.173 -19.918  0.00  0.00    -0.082 Cl
ATOM     13  C   UNL     1      33.591 -11.081 -23.379  0.00  0.00    -0.021 C 
ATOM     14  C   UNL     1      33.581 -13.495 -23.303  0.00  0.00    +0.021 C 
ATOM     15  C   UNL     1      33.892 -12.309 -23.968  0.00  0.00    -0.003 C 
ATOM     16  C   UNL     1      32.977 -11.039 -22.127  0.00  0.00    +0.007 C 
ATOM     17  C   UNL     1      32.968 -13.453 -22.051  0.00  0.00    +0.013 C 
ATOM     18  C   UNL     1      32.667 -12.225 -21.463  0.00  0.00    +0.057 C 
BRANCH  13  19
ATOM     19  C   UNL     1      33.924  -9.812 -24.089  0.00  0.00    +0.029 C 
BRANCH  19  20
ATOM     20  C   UNL     1      33.531  -8.571 -23.276  0.00  0.00    +0.036 C 
BRANCH  20  21
ATOM     21  C   UNL     1      34.684  -7.589 -23.135  0.00  0.00    +0.138 C 
BRANCH  21  22
ATOM     22  O   UNL     1      34.417  -6.720 -22.043  0.00  0.00    -0.382 OA
ATOM     23  H   UNL     1      34.139  -5.854 -22.380  0.00  0.00    +0.210 HD
ENDBRANCH  21  22
ENDBRANCH  20  21
ENDBRANCH  19  20
ENDBRANCH  13  19
ENDBRANCH   6  14
BRANCH   2  24
ATOM     24  C   UNL     1      36.403 -19.230 -20.352  0.00  0.00    +0.093 C 
ATOM     25  C   UNL     1      37.563 -19.110 -19.367  0.00  0.00    +0.026 C 
BRANCH  24  26
ATOM     26  C   UNL     1      35.311 -20.159 -19.868  0.00  0.00    -0.005 C 
ATOM     27  C   UNL     1      33.993 -19.957 -20.275  0.00  0.00    -0.003 C 
ATOM     28  C   UNL     1      35.623 -21.218 -19.015  0.00  0.00    -0.003 C 
ATOM     29  C   UNL     1      32.985 -20.814 -19.828  0.00  0.00    -0.000 C 
ATOM     30  C   UNL     1      34.617 -22.074 -18.569  0.00  0.00    -0.000 C 
ATOM     31  C   UNL     1      33.298 -21.872 -18.976  0.00  0.00    -0.000 C 
ENDBRANCH  24  26
ENDBRANCH   2  24
TORSDOF 7
ENDMDL
MODEL 4
REMARK VINA RESULT:     -10.4      7.352     12.661
REMARK  Name = 24941248
REMARK  7 active torsions:
REMARK  status: ('A' for Active; 'I' for Inactive)
REMARK    1  A    between atoms: N_2  and  C_24
REMARK    2  A    between atoms: C_6  and  C_14
REMARK    3  A    between atoms: C_13  and  C_19
REMARK    4  A    between atoms: C_19  and  C_20
REMARK    5  A    between atoms: C_20  and  C_21
REMARK    6  A    between atoms: C_21  and  O_22
REMARK    7  A    between atoms: C_24  and  C_26
REMARK                            x       y       z     vdW  Elec       q    Type
REMARK                         _______ _______ _______ _____ _____    ______ ____
ROOT
ATOM      1  O   UNL     1      31.916 -23.919 -14.688  0.00  0.00    -0.352 OA
ATOM      2  N   UNL     1      34.554 -21.645 -18.853  0.00  0.00    -0.316 N 
ATOM      3  N   UNL     1      32.946 -24.319 -13.846  0.00  0.00    -0.077 NA
ATOM      4  N   UNL     1      32.466 -22.236 -17.871  0.00  0.00    -0.226 NA
ATOM      5  C   UNL     1      33.824 -23.319 -15.699  0.00  0.00    +0.062 A 
ATOM      6  C   UNL     1      34.072 -23.954 -14.466  0.00  0.00    +0.123 A 
ATOM      7  C   UNL     1      33.822 -22.229 -17.787  0.00  0.00    +0.129 C 
ATOM      8  C   UNL     1      34.568 -22.750 -16.734  0.00  0.00    +0.039 C 
ATOM      9  C   UNL     1      32.443 -23.323 -15.791  0.00  0.00    +0.196 A 
ATOM     10  C   UNL     1      31.752 -22.789 -16.862  0.00  0.00    +0.140 C 
ATOM     11  H   UNL     1      35.537 -21.633 -18.802  0.00  0.00    +0.148 HD
ENDROOT
BRANCH   6  14
ATOM     12 CL   UNL     1      37.652 -22.643 -10.995  0.00  0.00    -0.082 Cl
ATOM     13  C   UNL     1      37.359 -25.556 -13.720  0.00  0.00    -0.021 C 
ATOM     14  C   UNL     1      35.353 -24.219 -13.864  0.00  0.00    +0.021 C 
ATOM     15  C   UNL     1      36.119 -25.298 -14.304  0.00  0.00    -0.003 C 
ATOM     16  C   UNL     1      37.833 -24.735 -12.697  0.00  0.00    +0.007 C 
ATOM     17  C   UNL     1      35.826 -23.398 -12.840  0.00  0.00    +0.013 C 
ATOM     18  C   UNL     1      37.067 -23.656 -12.257  0.00  0.00    +0.057 C 
BRANCH  13  19
ATOM     19  C   UNL     1      38.179 -26.710 -14.190  0.00  0.00    +0.029 C 
BRANCH  19  20
ATOM     20  C   UNL     1      37.316 -27.922 -14.565  0.00  0.00    +0.036 C 
BRANCH  20  21
ATOM     21  C   UNL     1      37.687 -28.491 -15.927  0.00  0.00    +0.138 C 
BRANCH  21  22
ATOM     22  O   UNL     1      36.826 -27.930 -16.909  0.00  0.00    -0.382 OA
ATOM     23  H   UNL     1      37.270 -27.940 -17.771  0.00  0.00    +0.210 HD
ENDBRANCH  21  22
ENDBRANCH  20  21
ENDBRANCH  19  20
ENDBRANCH  13  19
ENDBRANCH   6  14
BRANCH   2  24
ATOM     24  C   UNL     1      33.922 -21.074 -19.997  0.00  0.00    +0.093 C 
ATOM     25  C   UNL     1      32.608 -20.420 -19.579  0.00  0.00    +0.026 C 
BRANCH  24  26
ATOM     26  C   UNL     1      34.865 -20.115 -20.691  0.00  0.00    -0.005 C 
ATOM     27  C   UNL     1      34.458 -19.451 -21.847  0.00  0.00    -0.003 C 
ATOM     28  C   UNL     1      36.142 -19.895 -20.174  0.00  0.00    -0.003 C 
ATOM     29  C   UNL     1      35.328 -18.567 -22.488  0.00  0.00    -0.000 C 
ATOM     30  C   UNL     1      37.011 -19.013 -20.814  0.00  0.00    -0.000 C 
ATOM     31  C   UNL     1      36.604 -18.348 -21.970  0.00  0.00    -0.000 C 
ENDBRANCH  24  26
ENDBRANCH   2  24
TORSDOF 7
ENDMDL
MODEL 5
REMARK VINA RESULT:      -9.6      9.287     12.416
REMARK  Name = 24941248
REMARK  7 active torsions:
REMARK  status: ('A' for Active; 'I' for Inactive)
REMARK    1  A    between atoms: N_2  and  C_24
REMARK    2  A    between atoms: C_6  and  C_14
REMARK    3  A    between atoms: C_13  and  C_19
REMARK    4  A    between atoms: C_19  and  C_20
REMARK    5  A    between atoms: C_20  and  C_21
REMARK    6  A    between atoms: C_21  and  O_22
REMARK    7  A    between atoms: C_24  and  C_26
REMARK                            x       y       z     vdW  Elec       q    Type
REMARK                         _______ _______ _______ _____ _____    ______ ____
ROOT
ATOM      1  O   UNL     1      37.831 -22.471 -14.817  0.00  0.00    -0.352 OA
ATOM      2  N   UNL     1      36.605 -27.721 -14.171  0.00  0.00    -0.316 N 
ATOM      3  N   UNL     1      36.694 -21.956 -15.428  0.00  0.00    -0.077 NA
ATOM      4  N   UNL     1      38.192 -25.971 -13.873  0.00  0.00    -0.226 NA
ATOM      5  C   UNL     1      36.410 -24.189 -15.050  0.00  0.00    +0.062 A 
ATOM      6  C   UNL     1      35.861 -22.994 -15.558  0.00  0.00    +0.123 A 
ATOM      7  C   UNL     1      36.969 -26.357 -14.319  0.00  0.00    +0.129 C 
ATOM      8  C   UNL     1      36.027 -25.524 -14.916  0.00  0.00    +0.039 C 
ATOM      9  C   UNL     1      37.657 -23.801 -14.594  0.00  0.00    +0.196 A 
ATOM     10  C   UNL     1      38.555 -24.672 -14.006  0.00  0.00    +0.140 C 
ATOM     11  H   UNL     1      35.720 -28.012 -14.490  0.00  0.00    +0.148 HD
ENDROOT
BRANCH   6  14
ATOM     12 CL   UNL     1      33.073 -21.352 -19.572  0.00  0.00    -0.082 Cl
ATOM     13  C   UNL     1      32.165 -23.054 -16.068  0.00  0.00    -0.021 C 
ATOM     14  C   UNL     1      34.567 -22.817 -16.162  0.00  0.00    +0.021 C 
ATOM     15  C   UNL     1      33.419 -23.225 -15.483  0.00  0.00    -0.003 C 
ATOM     16  C   UNL     1      32.058 -22.475 -17.333  0.00  0.00    +0.007 C 
ATOM     17  C   UNL     1      34.460 -22.238 -17.426  0.00  0.00    +0.013 C 
ATOM     18  C   UNL     1      33.206 -22.067 -18.012  0.00  0.00    +0.057 C 
BRANCH  13  19
ATOM     19  C   UNL     1      30.937 -23.492 -15.343  0.00  0.00    +0.029 C 
BRANCH  19  20
ATOM     20  C   UNL     1      29.824 -22.437 -15.396  0.00  0.00    +0.036 C 
BRANCH  20  21
ATOM     21  C   UNL     1      28.587 -22.945 -16.123  0.00  0.00    +0.138 C 
BRANCH  21  22
ATOM     22  O   UNL     1      27.641 -21.888 -16.214  0.00  0.00    -0.382 OA
ATOM     23  H   UNL     1      27.993 -21.189 -16.787  0.00  0.00    +0.210 HD
ENDBRANCH  21  22
ENDBRANCH  20  21
ENDBRANCH  19  20
ENDBRANCH  13  19
ENDBRANCH   6  14
BRANCH   2  24
ATOM     24  C   UNL     1      37.470 -28.687 -13.579  0.00  0.00    +0.093 C 
ATOM     25  C   UNL     1      36.641 -29.856 -13.051  0.00  0.00    +0.026 C 
BRANCH  24  26
ATOM     26  C   UNL     1      38.531 -29.115 -14.569  0.00  0.00    -0.005 C 
ATOM     27  C   UNL     1      38.167 -29.512 -15.855  0.00  0.00    -0.003 C 
ATOM     28  C   UNL     1      39.875 -29.111 -14.196  0.00  0.00    -0.003 C 
ATOM     29  C   UNL     1      39.146 -29.908 -16.767  0.00  0.00    -0.000 C 
ATOM     30  C   UNL     1      40.854 -29.506 -15.107  0.00  0.00    -0.000 C 
ATOM     31  C   UNL     1      40.489 -29.903 -16.394  0.00  0.00    -0.000 C 
ENDBRANCH  24  26
ENDBRANCH   2  24
TORSDOF 7
ENDMDL
MODEL 6
REMARK VINA RESULT:      -9.4      7.526     12.373
REMARK  Name = 24941248
REMARK  7 active torsions:
REMARK  status: ('A' for Active; 'I' for Inactive)
REMARK    1  A    between atoms: N_2  and  C_24
REMARK    2  A    between atoms: C_6  and  C_14
REMARK    3  A    between atoms: C_13  and  C_19
REMARK    4  A    between atoms: C_19  and  C_20
REMARK    5  A    between atoms: C_20  and  C_21
REMARK    6  A    between atoms: C_21  and  O_22
REMARK    7  A    between atoms: C_24  and  C_26
REMARK                            x       y       z     vdW  Elec       q    Type
REMARK                         _______ _______ _______ _____ _____    ______ ____
ROOT
ATOM      1  O   UNL     1      31.420 -23.813 -14.721  0.00  0.00    -0.352 OA
ATOM      2  N   UNL     1      34.354 -21.879 -18.860  0.00  0.00    -0.316 N 
ATOM      3  N   UNL     1      32.374 -24.437 -13.925  0.00  0.00    -0.077 NA
ATOM      4  N   UNL     1      32.213 -22.117 -17.845  0.00  0.00    -0.226 NA
ATOM      5  C   UNL     1      33.387 -23.533 -15.759  0.00  0.00    +0.062 A 
ATOM      6  C   UNL     1      33.536 -24.259 -14.561  0.00  0.00    +0.123 A 
ATOM      7  C   UNL     1      33.547 -22.366 -17.799  0.00  0.00    +0.129 C 
ATOM      8  C   UNL     1      34.204 -23.065 -16.790  0.00  0.00    +0.039 C 
ATOM      9  C   UNL     1      32.028 -23.276 -15.812  0.00  0.00    +0.196 A 
ATOM     10  C   UNL     1      31.428 -22.574 -16.840  0.00  0.00    +0.140 C 
ATOM     11  H   UNL     1      35.323 -22.053 -18.836  0.00  0.00    +0.148 HD
ENDROOT
BRANCH   6  14
ATOM     12 CL   UNL     1      37.719 -27.213 -15.163  0.00  0.00    -0.082 Cl
ATOM     13  C   UNL     1      36.323 -24.948 -12.176  0.00  0.00    -0.021 C 
ATOM     14  C   UNL     1      34.756 -24.786 -14.007  0.00  0.00    +0.021 C 
ATOM     15  C   UNL     1      35.141 -24.438 -12.712  0.00  0.00    -0.003 C 
ATOM     16  C   UNL     1      37.120 -25.806 -12.934  0.00  0.00    +0.007 C 
ATOM     17  C   UNL     1      35.553 -25.644 -14.765  0.00  0.00    +0.013 C 
ATOM     18  C   UNL     1      36.735 -26.154 -14.228  0.00  0.00    +0.057 C 
BRANCH  13  19
ATOM     19  C   UNL     1      36.736 -24.575 -10.792  0.00  0.00    +0.029 C 
BRANCH  19  20
ATOM     20  C   UNL     1      36.789 -23.055 -10.590  0.00  0.00    +0.036 C 
BRANCH  20  21
ATOM     21  C   UNL     1      37.963 -22.421 -11.321  0.00  0.00    +0.138 C 
BRANCH  21  22
ATOM     22  O   UNL     1      39.112 -23.238 -11.140  0.00  0.00    -0.382 OA
ATOM     23  H   UNL     1      39.326 -23.290 -10.196  0.00  0.00    +0.210 HD
ENDBRANCH  21  22
ENDBRANCH  20  21
ENDBRANCH  19  20
ENDBRANCH  13  19
ENDBRANCH   6  14
BRANCH   2  24
ATOM     24  C   UNL     1      33.818 -21.149 -19.961  0.00  0.00    +0.093 C 
ATOM     25  C   UNL     1      32.552 -20.419 -19.519  0.00  0.00    +0.026 C 
BRANCH  24  26
ATOM     26  C   UNL     1      34.867 -20.220 -20.532  0.00  0.00    -0.005 C 
ATOM     27  C   UNL     1      36.122 -20.132 -19.932  0.00  0.00    -0.003 C 
ATOM     28  C   UNL     1      34.578 -19.451 -21.660  0.00  0.00    -0.003 C 
ATOM     29  C   UNL     1      37.089 -19.274 -20.459  0.00  0.00    -0.000 C 
ATOM     30  C   UNL     1      35.543 -18.594 -22.186  0.00  0.00    -0.000 C 
ATOM     31  C   UNL     1      36.800 -18.506 -21.587  0.00  0.00    -0.000 C 
ENDBRANCH  24  26
ENDBRANCH   2  24
TORSDOF 7
ENDMDL
MODEL 7
REMARK VINA RESULT:      -9.0     11.118     15.293
REMARK  Name = 24941248
REMARK  7 active torsions:
REMARK  status: ('A' for Active; 'I' for Inactive)
REMARK    1  A    between atoms: N_2  and  C_24
REMARK    2  A    between atoms: C_6  and  C_14
REMARK    3  A    between atoms: C_13  and  C_19
REMARK    4  A    between atoms: C_19  and  C_20
REMARK    5  A    between atoms: C_20  and  C_21
REMARK    6  A    between atoms: C_21  and  O_22
REMARK    7  A    between atoms: C_24  and  C_26
REMARK                            x       y       z     vdW  Elec       q    Type
REMARK                         _______ _______ _______ _____ _____    ______ ____
ROOT
ATOM      1  O   UNL     1      38.394 -23.307 -12.715  0.00  0.00    -0.352 OA
ATOM      2  N   UNL     1      33.751 -24.241 -15.371  0.00  0.00    -0.316 N 
ATOM      3  N   UNL     1      38.894 -24.585 -12.499  0.00  0.00    -0.077 NA
ATOM      4  N   UNL     1      35.257 -22.646 -14.445  0.00  0.00    -0.226 NA
ATOM      5  C   UNL     1      36.911 -24.724 -13.620  0.00  0.00    +0.062 A 
ATOM      6  C   UNL     1      37.997 -25.413 -13.044  0.00  0.00    +0.123 A 
ATOM      7  C   UNL     1      34.956 -23.949 -14.679  0.00  0.00    +0.129 C 
ATOM      8  C   UNL     1      35.733 -25.039 -14.298  0.00  0.00    +0.039 C 
ATOM      9  C   UNL     1      37.213 -23.394 -13.383  0.00  0.00    +0.196 A 
ATOM     10  C   UNL     1      36.403 -22.349 -13.786  0.00  0.00    +0.140 C 
ATOM     11  H   UNL     1      33.523 -25.183 -15.547  0.00  0.00    +0.148 HD
ENDROOT
BRANCH   6  14
ATOM     12 CL   UNL     1      37.107 -29.910 -10.685  0.00  0.00    -0.082 Cl
ATOM     13  C   UNL     1      39.176 -28.840 -13.937  0.00  0.00    -0.021 C 
ATOM     14  C   UNL     1      38.202 -26.837 -13.001  0.00  0.00    +0.021 C 
ATOM     15  C   UNL     1      38.979 -27.460 -13.978  0.00  0.00    -0.003 C 
ATOM     16  C   UNL     1      38.597 -29.597 -12.918  0.00  0.00    +0.007 C 
ATOM     17  C   UNL     1      37.623 -27.595 -11.983  0.00  0.00    +0.013 C 
ATOM     18  C   UNL     1      37.820 -28.975 -11.942  0.00  0.00    +0.057 C 
BRANCH  13  19
ATOM     19  C   UNL     1      40.006 -29.506 -14.982  0.00  0.00    +0.029 C 
BRANCH  19  20
ATOM     20  C   UNL     1      39.481 -29.238 -16.399  0.00  0.00    +0.036 C 
BRANCH  20  21
ATOM     21  C   UNL     1      37.969 -29.382 -16.487  0.00  0.00    +0.138 C 
BRANCH  21  22
ATOM     22  O   UNL     1      37.411 -28.133 -16.875  0.00  0.00    -0.382 OA
ATOM     23  H   UNL     1      37.326 -28.104 -17.841  0.00  0.00    +0.210 HD
ENDBRANCH  21  22
ENDBRANCH  20  21
ENDBRANCH  19  20
ENDBRANCH  13  19
ENDBRANCH   6  14
BRANCH   2  24
ATOM     24  C   UNL     1      32.857 -23.226 -15.819  0.00  0.00    +0.093 C 
ATOM     25  C   UNL     1      33.056 -22.997 -17.316  0.00  0.00    +0.026 C 
BRANCH  24  26
ATOM     26  C   UNL     1      31.432 -23.589 -15.462  0.00  0.00    -0.005 C 
ATOM     27  C   UNL     1      30.369 -22.922 -16.070  0.00  0.00    -0.003 C 
ATOM     28  C   UNL     1      31.181 -24.592 -14.525  0.00  0.00    -0.003 C 
ATOM     29  C   UNL     1      29.055 -23.256 -15.740  0.00  0.00    -0.000 C 
ATOM     30  C   UNL     1      29.868 -24.926 -14.195  0.00  0.00    -0.000 C 
ATOM     31  C   UNL     1      28.805 -24.259 -14.803  0.00  0.00    -0.000 C 
ENDBRANCH  24  26
ENDBRANCH   2  24
TORSDOF 7
ENDMDL
MODEL 8
REMARK VINA RESULT:      -9.0      5.152      8.705
REMARK  Name = 24941248
REMARK  7 active torsions:
REMARK  status: ('A' for Active; 'I' for Inactive)
REMARK    1  A    between atoms: N_2  and  C_24
REMARK    2  A    between atoms: C_6  and  C_14
REMARK    3  A    between atoms: C_13  and  C_19
REMARK    4  A    between atoms: C_19  and  C_20
REMARK    5  A    between atoms: C_20  and  C_21
REMARK    6  A    between atoms: C_21  and  O_22
REMARK    7  A    between atoms: C_24  and  C_26
REMARK                            x       y       z     vdW  Elec       q    Type
REMARK                         _______ _______ _______ _____ _____    ______ ____
ROOT
ATOM      1  O   UNL     1      32.499 -22.669 -18.277  0.00  0.00    -0.352 OA
ATOM      2  N   UNL     1      37.083 -22.533 -15.369  0.00  0.00    -0.316 N 
ATOM      3  N   UNL     1      32.781 -21.828 -19.347  0.00  0.00    -0.077 NA
ATOM      4  N   UNL     1      34.869 -23.380 -15.603  0.00  0.00    -0.226 NA
ATOM      5  C   UNL     1      34.592 -21.931 -17.962  0.00  0.00    +0.062 A 
ATOM      6  C   UNL     1      34.031 -21.399 -19.139  0.00  0.00    +0.123 A 
ATOM      7  C   UNL     1      35.865 -22.600 -16.096  0.00  0.00    +0.129 C 
ATOM      8  C   UNL     1      35.800 -21.849 -17.266  0.00  0.00    +0.039 C 
ATOM      9  C   UNL     1      33.580 -22.728 -17.455  0.00  0.00    +0.196 A 
ATOM     10  C   UNL     1      33.701 -23.455 -16.285  0.00  0.00    +0.140 C 
ATOM     11  H   UNL     1      37.812 -21.971 -15.718  0.00  0.00    +0.148 HD
ENDROOT
BRANCH   6  14
ATOM     12 CL   UNL     1      38.063 -18.421 -20.344  0.00  0.00    -0.082 Cl
ATOM     13  C   UNL     1      34.604 -19.282 -22.159  0.00  0.00    -0.021 C 
ATOM     14  C   UNL     1      34.653 -20.495 -20.071  0.00  0.00    +0.021 C 
ATOM     15  C   UNL     1      34.000 -20.157 -21.256  0.00  0.00    -0.003 C 
ATOM     16  C   UNL     1      35.860 -18.745 -21.877  0.00  0.00    +0.007 C 
ATOM     17  C   UNL     1      35.909 -19.959 -19.789  0.00  0.00    +0.013 C 
ATOM     18  C   UNL     1      36.513 -19.084 -20.692  0.00  0.00    +0.057 C 
BRANCH  13  19
ATOM     19  C   UNL     1      33.906 -18.920 -23.427  0.00  0.00    +0.029 C 
BRANCH  19  20
ATOM     20  C   UNL     1      34.656 -17.838 -24.215  0.00  0.00    +0.036 C 
BRANCH  20  21
ATOM     21  C   UNL     1      34.094 -16.448 -23.958  0.00  0.00    +0.138 C 
BRANCH  21  22
ATOM     22  O   UNL     1      34.016 -15.748 -25.193  0.00  0.00    -0.382 OA
ATOM     23  H   UNL     1      34.341 -14.843 -25.071  0.00  0.00    +0.210 HD
ENDBRANCH  21  22
ENDBRANCH  20  21
ENDBRANCH  19  20
ENDBRANCH  13  19
ENDBRANCH   6  14
BRANCH   2  24
ATOM     24  C   UNL     1      37.291 -23.247 -14.153  0.00  0.00    +0.093 C 
ATOM     25  C   UNL     1      35.994 -23.273 -13.349  0.00  0.00    +0.026 C 
BRANCH  24  26
ATOM     26  C   UNL     1      37.833 -24.630 -14.445  0.00  0.00    -0.005 C 
ATOM     27  C   UNL     1      39.209 -24.835 -14.534  0.00  0.00    -0.003 C 
ATOM     28  C   UNL     1      36.955 -25.699 -14.624  0.00  0.00    -0.003 C 
ATOM     29  C   UNL     1      39.709 -26.110 -14.804  0.00  0.00    -0.000 C 
ATOM     30  C   UNL     1      37.454 -26.973 -14.894  0.00  0.00    -0.000 C 
ATOM     31  C   UNL     1      38.831 -27.179 -14.983  0.00  0.00    -0.000 C 
ENDBRANCH  24  26
ENDBRANCH   2  24
TORSDOF 7
ENDMDL
MODEL 9
REMARK VINA RESULT:      -8.8      4.213     10.347
REMARK  Name = 24941248
REMARK  7 active torsions:
REMARK  status: ('A' for Active; 'I' for Inactive)
REMARK    1  A    between atoms: N_2  and  C_24
REMARK    2  A    between atoms: C_6  and  C_14
REMARK    3  A    between atoms: C_13  and  C_19
REMARK    4  A    between atoms: C_19  and  C_20
REMARK    5  A    between atoms: C_20  and  C_21
REMARK    6  A    between atoms: C_21  and  O_22
REMARK    7  A    between atoms: C_24  and  C_26
REMARK                            x       y       z     vdW  Elec       q    Type
REMARK                         _______ _______ _______ _____ _____    ______ ____
ROOT
ATOM      1  O   UNL     1      32.002 -12.532 -19.626  0.00  0.00    -0.352 OA
ATOM      2  N   UNL     1      32.026  -7.856 -22.386  0.00  0.00    -0.316 N 
ATOM      3  N   UNL     1      32.463 -13.450 -20.561  0.00  0.00    -0.077 NA
ATOM      4  N   UNL     1      31.584  -8.983 -20.335  0.00  0.00    -0.226 NA
ATOM      5  C   UNL     1      32.386 -11.375 -21.507  0.00  0.00    +0.062 A 
ATOM      6  C   UNL     1      32.685 -12.742 -21.673  0.00  0.00    +0.123 A 
ATOM      7  C   UNL     1      32.003  -9.054 -21.625  0.00  0.00    +0.129 C 
ATOM      8  C   UNL     1      32.419 -10.211 -22.277  0.00  0.00    +0.039 C 
ATOM      9  C   UNL     1      31.957 -11.297 -20.193  0.00  0.00    +0.196 A 
ATOM     10  C   UNL     1      31.556 -10.118 -19.595  0.00  0.00    +0.140 C 
ATOM     11  H   UNL     1      32.330  -7.895 -23.322  0.00  0.00    +0.148 HD
ENDROOT
BRANCH   6  14
ATOM     12 CL   UNL     1      33.451 -12.576 -26.768  0.00  0.00    -0.082 Cl
ATOM     13  C   UNL     1      34.222 -15.286 -23.930  0.00  0.00    -0.021 C 
ATOM     14  C   UNL     1      33.177 -13.389 -22.861  0.00  0.00    +0.021 C 
ATOM     15  C   UNL     1      33.744 -14.660 -22.779  0.00  0.00    -0.003 C 
ATOM     16  C   UNL     1      34.131 -14.642 -25.163  0.00  0.00    +0.007 C 
ATOM     17  C   UNL     1      33.086 -12.744 -24.095  0.00  0.00    +0.013 C 
ATOM     18  C   UNL     1      33.563 -13.370 -25.246  0.00  0.00    +0.057 C 
BRANCH  13  19
ATOM     19  C   UNL     1      34.830 -16.645 -23.842  0.00  0.00    +0.029 C 
BRANCH  19  20
ATOM     20  C   UNL     1      35.353 -16.958 -22.434  0.00  0.00    +0.036 C 
BRANCH  20  21
ATOM     21  C   UNL     1      35.854 -18.390 -22.313  0.00  0.00    +0.138 C 
BRANCH  21  22
ATOM     22  O   UNL     1      37.246 -18.367 -22.028  0.00  0.00    -0.382 OA
ATOM     23  H   UNL     1      37.729 -18.050 -22.806  0.00  0.00    +0.210 HD
ENDBRANCH  21  22
ENDBRANCH  20  21
ENDBRANCH  19  20
ENDBRANCH  13  19
ENDBRANCH   6  14
BRANCH   2  24
ATOM     24  C   UNL     1      31.627  -6.597 -21.849  0.00  0.00    +0.093 C 
ATOM     25  C   UNL     1      32.499  -6.258 -20.643  0.00  0.00    +0.026 C 
BRANCH  24  26
ATOM     26  C   UNL     1      31.667  -5.533 -22.925  0.00  0.00    -0.005 C 
ATOM     27  C   UNL     1      31.724  -5.901 -24.268  0.00  0.00    -0.003 C 
ATOM     28  C   UNL     1      31.647  -4.183 -22.572  0.00  0.00    -0.003 C 
ATOM     29  C   UNL     1      31.762  -4.921 -25.260  0.00  0.00    -0.000 C 
ATOM     30  C   UNL     1      31.685  -3.203 -23.563  0.00  0.00    -0.000 C 
ATOM     31  C   UNL     1      31.741  -3.572 -24.907  0.00  0.00    -0.000 C 
ENDBRANCH  24  26
ENDBRANCH   2  24
TORSDOF 7
ENDMDL
