MODEL 1
REMARK VINA RESULT:     -10.9      0.000      0.000
REMARK  Name = 447994
REMARK  10 active torsions:
REMARK  status: ('A' for Active; 'I' for Inactive)
REMARK    1  A    between atoms: C_2  and  C_10
REMARK    2  A    between atoms: C_3  and  C_17
REMARK    3  A    between atoms: C_12  and  C_14
REMARK    4  A    between atoms: C_14  and  O_15
REMARK    5  A    between atoms: C_18  and  C_19
REMARK    6  A    between atoms: C_19  and  O_20
REMARK    7  A    between atoms: O_20  and  C_21
REMARK    8  A    between atoms: C_22  and  C_30
REMARK    9  A    between atoms: C_23  and  O_27
REMARK   10  A    between atoms: C_30  and  O_31
REMARK                            x       y       z     vdW  Elec       q    Type
REMARK                         _______ _______ _______ _____ _____    ______ ____
ROOT
ATOM      1  F   UNL     1      32.136 -20.254 -20.801  0.00  0.00    -0.204 F 
ATOM      2  C   UNL     1      34.495 -20.109 -20.538  0.00  0.00    +0.065 C 
ATOM      3  C   UNL     1      35.551 -21.337 -18.745  0.00  0.00    +0.000 C 
ATOM      4  C   UNL     1      35.644 -20.477 -19.839  0.00  0.00    +0.005 C 
ATOM      5  C   UNL     1      33.250 -20.599 -20.141  0.00  0.00    +0.143 C 
ATOM      6  C   UNL     1      34.306 -21.827 -18.348  0.00  0.00    +0.002 C 
ATOM      7  C   UNL     1      33.156 -21.458 -19.047  0.00  0.00    +0.030 C 
ENDROOT
BRANCH   2  10
ATOM      8  O   UNL     1      34.416 -19.800 -22.879  0.00  0.00    -0.353 OA
ATOM      9  N   UNL     1      34.541 -18.831 -23.867  0.00  0.00    -0.070 NA
ATOM     10  C   UNL     1      34.596 -19.220 -21.669  0.00  0.00    +0.179 C 
ATOM     11  C   UNL     1      34.838 -17.886 -21.817  0.00  0.00    +0.069 C 
ATOM     12  C   UNL     1      34.792 -17.696 -23.209  0.00  0.00    +0.198 C 
BRANCH  12  14
ATOM     13  O   UNL     1      34.492 -16.222 -25.048  0.00  0.00    -0.243 OA
ATOM     14  C   UNL     1      34.978 -16.474 -23.934  0.00  0.00    +0.359 C 
BRANCH  14  15
ATOM     15  O   UNL     1      35.765 -15.539 -23.307  0.00  0.00    -0.476 OA
ATOM     16  H   UNL     1      35.639 -14.627 -23.481  0.00  0.00    +0.295 HD
ENDBRANCH  14  15
ENDBRANCH  12  14
ENDBRANCH   2  10
BRANCH   3  17
ATOM     17  C   UNL     1      36.749 -21.722 -18.016  0.00  0.00    -0.001 C 
ATOM     18  C   UNL     1      36.833 -21.932 -16.683  0.00  0.00    +0.021 C 
BRANCH  18  19
ATOM     19  C   UNL     1      38.087 -22.342 -15.980  0.00  0.00    +0.232 C 
BRANCH  19  20
ATOM     20  O   UNL     1      37.744 -22.884 -14.713  0.00  0.00    -0.470 OA
BRANCH  20  21
ATOM     21  C   UNL     1      37.992 -24.218 -14.521  0.00  0.00    +0.148 C 
ATOM     22  C   UNL     1      36.946 -25.127 -14.408  0.00  0.00    +0.143 C 
ATOM     23  C   UNL     1      37.222 -26.479 -14.214  0.00  0.00    +0.143 C 
ATOM     24  C   UNL     1      39.313 -24.648 -14.443  0.00  0.00    +0.037 C 
ATOM     25  C   UNL     1      38.544 -26.917 -14.136  0.00  0.00    +0.037 C 
ATOM     26  C   UNL     1      39.589 -26.001 -14.251  0.00  0.00    +0.006 C 
BRANCH  23  27
ATOM     27  O   UNL     1      36.215 -27.392 -14.102  0.00  0.00    -0.505 OA
ATOM     28  H   UNL     1      35.325 -27.104 -14.051  0.00  0.00    +0.292 HD
ENDBRANCH  23  27
BRANCH  22  30
ATOM     29  O   UNL     1      34.972 -24.429 -15.550  0.00  0.00    -0.245 OA
ATOM     30  C   UNL     1      35.562 -24.669 -14.491  0.00  0.00    +0.347 C 
BRANCH  30  31
ATOM     31  O   UNL     1      35.004 -24.542 -13.251  0.00  0.00    -0.441 OA
ATOM     32  C   UNL     1      33.643 -24.102 -13.201  0.00  0.00    +0.256 C 
ENDBRANCH  30  31
ENDBRANCH  22  30
ENDBRANCH  20  21
ENDBRANCH  19  20
ENDBRANCH  18  19
ENDBRANCH   3  17
TORSDOF 10
ENDMDL
MODEL 2
REMARK VINA RESULT:     -10.9      2.198      4.033
REMARK  Name = 447994
REMARK  10 active torsions:
REMARK  status: ('A' for Active; 'I' for Inactive)
REMARK    1  A    between atoms: C_2  and  C_10
REMARK    2  A    between atoms: C_3  and  C_17
REMARK    3  A    between atoms: C_12  and  C_14
REMARK    4  A    between atoms: C_14  and  O_15
REMARK    5  A    between atoms: C_18  and  C_19
REMARK    6  A    between atoms: C_19  and  O_20
REMARK    7  A    between atoms: O_20  and  C_21
REMARK    8  A    between atoms: C_22  and  C_30
REMARK    9  A    between atoms: C_23  and  O_27
REMARK   10  A    between atoms: C_30  and  O_31
REMARK                            x       y       z     vdW  Elec       q    Type
REMARK                         _______ _______ _______ _____ _____    ______ ____
ROOT
ATOM      1  F   UNL     1      37.644 -17.905 -22.063  0.00  0.00    -0.204 F 
ATOM      2  C   UNL     1      35.370 -18.523 -21.739  0.00  0.00    +0.065 C 
ATOM      3  C   UNL     1      34.842 -20.242 -20.126  0.00  0.00    +0.000 C 
ATOM      4  C   UNL     1      34.429 -19.315 -21.082  0.00  0.00    +0.005 C 
ATOM      5  C   UNL     1      36.726 -18.658 -21.440  0.00  0.00    +0.143 C 
ATOM      6  C   UNL     1      36.198 -20.377 -19.827  0.00  0.00    +0.002 C 
ATOM      7  C   UNL     1      37.140 -19.586 -20.484  0.00  0.00    +0.030 C 
ENDROOT
BRANCH   2  10
ATOM      8  O   UNL     1      34.575 -18.089 -23.922  0.00  0.00    -0.353 OA
ATOM      9  N   UNL     1      34.185 -17.057 -24.767  0.00  0.00    -0.070 NA
ATOM     10  C   UNL     1      34.938 -17.565 -22.727  0.00  0.00    +0.179 C 
ATOM     11  C   UNL     1      34.802 -16.208 -22.746  0.00  0.00    +0.069 C 
ATOM     12  C   UNL     1      34.329 -15.944 -24.043  0.00  0.00    +0.198 C 
BRANCH  12  14
ATOM     13  O   UNL     1      33.776 -14.465 -25.819  0.00  0.00    -0.243 OA
ATOM     14  C   UNL     1      34.008 -14.670 -24.617  0.00  0.00    +0.359 C 
BRANCH  14  15
ATOM     15  O   UNL     1      33.968 -13.625 -23.727  0.00  0.00    -0.476 OA
ATOM     16  H   UNL     1      34.024 -12.742 -24.037  0.00  0.00    +0.295 HD
ENDBRANCH  14  15
ENDBRANCH  12  14
ENDBRANCH   2  10
BRANCH   3  17
ATOM     17  C   UNL     1      33.861 -21.068 -19.440  0.00  0.00    -0.001 C 
ATOM     18  C   UNL     1      34.122 -21.958 -18.456  0.00  0.00    +0.021 C 
BRANCH  18  19
ATOM     19  C   UNL     1      33.076 -22.775 -17.770  0.00  0.00    +0.232 C 
BRANCH  19  20
ATOM     20  O   UNL     1      33.706 -23.614 -16.813  0.00  0.00    -0.470 OA
BRANCH  20  21
ATOM     21  C   UNL     1      33.194 -23.598 -15.541  0.00  0.00    +0.148 C 
ATOM     22  C   UNL     1      33.960 -24.021 -14.461  0.00  0.00    +0.143 C 
ATOM     23  C   UNL     1      33.419 -23.995 -13.177  0.00  0.00    +0.143 C 
ATOM     24  C   UNL     1      31.891 -23.148 -15.351  0.00  0.00    +0.037 C 
ATOM     25  C   UNL     1      32.114 -23.545 -12.978  0.00  0.00    +0.037 C 
ATOM     26  C   UNL     1      31.351 -23.122 -14.066  0.00  0.00    +0.006 C 
BRANCH  23  27
ATOM     27  O   UNL     1      34.149 -24.403 -12.100  0.00  0.00    -0.505 OA
ATOM     28  H   UNL     1      35.030 -24.701 -12.216  0.00  0.00    +0.292 HD
ENDBRANCH  23  27
BRANCH  22  30
ATOM     29  O   UNL     1      35.619 -25.595 -15.139  0.00  0.00    -0.245 OA
ATOM     30  C   UNL     1      35.327 -24.491 -14.668  0.00  0.00    +0.347 C 
BRANCH  30  31
ATOM     31  O   UNL     1      36.240 -23.554 -14.275  0.00  0.00    -0.441 OA
ATOM     32  C   UNL     1      36.919 -22.843 -15.316  0.00  0.00    +0.256 C 
ENDBRANCH  30  31
ENDBRANCH  22  30
ENDBRANCH  20  21
ENDBRANCH  19  20
ENDBRANCH  18  19
ENDBRANCH   3  17
TORSDOF 10
ENDMDL
MODEL 3
REMARK VINA RESULT:     -10.9      1.601      1.762
REMARK  Name = 447994
REMARK  10 active torsions:
REMARK  status: ('A' for Active; 'I' for Inactive)
REMARK    1  A    between atoms: C_2  and  C_10
REMARK    2  A    between atoms: C_3  and  C_17
REMARK    3  A    between atoms: C_12  and  C_14
REMARK    4  A    between atoms: C_14  and  O_15
REMARK    5  A    between atoms: C_18  and  C_19
REMARK    6  A    between atoms: C_19  and  O_20
REMARK    7  A    between atoms: O_20  and  C_21
REMARK    8  A    between atoms: C_22  and  C_30
REMARK    9  A    between atoms: C_23  and  O_27
REMARK   10  A    between atoms: C_30  and  O_31
REMARK                            x       y       z     vdW  Elec       q    Type
REMARK                         _______ _______ _______ _____ _____    ______ ____
ROOT
ATOM      1  F   UNL     1      32.237 -20.388 -20.577  0.00  0.00    -0.204 F 
ATOM      2  C   UNL     1      34.565 -20.217 -20.121  0.00  0.00    +0.065 C 
ATOM      3  C   UNL     1      35.522 -21.599 -18.386  0.00  0.00    +0.000 C 
ATOM      4  C   UNL     1      35.670 -20.630 -19.378  0.00  0.00    +0.005 C 
ATOM      5  C   UNL     1      33.310 -20.773 -19.872  0.00  0.00    +0.143 C 
ATOM      6  C   UNL     1      34.267 -22.155 -18.136  0.00  0.00    +0.002 C 
ATOM      7  C   UNL     1      33.161 -21.742 -18.879  0.00  0.00    +0.030 C 
ENDROOT
BRANCH   2  10
ATOM      8  O   UNL     1      35.482 -18.149 -20.802  0.00  0.00    -0.353 OA
ATOM      9  N   UNL     1      35.545 -17.274 -21.880  0.00  0.00    -0.070 NA
ATOM     10  C   UNL     1      34.722 -19.215 -21.147  0.00  0.00    +0.179 C 
ATOM     11  C   UNL     1      34.274 -19.082 -22.428  0.00  0.00    +0.069 C 
ATOM     12  C   UNL     1      34.817 -17.852 -22.839  0.00  0.00    +0.198 C 
BRANCH  12  14
ATOM     13  O   UNL     1      33.856 -17.541 -24.990  0.00  0.00    -0.243 OA
ATOM     14  C   UNL     1      34.668 -17.209 -24.111  0.00  0.00    +0.359 C 
BRANCH  14  15
ATOM     15  O   UNL     1      35.512 -16.148 -24.328  0.00  0.00    -0.476 OA
ATOM     16  H   UNL     1      35.586 -15.775 -25.185  0.00  0.00    +0.295 HD
ENDBRANCH  14  15
ENDBRANCH  12  14
ENDBRANCH   2  10
BRANCH   3  17
ATOM     17  C   UNL     1      36.675 -22.030 -17.611  0.00  0.00    -0.001 C 
ATOM     18  C   UNL     1      36.735 -22.122 -16.263  0.00  0.00    +0.021 C 
BRANCH  18  19
ATOM     19  C   UNL     1      37.941 -22.585 -15.510  0.00  0.00    +0.232 C 
BRANCH  19  20
ATOM     20  O   UNL     1      37.568 -22.841 -14.164  0.00  0.00    -0.470 OA
BRANCH  20  21
ATOM     21  C   UNL     1      37.804 -24.104 -13.685  0.00  0.00    +0.148 C 
ATOM     22  C   UNL     1      37.300 -24.501 -12.452  0.00  0.00    +0.143 C 
ATOM     23  C   UNL     1      37.552 -25.790 -11.984  0.00  0.00    +0.143 C 
ATOM     24  C   UNL     1      38.557 -24.982 -14.457  0.00  0.00    +0.037 C 
ATOM     25  C   UNL     1      38.306 -26.676 -12.753  0.00  0.00    +0.037 C 
ATOM     26  C   UNL     1      38.808 -26.271 -13.990  0.00  0.00    +0.006 C 
BRANCH  23  27
ATOM     27  O   UNL     1      37.068 -26.206 -10.779  0.00  0.00    -0.505 OA
ATOM     28  H   UNL     1      36.228 -26.617 -10.728  0.00  0.00    +0.292 HD
ENDBRANCH  23  27
BRANCH  22  30
ATOM     29  O   UNL     1      36.945 -22.520 -11.171  0.00  0.00    -0.245 OA
ATOM     30  C   UNL     1      36.509 -23.575 -11.647  0.00  0.00    +0.347 C 
BRANCH  30  31
ATOM     31  O   UNL     1      35.228 -24.021 -11.488  0.00  0.00    -0.441 OA
ATOM     32  C   UNL     1      34.410 -24.056 -12.663  0.00  0.00    +0.256 C 
ENDBRANCH  30  31
ENDBRANCH  22  30
ENDBRANCH  20  21
ENDBRANCH  19  20
ENDBRANCH  18  19
ENDBRANCH   3  17
TORSDOF 10
ENDMDL
MODEL 4
REMARK VINA RESULT:     -10.5      3.186      4.177
REMARK  Name = 447994
REMARK  10 active torsions:
REMARK  status: ('A' for Active; 'I' for Inactive)
REMARK    1  A    between atoms: C_2  and  C_10
REMARK    2  A    between atoms: C_3  and  C_17
REMARK    3  A    between atoms: C_12  and  C_14
REMARK    4  A    between atoms: C_14  and  O_15
REMARK    5  A    between atoms: C_18  and  C_19
REMARK    6  A    between atoms: C_19  and  O_20
REMARK    7  A    between atoms: O_20  and  C_21
REMARK    8  A    between atoms: C_22  and  C_30
REMARK    9  A    between atoms: C_23  and  O_27
REMARK   10  A    between atoms: C_30  and  O_31
REMARK                            x       y       z     vdW  Elec       q    Type
REMARK                         _______ _______ _______ _____ _____    ______ ____
ROOT
ATOM      1  F   UNL     1      37.640 -18.248 -21.495  0.00  0.00    -0.204 F 
ATOM      2  C   UNL     1      35.382 -18.988 -21.391  0.00  0.00    +0.065 C 
ATOM      3  C   UNL     1      34.796 -20.744 -19.838  0.00  0.00    +0.000 C 
ATOM      4  C   UNL     1      34.427 -19.834 -20.827  0.00  0.00    +0.005 C 
ATOM      5  C   UNL     1      36.709 -19.053 -20.964  0.00  0.00    +0.143 C 
ATOM      6  C   UNL     1      36.123 -20.809 -19.411  0.00  0.00    +0.002 C 
ATOM      7  C   UNL     1      37.079 -19.964 -19.974  0.00  0.00    +0.030 C 
ENDROOT
BRANCH   2  10
ATOM      8  O   UNL     1      34.593 -18.599 -23.584  0.00  0.00    -0.353 OA
ATOM      9  N   UNL     1      34.254 -17.581 -24.468  0.00  0.00    -0.070 NA
ATOM     10  C   UNL     1      34.996 -18.048 -22.414  0.00  0.00    +0.179 C 
ATOM     11  C   UNL     1      34.935 -16.688 -22.487  0.00  0.00    +0.069 C 
ATOM     12  C   UNL     1      34.466 -16.450 -23.790  0.00  0.00    +0.198 C 
BRANCH  12  14
ATOM     13  O   UNL     1      33.874 -15.025 -25.598  0.00  0.00    -0.243 OA
ATOM     14  C   UNL     1      34.211 -15.184 -24.414  0.00  0.00    +0.359 C 
BRANCH  14  15
ATOM     15  O   UNL     1      34.367 -14.092 -23.596  0.00  0.00    -0.476 OA
ATOM     16  H   UNL     1      34.105 -14.137 -22.697  0.00  0.00    +0.295 HD
ENDBRANCH  14  15
ENDBRANCH  12  14
ENDBRANCH   2  10
BRANCH   3  17
ATOM     17  C   UNL     1      33.799 -21.625 -19.250  0.00  0.00    -0.001 C 
ATOM     18  C   UNL     1      33.982 -22.421 -18.172  0.00  0.00    +0.021 C 
BRANCH  18  19
ATOM     19  C   UNL     1      32.921 -23.301 -17.594  0.00  0.00    +0.232 C 
BRANCH  19  20
ATOM     20  O   UNL     1      32.389 -22.675 -16.436  0.00  0.00    -0.470 OA
BRANCH  20  21
ATOM     21  C   UNL     1      32.713 -23.232 -15.226  0.00  0.00    +0.148 C 
ATOM     22  C   UNL     1      31.754 -23.898 -14.471  0.00  0.00    +0.143 C 
ATOM     23  C   UNL     1      32.105 -24.458 -13.244  0.00  0.00    +0.143 C 
ATOM     24  C   UNL     1      34.022 -23.122 -14.767  0.00  0.00    +0.037 C 
ATOM     25  C   UNL     1      33.415 -24.352 -12.778  0.00  0.00    +0.037 C 
ATOM     26  C   UNL     1      34.373 -23.683 -13.540  0.00  0.00    +0.006 C 
BRANCH  23  27
ATOM     27  O   UNL     1      31.185 -25.118 -12.484  0.00  0.00    -0.505 OA
ATOM     28  H   UNL     1      30.270 -24.996 -12.646  0.00  0.00    +0.292 HD
ENDBRANCH  23  27
BRANCH  22  30
ATOM     29  O   UNL     1      29.903 -25.036 -15.456  0.00  0.00    -0.245 OA
ATOM     30  C   UNL     1      30.382 -24.011 -14.959  0.00  0.00    +0.347 C 
BRANCH  30  31
ATOM     31  O   UNL     1      29.697 -22.841 -14.795  0.00  0.00    -0.441 OA
ATOM     32  C   UNL     1      28.793 -22.474 -15.843  0.00  0.00    +0.256 C 
ENDBRANCH  30  31
ENDBRANCH  22  30
ENDBRANCH  20  21
ENDBRANCH  19  20
ENDBRANCH  18  19
ENDBRANCH   3  17
TORSDOF 10
ENDMDL
MODEL 5
REMARK VINA RESULT:     -10.5      1.655      2.463
REMARK  Name = 447994
REMARK  10 active torsions:
REMARK  status: ('A' for Active; 'I' for Inactive)
REMARK    1  A    between atoms: C_2  and  C_10
REMARK    2  A    between atoms: C_3  and  C_17
REMARK    3  A    between atoms: C_12  and  C_14
REMARK    4  A    between atoms: C_14  and  O_15
REMARK    5  A    between atoms: C_18  and  C_19
REMARK    6  A    between atoms: C_19  and  O_20
REMARK    7  A    between atoms: O_20  and  C_21
REMARK    8  A    between atoms: C_22  and  C_30
REMARK    9  A    between atoms: C_23  and  O_27
REMARK   10  A    between atoms: C_30  and  O_31
REMARK                            x       y       z     vdW  Elec       q    Type
REMARK                         _______ _______ _______ _____ _____    ______ ____
ROOT
ATOM      1  F   UNL     1      32.343 -20.324 -20.803  0.00  0.00    -0.204 F 
ATOM      2  C   UNL     1      34.618 -20.113 -20.143  0.00  0.00    +0.065 C 
ATOM      3  C   UNL     1      35.473 -21.559 -18.408  0.00  0.00    +0.000 C 
ATOM      4  C   UNL     1      35.671 -20.534 -19.332  0.00  0.00    +0.005 C 
ATOM      5  C   UNL     1      33.365 -20.717 -20.031  0.00  0.00    +0.143 C 
ATOM      6  C   UNL     1      34.220 -22.164 -18.295  0.00  0.00    +0.002 C 
ATOM      7  C   UNL     1      33.167 -21.743 -19.106  0.00  0.00    +0.030 C 
ENDROOT
BRANCH   2  10
ATOM      8  O   UNL     1      35.530 -17.990 -20.639  0.00  0.00    -0.353 OA
ATOM      9  N   UNL     1      35.652 -17.055 -21.660  0.00  0.00    -0.070 NA
ATOM     10  C   UNL     1      34.827 -19.052 -21.098  0.00  0.00    +0.179 C 
ATOM     11  C   UNL     1      34.474 -18.856 -22.401  0.00  0.00    +0.069 C 
ATOM     12  C   UNL     1      35.014 -17.594 -22.701  0.00  0.00    +0.198 C 
BRANCH  12  14
ATOM     13  O   UNL     1      34.319 -17.258 -24.949  0.00  0.00    -0.243 OA
ATOM     14  C   UNL     1      34.946 -16.884 -23.945  0.00  0.00    +0.359 C 
BRANCH  14  15
ATOM     15  O   UNL     1      35.647 -15.704 -23.980  0.00  0.00    -0.476 OA
ATOM     16  H   UNL     1      36.559 -15.694 -23.763  0.00  0.00    +0.295 HD
ENDBRANCH  14  15
ENDBRANCH  12  14
ENDBRANCH   2  10
BRANCH   3  17
ATOM     17  C   UNL     1      36.571 -21.999 -17.562  0.00  0.00    -0.001 C 
ATOM     18  C   UNL     1      36.491 -22.281 -16.241  0.00  0.00    +0.021 C 
BRANCH  18  19
ATOM     19  C   UNL     1      37.647 -22.744 -15.415  0.00  0.00    +0.232 C 
BRANCH  19  20
ATOM     20  O   UNL     1      37.394 -24.073 -14.982  0.00  0.00    -0.470 OA
BRANCH  20  21
ATOM     21  C   UNL     1      37.288 -24.275 -13.630  0.00  0.00    +0.148 C 
ATOM     22  C   UNL     1      37.318 -25.560 -13.100  0.00  0.00    +0.143 C 
ATOM     23  C   UNL     1      37.210 -25.742 -11.722  0.00  0.00    +0.143 C 
ATOM     24  C   UNL     1      37.151 -23.170 -12.798  0.00  0.00    +0.037 C 
ATOM     25  C   UNL     1      37.073 -24.638 -10.881  0.00  0.00    +0.037 C 
ATOM     26  C   UNL     1      37.043 -23.352 -11.419  0.00  0.00    +0.006 C 
BRANCH  23  27
ATOM     27  O   UNL     1      37.238 -26.991 -11.175  0.00  0.00    -0.505 OA
ATOM     28  H   UNL     1      38.059 -27.420 -11.028  0.00  0.00    +0.292 HD
ENDBRANCH  23  27
BRANCH  22  30
ATOM     29  O   UNL     1      36.624 -27.062 -14.818  0.00  0.00    -0.245 OA
ATOM     30  C   UNL     1      37.463 -26.716 -13.979  0.00  0.00    +0.347 C 
BRANCH  30  31
ATOM     31  O   UNL     1      38.645 -27.366 -13.758  0.00  0.00    -0.441 OA
ATOM     32  C   UNL     1      39.811 -26.803 -14.369  0.00  0.00    +0.256 C 
ENDBRANCH  30  31
ENDBRANCH  22  30
ENDBRANCH  20  21
ENDBRANCH  19  20
ENDBRANCH  18  19
ENDBRANCH   3  17
TORSDOF 10
ENDMDL
MODEL 6
REMARK VINA RESULT:     -10.3      5.551     12.840
REMARK  Name = 447994
REMARK  10 active torsions:
REMARK  status: ('A' for Active; 'I' for Inactive)
REMARK    1  A    between atoms: C_2  and  C_10
REMARK    2  A    between atoms: C_3  and  C_17
REMARK    3  A    between atoms: C_12  and  C_14
REMARK    4  A    between atoms: C_14  and  O_15
REMARK    5  A    between atoms: C_18  and  C_19
REMARK    6  A    between atoms: C_19  and  O_20
REMARK    7  A    between atoms: O_20  and  C_21
REMARK    8  A    between atoms: C_22  and  C_30
REMARK    9  A    between atoms: C_23  and  O_27
REMARK   10  A    between atoms: C_30  and  O_31
REMARK                            x       y       z     vdW  Elec       q    Type
REMARK                         _______ _______ _______ _____ _____    ______ ____
ROOT
ATOM      1  F   UNL     1      34.535 -19.614 -23.921  0.00  0.00    -0.204 F 
ATOM      2  C   UNL     1      34.994 -17.837 -22.409  0.00  0.00    +0.065 C 
ATOM      3  C   UNL     1      34.597 -15.563 -23.120  0.00  0.00    +0.000 C 
ATOM      4  C   UNL     1      35.013 -16.468 -22.145  0.00  0.00    +0.005 C 
ATOM      5  C   UNL     1      34.559 -18.302 -23.651  0.00  0.00    +0.143 C 
ATOM      6  C   UNL     1      34.162 -16.027 -24.362  0.00  0.00    +0.002 C 
ATOM      7  C   UNL     1      34.143 -17.396 -24.627  0.00  0.00    +0.030 C 
ENDROOT
BRANCH   2  10
ATOM      8  O   UNL     1      36.655 -18.538 -20.882  0.00  0.00    -0.353 OA
ATOM      9  N   UNL     1      36.934 -19.508 -19.926  0.00  0.00    -0.070 NA
ATOM     10  C   UNL     1      35.425 -18.771 -21.397  0.00  0.00    +0.179 C 
ATOM     11  C   UNL     1      34.868 -19.870 -20.813  0.00  0.00    +0.069 C 
ATOM     12  C   UNL     1      35.852 -20.292 -19.903  0.00  0.00    +0.198 C 
BRANCH  12  14
ATOM     13  O   UNL     1      35.042 -22.389 -19.132  0.00  0.00    -0.243 OA
ATOM     14  C   UNL     1      35.800 -21.413 -19.010  0.00  0.00    +0.359 C 
BRANCH  14  15
ATOM     15  O   UNL     1      36.673 -21.355 -17.953  0.00  0.00    -0.476 OA
ATOM     16  H   UNL     1      37.494 -21.806 -17.997  0.00  0.00    +0.295 HD
ENDBRANCH  14  15
ENDBRANCH  12  14
ENDBRANCH   2  10
BRANCH   3  17
ATOM     17  C   UNL     1      34.616 -14.135 -22.844  0.00  0.00    -0.001 C 
ATOM     18  C   UNL     1      33.838 -13.202 -23.439  0.00  0.00    +0.021 C 
BRANCH  18  19
ATOM     19  C   UNL     1      33.884 -11.744 -23.111  0.00  0.00    +0.232 C 
BRANCH  19  20
ATOM     20  O   UNL     1      32.556 -11.276 -22.926  0.00  0.00    -0.470 OA
BRANCH  20  21
ATOM     21  C   UNL     1      32.283 -10.635 -21.745  0.00  0.00    +0.148 C 
ATOM     22  C   UNL     1      32.324  -9.248 -21.664  0.00  0.00    +0.143 C 
ATOM     23  C   UNL     1      32.042  -8.617 -20.453  0.00  0.00    +0.143 C 
ATOM     24  C   UNL     1      31.963 -11.400 -20.628  0.00  0.00    +0.037 C 
ATOM     25  C   UNL     1      31.720  -9.377 -19.329  0.00  0.00    +0.037 C 
ATOM     26  C   UNL     1      31.680 -10.769 -19.417  0.00  0.00    +0.006 C 
BRANCH  23  27
ATOM     27  O   UNL     1      32.074  -7.259 -20.346  0.00  0.00    -0.505 OA
ATOM     28  H   UNL     1      31.394  -6.742 -20.733  0.00  0.00    +0.292 HD
ENDBRANCH  23  27
BRANCH  22  30
ATOM     29  O   UNL     1      31.827  -7.914 -23.578  0.00  0.00    -0.245 OA
ATOM     30  C   UNL     1      32.661  -8.452 -22.840  0.00  0.00    +0.347 C 
BRANCH  30  31
ATOM     31  O   UNL     1      34.012  -8.377 -23.022  0.00  0.00    -0.441 OA
ATOM     32  C   UNL     1      34.625  -7.108 -22.771  0.00  0.00    +0.256 C 
ENDBRANCH  30  31
ENDBRANCH  22  30
ENDBRANCH  20  21
ENDBRANCH  19  20
ENDBRANCH  18  19
ENDBRANCH   3  17
TORSDOF 10
ENDMDL
MODEL 7
REMARK VINA RESULT:     -10.2      6.017      7.268
REMARK  Name = 447994
REMARK  10 active torsions:
REMARK  status: ('A' for Active; 'I' for Inactive)
REMARK    1  A    between atoms: C_2  and  C_10
REMARK    2  A    between atoms: C_3  and  C_17
REMARK    3  A    between atoms: C_12  and  C_14
REMARK    4  A    between atoms: C_14  and  O_15
REMARK    5  A    between atoms: C_18  and  C_19
REMARK    6  A    between atoms: C_19  and  O_20
REMARK    7  A    between atoms: O_20  and  C_21
REMARK    8  A    between atoms: C_22  and  C_30
REMARK    9  A    between atoms: C_23  and  O_27
REMARK   10  A    between atoms: C_30  and  O_31
REMARK                            x       y       z     vdW  Elec       q    Type
REMARK                         _______ _______ _______ _____ _____    ______ ____
ROOT
ATOM      1  F   UNL     1      28.565 -25.314 -13.812  0.00  0.00    -0.204 F 
ATOM      2  C   UNL     1      29.853 -23.585 -14.816  0.00  0.00    +0.065 C 
ATOM      3  C   UNL     1      32.240 -23.540 -14.448  0.00  0.00    +0.000 C 
ATOM      4  C   UNL     1      31.097 -22.991 -15.027  0.00  0.00    +0.005 C 
ATOM      5  C   UNL     1      29.752 -24.730 -14.025  0.00  0.00    +0.143 C 
ATOM      6  C   UNL     1      32.140 -24.685 -13.657  0.00  0.00    +0.002 C 
ATOM      7  C   UNL     1      30.896 -25.280 -13.446  0.00  0.00    +0.030 C 
ENDROOT
BRANCH   2  10
ATOM      8  O   UNL     1      27.579 -22.971 -14.618  0.00  0.00    -0.353 OA
ATOM      9  N   UNL     1      26.528 -22.399 -15.325  0.00  0.00    -0.070 NA
ATOM     10  C   UNL     1      28.672 -23.014 -15.416  0.00  0.00    +0.179 C 
ATOM     11  C   UNL     1      28.384 -22.486 -16.640  0.00  0.00    +0.069 C 
ATOM     12  C   UNL     1      27.032 -22.118 -16.529  0.00  0.00    +0.198 C 
BRANCH  12  14
ATOM     13  O   UNL     1      25.704 -22.096 -18.500  0.00  0.00    -0.243 OA
ATOM     14  C   UNL     1      26.204 -21.508 -17.527  0.00  0.00    +0.359 C 
BRANCH  14  15
ATOM     15  O   UNL     1      25.975 -20.166 -17.351  0.00  0.00    -0.476 OA
ATOM     16  H   UNL     1      26.497 -19.536 -17.809  0.00  0.00    +0.295 HD
ENDBRANCH  14  15
ENDBRANCH  12  14
ENDBRANCH   2  10
BRANCH   3  17
ATOM     17  C   UNL     1      33.538 -22.920 -14.669  0.00  0.00    -0.001 C 
ATOM     18  C   UNL     1      34.539 -23.425 -15.424  0.00  0.00    +0.021 C 
BRANCH  18  19
ATOM     19  C   UNL     1      35.853 -22.743 -15.633  0.00  0.00    +0.232 C 
BRANCH  19  20
ATOM     20  O   UNL     1      36.895 -23.649 -15.303  0.00  0.00    -0.470 OA
BRANCH  20  21
ATOM     21  C   UNL     1      36.960 -24.071 -14.000  0.00  0.00    +0.148 C 
ATOM     22  C   UNL     1      36.977 -25.426 -13.691  0.00  0.00    +0.143 C 
ATOM     23  C   UNL     1      37.045 -25.832 -12.359  0.00  0.00    +0.143 C 
ATOM     24  C   UNL     1      37.010 -23.115 -12.990  0.00  0.00    +0.037 C 
ATOM     25  C   UNL     1      37.095 -24.880 -11.342  0.00  0.00    +0.037 C 
ATOM     26  C   UNL     1      37.078 -23.522 -11.657  0.00  0.00    +0.006 C 
BRANCH  23  27
ATOM     27  O   UNL     1      37.065 -27.155 -12.029  0.00  0.00    -0.505 OA
ATOM     28  H   UNL     1      37.823 -27.524 -11.621  0.00  0.00    +0.292 HD
ENDBRANCH  23  27
BRANCH  22  30
ATOM     29  O   UNL     1      35.950 -26.605 -15.493  0.00  0.00    -0.245 OA
ATOM     30  C   UNL     1      36.926 -26.424 -14.756  0.00  0.00    +0.347 C 
BRANCH  30  31
ATOM     31  O   UNL     1      38.093 -27.129 -14.835  0.00  0.00    -0.441 OA
ATOM     32  C   UNL     1      38.101 -28.262 -15.711  0.00  0.00    +0.256 C 
ENDBRANCH  30  31
ENDBRANCH  22  30
ENDBRANCH  20  21
ENDBRANCH  19  20
ENDBRANCH  18  19
ENDBRANCH   3  17
TORSDOF 10
ENDMDL
MODEL 8
REMARK VINA RESULT:     -10.2      3.746      6.041
REMARK  Name = 447994
REMARK  10 active torsions:
REMARK  status: ('A' for Active; 'I' for Inactive)
REMARK    1  A    between atoms: C_2  and  C_10
REMARK    2  A    between atoms: C_3  and  C_17
REMARK    3  A    between atoms: C_12  and  C_14
REMARK    4  A    between atoms: C_14  and  O_15
REMARK    5  A    between atoms: C_18  and  C_19
REMARK    6  A    between atoms: C_19  and  O_20
REMARK    7  A    between atoms: O_20  and  C_21
REMARK    8  A    between atoms: C_22  and  C_30
REMARK    9  A    between atoms: C_23  and  O_27
REMARK   10  A    between atoms: C_30  and  O_31
REMARK                            x       y       z     vdW  Elec       q    Type
REMARK                         _______ _______ _______ _____ _____    ______ ____
ROOT
ATOM      1  F   UNL     1      33.621 -14.765 -25.224  0.00  0.00    -0.204 F 
ATOM      2  C   UNL     1      34.150 -14.921 -22.911  0.00  0.00    +0.065 C 
ATOM      3  C   UNL     1      35.216 -16.926 -22.087  0.00  0.00    +0.000 C 
ATOM      4  C   UNL     1      34.690 -15.656 -21.856  0.00  0.00    +0.005 C 
ATOM      5  C   UNL     1      34.136 -15.458 -24.199  0.00  0.00    +0.143 C 
ATOM      6  C   UNL     1      35.202 -17.463 -23.375  0.00  0.00    +0.002 C 
ATOM      7  C   UNL     1      34.662 -16.729 -24.431  0.00  0.00    +0.030 C 
ENDROOT
BRANCH   2  10
ATOM      8  O   UNL     1      34.196 -12.601 -23.357  0.00  0.00    -0.353 OA
ATOM      9  N   UNL     1      33.574 -11.403 -23.025  0.00  0.00    -0.070 NA
ATOM     10  C   UNL     1      33.608 -13.607 -22.668  0.00  0.00    +0.179 C 
ATOM     11  C   UNL     1      32.606 -13.118 -21.881  0.00  0.00    +0.069 C 
ATOM     12  C   UNL     1      32.628 -11.737 -22.143  0.00  0.00    +0.198 C 
BRANCH  12  14
ATOM     13  O   UNL     1      32.054  -9.515 -21.528  0.00  0.00    -0.243 OA
ATOM     14  C   UNL     1      31.781 -10.725 -21.584  0.00  0.00    +0.359 C 
BRANCH  14  15
ATOM     15  O   UNL     1      30.587 -11.179 -21.082  0.00  0.00    -0.476 OA
ATOM     16  H   UNL     1      30.226 -11.988 -21.389  0.00  0.00    +0.295 HD
ENDBRANCH  14  15
ENDBRANCH  12  14
ENDBRANCH   2  10
BRANCH   3  17
ATOM     17  C   UNL     1      35.780 -17.693 -20.987  0.00  0.00    -0.001 C 
ATOM     18  C   UNL     1      36.130 -18.999 -21.028  0.00  0.00    +0.021 C 
BRANCH  18  19
ATOM     19  C   UNL     1      36.720 -19.741 -19.872  0.00  0.00    +0.232 C 
BRANCH  19  20
ATOM     20  O   UNL     1      35.954 -20.915 -19.646  0.00  0.00    -0.470 OA
BRANCH  20  21
ATOM     21  C   UNL     1      36.003 -21.453 -18.385  0.00  0.00    +0.148 C 
ATOM     22  C   UNL     1      34.955 -22.231 -17.904  0.00  0.00    +0.143 C 
ATOM     23  C   UNL     1      35.026 -22.769 -16.620  0.00  0.00    +0.143 C 
ATOM     24  C   UNL     1      37.122 -21.208 -17.596  0.00  0.00    +0.037 C 
ATOM     25  C   UNL     1      36.145 -22.527 -15.823  0.00  0.00    +0.037 C 
ATOM     26  C   UNL     1      37.193 -21.747 -16.312  0.00  0.00    +0.006 C 
BRANCH  23  27
ATOM     27  O   UNL     1      34.014 -23.536 -16.123  0.00  0.00    -0.505 OA
ATOM     28  H   UNL     1      33.330 -23.833 -16.691  0.00  0.00    +0.292 HD
ENDBRANCH  23  27
BRANCH  22  30
ATOM     29  O   UNL     1      33.628 -23.498 -19.428  0.00  0.00    -0.245 OA
ATOM     30  C   UNL     1      33.784 -22.485 -18.738  0.00  0.00    +0.347 C 
BRANCH  30  31
ATOM     31  O   UNL     1      32.883 -21.461 -18.657  0.00  0.00    -0.441 OA
ATOM     32  C   UNL     1      32.706 -20.667 -19.835  0.00  0.00    +0.256 C 
ENDBRANCH  30  31
ENDBRANCH  22  30
ENDBRANCH  20  21
ENDBRANCH  19  20
ENDBRANCH  18  19
ENDBRANCH   3  17
TORSDOF 10
ENDMDL
MODEL 9
REMARK VINA RESULT:     -10.0      9.323     16.470
REMARK  Name = 447994
REMARK  10 active torsions:
REMARK  status: ('A' for Active; 'I' for Inactive)
REMARK    1  A    between atoms: C_2  and  C_10
REMARK    2  A    between atoms: C_3  and  C_17
REMARK    3  A    between atoms: C_12  and  C_14
REMARK    4  A    between atoms: C_14  and  O_15
REMARK    5  A    between atoms: C_18  and  C_19
REMARK    6  A    between atoms: C_19  and  O_20
REMARK    7  A    between atoms: O_20  and  C_21
REMARK    8  A    between atoms: C_22  and  C_30
REMARK    9  A    between atoms: C_23  and  O_27
REMARK   10  A    between atoms: C_30  and  O_31
REMARK                            x       y       z     vdW  Elec       q    Type
REMARK                         _______ _______ _______ _____ _____    ______ ____
ROOT
ATOM      1  F   UNL     1      31.910 -13.428 -20.651  0.00  0.00    -0.204 F 
ATOM      2  C   UNL     1      32.862 -12.190 -22.444  0.00  0.00    +0.065 C 
ATOM      3  C   UNL     1      32.629  -9.786 -22.461  0.00  0.00    +0.000 C 
ATOM      4  C   UNL     1      33.101 -10.957 -23.051  0.00  0.00    +0.005 C 
ATOM      5  C   UNL     1      32.149 -12.251 -21.247  0.00  0.00    +0.143 C 
ATOM      6  C   UNL     1      31.916  -9.847 -21.263  0.00  0.00    +0.002 C 
ATOM      7  C   UNL     1      31.676 -11.080 -20.656  0.00  0.00    +0.030 C 
ENDROOT
BRANCH   2  10
ATOM      8  O   UNL     1      33.078 -13.533 -24.376  0.00  0.00    -0.353 OA
ATOM      9  N   UNL     1      33.609 -14.736 -24.828  0.00  0.00    -0.070 NA
ATOM     10  C   UNL     1      33.353 -13.400 -23.057  0.00  0.00    +0.179 C 
ATOM     11  C   UNL     1      34.056 -14.480 -22.610  0.00  0.00    +0.069 C 
ATOM     12  C   UNL     1      34.188 -15.283 -23.756  0.00  0.00    +0.198 C 
BRANCH  12  14
ATOM     13  O   UNL     1      34.604 -17.410 -24.731  0.00  0.00    -0.243 OA
ATOM     14  C   UNL     1      34.846 -16.552 -23.867  0.00  0.00    +0.359 C 
BRANCH  14  15
ATOM     15  O   UNL     1      35.810 -16.792 -22.920  0.00  0.00    -0.476 OA
ATOM     16  H   UNL     1      35.792 -17.586 -22.422  0.00  0.00    +0.295 HD
ENDBRANCH  14  15
ENDBRANCH  12  14
ENDBRANCH   2  10
BRANCH   3  17
ATOM     17  C   UNL     1      32.879  -8.500 -23.093  0.00  0.00    -0.001 C 
ATOM     18  C   UNL     1      34.022  -7.783 -23.008  0.00  0.00    +0.021 C 
BRANCH  18  19
ATOM     19  C   UNL     1      34.237  -6.470 -23.689  0.00  0.00    +0.232 C 
BRANCH  19  20
ATOM     20  O   UNL     1      32.995  -6.016 -24.206  0.00  0.00    -0.470 OA
BRANCH  20  21
ATOM     21  C   UNL     1      32.700  -4.688 -24.032  0.00  0.00    +0.148 C 
ATOM     22  C   UNL     1      31.959  -4.263 -22.935  0.00  0.00    +0.143 C 
ATOM     23  C   UNL     1      31.671  -2.908 -22.777  0.00  0.00    +0.143 C 
ATOM     24  C   UNL     1      33.157  -3.772 -24.974  0.00  0.00    +0.037 C 
ATOM     25  C   UNL     1      32.127  -1.984 -23.717  0.00  0.00    +0.037 C 
ATOM     26  C   UNL     1      32.870  -2.417 -24.816  0.00  0.00    +0.006 C 
BRANCH  23  27
ATOM     27  O   UNL     1      30.948  -2.464 -21.710  0.00  0.00    -0.505 OA
ATOM     28  H   UNL     1      31.326  -1.851 -21.111  0.00  0.00    +0.292 HD
ENDBRANCH  23  27
BRANCH  22  30
ATOM     29  O   UNL     1      30.538  -6.004 -22.135  0.00  0.00    -0.245 OA
ATOM     30  C   UNL     1      31.483  -5.229 -21.950  0.00  0.00    +0.347 C 
BRANCH  30  31
ATOM     31  O   UNL     1      32.216  -5.170 -20.799  0.00  0.00    -0.441 OA
ATOM     32  C   UNL     1      32.270  -6.362 -20.009  0.00  0.00    +0.256 C 
ENDBRANCH  30  31
ENDBRANCH  22  30
ENDBRANCH  20  21
ENDBRANCH  19  20
ENDBRANCH  18  19
ENDBRANCH   3  17
TORSDOF 10
ENDMDL
