MODEL 1
REMARK VINA RESULT:     -11.1      0.000      0.000
REMARK  Name = 4470378
REMARK  6 active torsions:
REMARK  status: ('A' for Active; 'I' for Inactive)
REMARK    1  A    between atoms: C_5  and  O_10
REMARK    2  A    between atoms: C_6  and  O_24
REMARK    3  A    between atoms: O_10  and  C_11
REMARK    4  A    between atoms: C_12  and  C_19
REMARK    5  A    between atoms: O_24  and  C_25
REMARK    6  A    between atoms: C_26  and  C_33
REMARK                            x       y       z     vdW  Elec       q    Type
REMARK                         _______ _______ _______ _____ _____    ______ ____
ROOT
ATOM      1  F   UNL     1      31.707 -11.636 -21.651  0.00  0.00    -0.221 F 
ATOM      2  F   UNL     1      34.367 -15.351 -20.341  0.00  0.00    -0.199 F 
ATOM      3  N   UNL     1      34.245 -13.496 -23.457  0.00  0.00    -0.331 NA
ATOM      4  C   UNL     1      33.013 -13.494 -20.948  0.00  0.00    +0.031 C 
ATOM      5  C   UNL     1      33.288 -12.597 -23.133  0.00  0.00    +0.298 C 
ATOM      6  C   UNL     1      34.563 -14.383 -22.498  0.00  0.00    +0.312 C 
ATOM      7  C   UNL     1      32.648 -12.554 -21.905  0.00  0.00    +0.270 C 
ATOM      8  C   UNL     1      33.994 -14.435 -21.243  0.00  0.00    +0.201 C 
ATOM      9  C   UNL     1      32.355 -13.494 -19.610  0.00  0.00    +0.032 C 
ENDROOT
BRANCH   5  10
ATOM     10  O   UNL     1      32.945 -11.683 -24.094  0.00  0.00    -0.428 OA
BRANCH  10  11
ATOM     11  C   UNL     1      33.478 -10.415 -23.983  0.00  0.00    +0.148 C 
ATOM     12  C   UNL     1      33.271  -8.135 -23.263  0.00  0.00    +0.032 C 
ATOM     13  C   UNL     1      32.733  -9.418 -23.374  0.00  0.00    +0.040 C 
ATOM     14  C   UNL     1      34.746 -10.165 -24.482  0.00  0.00    +0.038 C 
ATOM     15  C   UNL     1      34.547  -7.869 -23.760  0.00  0.00    +0.003 C 
ATOM     16  C   UNL     1      35.284  -8.884 -24.370  0.00  0.00    +0.003 C 
BRANCH  12  19
ATOM     17  N   UNL     1      33.124  -5.997 -22.134  0.00  0.00    -0.387 N 
ATOM     18  N   UNL     1      31.171  -7.178 -22.530  0.00  0.00    -0.345 N 
ATOM     19  C   UNL     1      32.508  -7.083 -22.631  0.00  0.00    +0.096 C 
ATOM     20  H   UNL     1      32.597  -5.285 -21.705  0.00  0.00    +0.157 HD
ATOM     21  H   UNL     1      34.104  -5.913 -22.200  0.00  0.00    +0.157 HD
ATOM     22  H   UNL     1      30.658  -6.457 -22.097  0.00  0.00    +0.144 HD
ATOM     23  H   UNL     1      30.705  -7.968 -22.887  0.00  0.00    +0.144 HD
ENDBRANCH  12  19
ENDBRANCH  10  11
ENDBRANCH   5  10
BRANCH   6  24
ATOM     24  O   UNL     1      35.541 -15.310 -22.818  0.00  0.00    -0.426 OA
BRANCH  24  25
ATOM     25  C   UNL     1      35.181 -16.621 -22.858  0.00  0.00    +0.148 C 
ATOM     26  C   UNL     1      35.079 -18.796 -21.809  0.00  0.00    +0.034 C 
ATOM     27  C   UNL     1      35.447 -17.451 -21.768  0.00  0.00    +0.040 C 
ATOM     28  C   UNL     1      34.548 -17.137 -23.988  0.00  0.00    +0.038 C 
ATOM     29  C   UNL     1      34.446 -19.312 -22.939  0.00  0.00    +0.003 C 
ATOM     30  C   UNL     1      34.180 -18.482 -24.029  0.00  0.00    +0.003 C 
BRANCH  26  33
ATOM     31  N   UNL     1      36.613 -19.683 -20.070  0.00  0.00    -0.343 N 
ATOM     32  N   UNL     1      34.409 -20.448 -20.198  0.00  0.00    -0.285 NA
ATOM     33  C   UNL     1      35.357 -19.661 -20.673  0.00  0.00    +0.117 C 
ATOM     34  H   UNL     1      36.780 -20.276 -19.302  0.00  0.00    +0.144 HD
ATOM     35  H   UNL     1      37.335 -19.106 -20.411  0.00  0.00    +0.144 HD
ATOM     36  H   UNL     1      34.596 -21.034 -19.429  0.00  0.00    +0.188 HD
ENDBRANCH  26  33
ENDBRANCH  24  25
ENDBRANCH   6  24
TORSDOF 6
ENDMDL
MODEL 2
REMARK VINA RESULT:     -11.0      0.053      8.836
REMARK  Name = 4470378
REMARK  6 active torsions:
REMARK  status: ('A' for Active; 'I' for Inactive)
REMARK    1  A    between atoms: C_5  and  O_10
REMARK    2  A    between atoms: C_6  and  O_24
REMARK    3  A    between atoms: O_10  and  C_11
REMARK    4  A    between atoms: C_12  and  C_19
REMARK    5  A    between atoms: O_24  and  C_25
REMARK    6  A    between atoms: C_26  and  C_33
REMARK                            x       y       z     vdW  Elec       q    Type
REMARK                         _______ _______ _______ _____ _____    ______ ____
ROOT
ATOM      1  F   UNL     1      34.342 -15.338 -20.293  0.00  0.00    -0.221 F 
ATOM      2  F   UNL     1      31.655 -11.646 -21.613  0.00  0.00    -0.199 F 
ATOM      3  N   UNL     1      34.224 -13.477 -23.405  0.00  0.00    -0.331 NA
ATOM      4  C   UNL     1      32.975 -13.492 -20.905  0.00  0.00    +0.031 C 
ATOM      5  C   UNL     1      34.554 -14.373 -22.448  0.00  0.00    +0.298 C 
ATOM      6  C   UNL     1      33.261 -12.598 -23.076  0.00  0.00    +0.312 C 
ATOM      7  C   UNL     1      33.966 -14.423 -21.195  0.00  0.00    +0.270 C 
ATOM      8  C   UNL     1      32.607 -12.553 -21.863  0.00  0.00    +0.201 C 
ATOM      9  C   UNL     1      32.309 -13.499 -19.571  0.00  0.00    +0.032 C 
ENDROOT
BRANCH   5  10
ATOM     10  O   UNL     1      35.534 -15.279 -22.759  0.00  0.00    -0.428 OA
BRANCH  10  11
ATOM     11  C   UNL     1      35.175 -16.610 -22.814  0.00  0.00    +0.148 C 
ATOM     12  C   UNL     1      35.081 -18.777 -21.789  0.00  0.00    +0.032 C 
ATOM     13  C   UNL     1      35.445 -17.431 -21.732  0.00  0.00    +0.040 C 
ATOM     14  C   UNL     1      34.552 -17.097 -23.952  0.00  0.00    +0.038 C 
ATOM     15  C   UNL     1      34.453 -19.282 -22.927  0.00  0.00    +0.003 C 
ATOM     16  C   UNL     1      34.189 -18.442 -24.009  0.00  0.00    +0.003 C 
BRANCH  12  19
ATOM     17  N   UNL     1      36.578 -19.675 -20.109  0.00  0.00    -0.387 N 
ATOM     18  N   UNL     1      34.394 -20.444 -20.172  0.00  0.00    -0.345 N 
ATOM     19  C   UNL     1      35.356 -19.648 -20.668  0.00  0.00    +0.096 C 
ATOM     20  H   UNL     1      36.757 -20.270 -19.346  0.00  0.00    +0.157 HD
ATOM     21  H   UNL     1      37.294 -19.097 -20.462  0.00  0.00    +0.157 HD
ATOM     22  H   UNL     1      34.589 -21.035 -19.409  0.00  0.00    +0.144 HD
ATOM     23  H   UNL     1      33.494 -20.437 -20.572  0.00  0.00    +0.144 HD
ENDBRANCH  12  19
ENDBRANCH  10  11
ENDBRANCH   5  10
BRANCH   6  24
ATOM     24  O   UNL     1      32.915 -11.673 -24.047  0.00  0.00    -0.426 OA
BRANCH  24  25
ATOM     25  C   UNL     1      33.443 -10.423 -23.947  0.00  0.00    +0.148 C 
ATOM     26  C   UNL     1      33.245  -8.118 -23.250  0.00  0.00    +0.034 C 
ATOM     27  C   UNL     1      32.704  -9.400 -23.352  0.00  0.00    +0.040 C 
ATOM     28  C   UNL     1      34.722 -10.164 -24.440  0.00  0.00    +0.038 C 
ATOM     29  C   UNL     1      34.524  -7.859 -23.744  0.00  0.00    +0.003 C 
ATOM     30  C   UNL     1      35.262  -8.882 -24.338  0.00  0.00    +0.003 C 
BRANCH  26  33
ATOM     31  N   UNL     1      33.088  -5.886 -22.173  0.00  0.00    -0.343 N 
ATOM     32  N   UNL     1      31.168  -7.180 -22.488  0.00  0.00    -0.285 NA
ATOM     33  C   UNL     1      32.475  -7.051 -22.630  0.00  0.00    +0.117 C 
ATOM     34  H   UNL     1      32.548  -5.177 -21.756  0.00  0.00    +0.144 HD
ATOM     35  H   UNL     1      34.062  -5.773 -22.267  0.00  0.00    +0.144 HD
ATOM     36  H   UNL     1      30.645  -6.459 -22.069  0.00  0.00    +0.188 HD
ENDBRANCH  26  33
ENDBRANCH  24  25
ENDBRANCH   6  24
TORSDOF 6
ENDMDL
MODEL 3
REMARK VINA RESULT:     -10.9      8.236     11.802
REMARK  Name = 4470378
REMARK  6 active torsions:
REMARK  status: ('A' for Active; 'I' for Inactive)
REMARK    1  A    between atoms: C_5  and  O_10
REMARK    2  A    between atoms: C_6  and  O_24
REMARK    3  A    between atoms: O_10  and  C_11
REMARK    4  A    between atoms: C_12  and  C_19
REMARK    5  A    between atoms: O_24  and  C_25
REMARK    6  A    between atoms: C_26  and  C_33
REMARK                            x       y       z     vdW  Elec       q    Type
REMARK                         _______ _______ _______ _____ _____    ______ ____
ROOT
ATOM      1  F   UNL     1      32.183 -23.295 -17.825  0.00  0.00    -0.221 F 
ATOM      2  F   UNL     1      33.433 -23.004 -13.249  0.00  0.00    -0.199 F 
ATOM      3  N   UNL     1      35.421 -22.770 -16.275  0.00  0.00    -0.331 NA
ATOM      4  C   UNL     1      32.756 -23.158 -15.522  0.00  0.00    +0.031 C 
ATOM      5  C   UNL     1      34.438 -22.939 -17.190  0.00  0.00    +0.298 C 
ATOM      6  C   UNL     1      35.033 -22.801 -14.988  0.00  0.00    +0.312 C 
ATOM      7  C   UNL     1      33.105 -23.134 -16.869  0.00  0.00    +0.270 C 
ATOM      8  C   UNL     1      33.739 -22.988 -14.552  0.00  0.00    +0.201 C 
ATOM      9  C   UNL     1      31.336 -23.366 -15.120  0.00  0.00    +0.032 C 
ENDROOT
BRANCH   5  10
ATOM     10  O   UNL     1      34.808 -22.913 -18.508  0.00  0.00    -0.428 OA
BRANCH  10  11
ATOM     11  C   UNL     1      34.585 -21.744 -19.207  0.00  0.00    +0.148 C 
ATOM     12  C   UNL     1      35.438 -19.783 -20.295  0.00  0.00    +0.032 C 
ATOM     13  C   UNL     1      35.665 -20.965 -19.589  0.00  0.00    +0.040 C 
ATOM     14  C   UNL     1      33.285 -21.374 -19.512  0.00  0.00    +0.038 C 
ATOM     15  C   UNL     1      34.135 -19.397 -20.609  0.00  0.00    +0.003 C 
ATOM     16  C   UNL     1      33.058 -20.192 -20.217  0.00  0.00    +0.003 C 
BRANCH  12  19
ATOM     17  N   UNL     1      37.507 -18.618 -19.816  0.00  0.00    -0.387 N 
ATOM     18  N   UNL     1      36.652 -18.519 -21.967  0.00  0.00    -0.345 N 
ATOM     19  C   UNL     1      36.554 -18.958 -20.701  0.00  0.00    +0.096 C 
ATOM     20  H   UNL     1      38.264 -18.056 -20.100  0.00  0.00    +0.157 HD
ATOM     21  H   UNL     1      37.449 -18.931 -18.884  0.00  0.00    +0.157 HD
ATOM     22  H   UNL     1      37.415 -17.957 -22.235  0.00  0.00    +0.144 HD
ATOM     23  H   UNL     1      35.961 -18.759 -22.626  0.00  0.00    +0.144 HD
ENDBRANCH  12  19
ENDBRANCH  10  11
ENDBRANCH   5  10
BRANCH   6  24
ATOM     24  O   UNL     1      36.031 -22.631 -14.042  0.00  0.00    -0.426 OA
BRANCH  24  25
ATOM     25  C   UNL     1      36.730 -23.732 -13.656  0.00  0.00    +0.148 C 
ATOM     26  C   UNL     1      38.614 -25.219 -13.935  0.00  0.00    +0.034 C 
ATOM     27  C   UNL     1      37.898 -24.089 -14.330  0.00  0.00    +0.040 C 
ATOM     28  C   UNL     1      36.278 -24.506 -12.587  0.00  0.00    +0.038 C 
ATOM     29  C   UNL     1      38.163 -25.993 -12.867  0.00  0.00    +0.003 C 
ATOM     30  C   UNL     1      36.994 -25.636 -12.192  0.00  0.00    +0.003 C 
BRANCH  26  33
ATOM     31  N   UNL     1      39.826 -26.572 -15.628  0.00  0.00    -0.343 N 
ATOM     32  N   UNL     1      40.973 -24.997 -14.338  0.00  0.00    -0.285 NA
ATOM     33  C   UNL     1      39.832 -25.591 -14.639  0.00  0.00    +0.117 C 
ATOM     34  H   UNL     1      40.661 -26.808 -16.092  0.00  0.00    +0.144 HD
ATOM     35  H   UNL     1      38.986 -27.028 -15.865  0.00  0.00    +0.144 HD
ATOM     36  H   UNL     1      41.798 -25.248 -14.813  0.00  0.00    +0.188 HD
ENDBRANCH  26  33
ENDBRANCH  24  25
ENDBRANCH   6  24
TORSDOF 6
ENDMDL
MODEL 4
REMARK VINA RESULT:     -10.9      8.227     13.778
REMARK  Name = 4470378
REMARK  6 active torsions:
REMARK  status: ('A' for Active; 'I' for Inactive)
REMARK    1  A    between atoms: C_5  and  O_10
REMARK    2  A    between atoms: C_6  and  O_24
REMARK    3  A    between atoms: O_10  and  C_11
REMARK    4  A    between atoms: C_12  and  C_19
REMARK    5  A    between atoms: O_24  and  C_25
REMARK    6  A    between atoms: C_26  and  C_33
REMARK                            x       y       z     vdW  Elec       q    Type
REMARK                         _______ _______ _______ _____ _____    ______ ____
ROOT
ATOM      1  F   UNL     1      34.031 -22.916 -13.258  0.00  0.00    -0.221 F 
ATOM      2  F   UNL     1      32.137 -23.155 -17.611  0.00  0.00    -0.199 F 
ATOM      3  N   UNL     1      35.584 -22.802 -16.535  0.00  0.00    -0.331 NA
ATOM      4  C   UNL     1      33.034 -23.039 -15.413  0.00  0.00    +0.031 C 
ATOM      5  C   UNL     1      35.391 -22.805 -15.196  0.00  0.00    +0.298 C 
ATOM      6  C   UNL     1      34.474 -22.920 -17.286  0.00  0.00    +0.312 C 
ATOM      7  C   UNL     1      34.150 -22.920 -14.591  0.00  0.00    +0.270 C 
ATOM      8  C   UNL     1      33.192 -23.040 -16.795  0.00  0.00    +0.201 C 
ATOM      9  C   UNL     1      31.674 -23.165 -14.815  0.00  0.00    +0.032 C 
ENDROOT
BRANCH   5  10
ATOM     10  O   UNL     1      36.506 -22.685 -14.409  0.00  0.00    -0.428 OA
BRANCH  10  11
ATOM     11  C   UNL     1      36.990 -23.832 -13.815  0.00  0.00    +0.148 C 
ATOM     12  C   UNL     1      37.365 -26.202 -13.880  0.00  0.00    +0.032 C 
ATOM     13  C   UNL     1      36.876 -25.041 -14.482  0.00  0.00    +0.040 C 
ATOM     14  C   UNL     1      37.579 -23.751 -12.564  0.00  0.00    +0.038 C 
ATOM     15  C   UNL     1      37.961 -26.136 -12.621  0.00  0.00    +0.003 C 
ATOM     16  C   UNL     1      38.068 -24.910 -11.962  0.00  0.00    +0.003 C 
BRANCH  12  19
ATOM     17  N   UNL     1      37.816 -27.647 -15.770  0.00  0.00    -0.387 N 
ATOM     18  N   UNL     1      36.587 -28.492 -13.997  0.00  0.00    -0.345 N 
ATOM     19  C   UNL     1      37.255 -27.471 -14.561  0.00  0.00    +0.096 C 
ATOM     20  H   UNL     1      37.736 -28.515 -16.228  0.00  0.00    +0.157 HD
ATOM     21  H   UNL     1      38.308 -26.908 -16.197  0.00  0.00    +0.157 HD
ATOM     22  H   UNL     1      36.515 -29.354 -14.469  0.00  0.00    +0.144 HD
ATOM     23  H   UNL     1      36.169 -28.378 -13.113  0.00  0.00    +0.144 HD
ENDBRANCH  12  19
ENDBRANCH  10  11
ENDBRANCH   5  10
BRANCH   6  24
ATOM     24  O   UNL     1      34.659 -22.916 -18.659  0.00  0.00    -0.426 OA
BRANCH  24  25
ATOM     25  C   UNL     1      34.519 -21.731 -19.312  0.00  0.00    +0.148 C 
ATOM     26  C   UNL     1      35.503 -19.762 -20.309  0.00  0.00    +0.034 C 
ATOM     27  C   UNL     1      35.647 -20.977 -19.640  0.00  0.00    +0.040 C 
ATOM     28  C   UNL     1      33.248 -21.267 -19.652  0.00  0.00    +0.038 C 
ATOM     29  C   UNL     1      34.232 -19.298 -20.649  0.00  0.00    +0.003 C 
ATOM     30  C   UNL     1      33.105 -20.052 -20.321  0.00  0.00    +0.003 C 
BRANCH  26  33
ATOM     31  N   UNL     1      36.938 -18.594 -21.965  0.00  0.00    -0.343 N 
ATOM     32  N   UNL     1      37.529 -18.618 -19.705  0.00  0.00    -0.285 NA
ATOM     33  C   UNL     1      36.679 -18.977 -20.650  0.00  0.00    +0.117 C 
ATOM     34  H   UNL     1      37.739 -18.063 -22.175  0.00  0.00    +0.144 HD
ATOM     35  H   UNL     1      36.318 -18.855 -22.685  0.00  0.00    +0.144 HD
ATOM     36  H   UNL     1      38.325 -18.087 -19.935  0.00  0.00    +0.188 HD
ENDBRANCH  26  33
ENDBRANCH  24  25
ENDBRANCH   6  24
TORSDOF 6
ENDMDL
MODEL 5
REMARK VINA RESULT:     -10.6     10.264     13.221
REMARK  Name = 4470378
REMARK  6 active torsions:
REMARK  status: ('A' for Active; 'I' for Inactive)
REMARK    1  A    between atoms: C_5  and  O_10
REMARK    2  A    between atoms: C_6  and  O_24
REMARK    3  A    between atoms: O_10  and  C_11
REMARK    4  A    between atoms: C_12  and  C_19
REMARK    5  A    between atoms: O_24  and  C_25
REMARK    6  A    between atoms: C_26  and  C_33
REMARK                            x       y       z     vdW  Elec       q    Type
REMARK                         _______ _______ _______ _____ _____    ______ ____
ROOT
ATOM      1  F   UNL     1      33.623 -22.409 -19.261  0.00  0.00    -0.221 F 
ATOM      2  F   UNL     1      37.649 -20.930 -17.213  0.00  0.00    -0.199 F 
ATOM      3  N   UNL     1      34.999 -23.073 -15.970  0.00  0.00    -0.331 NA
ATOM      4  C   UNL     1      35.649 -21.641 -18.282  0.00  0.00    +0.031 C 
ATOM      5  C   UNL     1      34.192 -23.066 -17.055  0.00  0.00    +0.298 C 
ATOM      6  C   UNL     1      36.128 -22.350 -16.076  0.00  0.00    +0.312 C 
ATOM      7  C   UNL     1      34.468 -22.374 -18.223  0.00  0.00    +0.270 C 
ATOM      8  C   UNL     1      36.505 -21.624 -17.186  0.00  0.00    +0.201 C 
ATOM      9  C   UNL     1      35.995 -20.876 -19.514  0.00  0.00    +0.032 C 
ENDROOT
BRANCH   5  10
ATOM     10  O   UNL     1      33.034 -23.794 -16.972  0.00  0.00    -0.428 OA
BRANCH  10  11
ATOM     11  C   UNL     1      32.100 -23.397 -16.037  0.00  0.00    +0.148 C 
ATOM     12  C   UNL     1      29.828 -22.876 -15.468  0.00  0.00    +0.032 C 
ATOM     13  C   UNL     1      30.772 -23.279 -16.413  0.00  0.00    +0.040 C 
ATOM     14  C   UNL     1      32.510 -23.123 -14.742  0.00  0.00    +0.038 C 
ATOM     15  C   UNL     1      30.226 -22.597 -14.160  0.00  0.00    +0.003 C 
ATOM     16  C   UNL     1      31.567 -22.721 -13.797  0.00  0.00    +0.003 C 
BRANCH  12  19
ATOM     17  N   UNL     1      27.527 -22.324 -14.951  0.00  0.00    -0.387 N 
ATOM     18  N   UNL     1      28.038 -23.053 -17.089  0.00  0.00    -0.345 N 
ATOM     19  C   UNL     1      28.438 -22.748 -15.843  0.00  0.00    +0.096 C 
ATOM     20  H   UNL     1      26.582 -22.239 -15.214  0.00  0.00    +0.157 HD
ATOM     21  H   UNL     1      27.805 -22.097 -14.033  0.00  0.00    +0.157 HD
ATOM     22  H   UNL     1      27.089 -22.965 -17.337  0.00  0.00    +0.144 HD
ATOM     23  H   UNL     1      28.693 -23.367 -17.754  0.00  0.00    +0.144 HD
ENDBRANCH  12  19
ENDBRANCH  10  11
ENDBRANCH   5  10
BRANCH   6  24
ATOM     24  O   UNL     1      36.962 -22.349 -14.970  0.00  0.00    -0.426 OA
BRANCH  24  25
ATOM     25  C   UNL     1      36.949 -23.447 -14.167  0.00  0.00    +0.148 C 
ATOM     26  C   UNL     1      36.569 -24.453 -12.003  0.00  0.00    +0.034 C 
ATOM     27  C   UNL     1      36.582 -23.327 -12.827  0.00  0.00    +0.040 C 
ATOM     28  C   UNL     1      37.305 -24.693 -14.684  0.00  0.00    +0.038 C 
ATOM     29  C   UNL     1      36.925 -25.699 -12.519  0.00  0.00    +0.003 C 
ATOM     30  C   UNL     1      37.292 -25.819 -13.860  0.00  0.00    +0.003 C 
BRANCH  26  33
ATOM     31  N   UNL     1      36.709 -23.317  -9.800  0.00  0.00    -0.343 N 
ATOM     32  N   UNL     1      35.332 -25.185 -10.077  0.00  0.00    -0.285 NA
ATOM     33  C   UNL     1      36.187 -24.327 -10.605  0.00  0.00    +0.117 C 
ATOM     34  H   UNL     1      36.437 -23.250  -8.856  0.00  0.00    +0.144 HD
ATOM     35  H   UNL     1      37.350 -22.670 -10.173  0.00  0.00    +0.144 HD
ATOM     36  H   UNL     1      35.072 -25.101  -9.132  0.00  0.00    +0.188 HD
ENDBRANCH  26  33
ENDBRANCH  24  25
ENDBRANCH   6  24
TORSDOF 6
ENDMDL
MODEL 6
REMARK VINA RESULT:     -10.6      2.858      9.163
REMARK  Name = 4470378
REMARK  6 active torsions:
REMARK  status: ('A' for Active; 'I' for Inactive)
REMARK    1  A    between atoms: C_5  and  O_10
REMARK    2  A    between atoms: C_6  and  O_24
REMARK    3  A    between atoms: O_10  and  C_11
REMARK    4  A    between atoms: C_12  and  C_19
REMARK    5  A    between atoms: O_24  and  C_25
REMARK    6  A    between atoms: C_26  and  C_33
REMARK                            x       y       z     vdW  Elec       q    Type
REMARK                         _______ _______ _______ _____ _____    ______ ____
ROOT
ATOM      1  F   UNL     1      35.013 -20.083 -23.217  0.00  0.00    -0.221 F 
ATOM      2  F   UNL     1      33.316 -15.825 -24.477  0.00  0.00    -0.199 F 
ATOM      3  N   UNL     1      35.917 -16.744 -22.120  0.00  0.00    -0.331 NA
ATOM      4  C   UNL     1      34.130 -17.978 -23.881  0.00  0.00    +0.031 C 
ATOM      5  C   UNL     1      35.871 -18.088 -22.265  0.00  0.00    +0.298 C 
ATOM      6  C   UNL     1      35.050 -16.045 -22.875  0.00  0.00    +0.312 C 
ATOM      7  C   UNL     1      35.006 -18.747 -23.123  0.00  0.00    +0.270 C 
ATOM      8  C   UNL     1      34.147 -16.592 -23.760  0.00  0.00    +0.201 C 
ATOM      9  C   UNL     1      33.176 -18.635 -24.819  0.00  0.00    +0.032 C 
ENDROOT
BRANCH   5  10
ATOM     10  O   UNL     1      36.743 -18.823 -21.506  0.00  0.00    -0.428 OA
BRANCH  10  11
ATOM     11  C   UNL     1      36.203 -19.697 -20.586  0.00  0.00    +0.148 C 
ATOM     12  C   UNL     1      34.281 -20.727 -19.583  0.00  0.00    +0.032 C 
ATOM     13  C   UNL     1      34.827 -19.843 -20.515  0.00  0.00    +0.040 C 
ATOM     14  C   UNL     1      37.048 -20.410 -19.750  0.00  0.00    +0.038 C 
ATOM     15  C   UNL     1      35.118 -21.451 -18.736  0.00  0.00    +0.003 C 
ATOM     16  C   UNL     1      36.502 -21.293 -18.819  0.00  0.00    +0.003 C 
BRANCH  12  19
ATOM     17  N   UNL     1      32.304 -21.628 -18.513  0.00  0.00    -0.387 N 
ATOM     18  N   UNL     1      32.039 -20.311 -20.400  0.00  0.00    -0.345 N 
ATOM     19  C   UNL     1      32.848 -20.891 -19.497  0.00  0.00    +0.096 C 
ATOM     20  H   UNL     1      31.327 -21.736 -18.461  0.00  0.00    +0.157 HD
ATOM     21  H   UNL     1      32.883 -22.061 -17.844  0.00  0.00    +0.157 HD
ATOM     22  H   UNL     1      31.064 -20.428 -20.335  0.00  0.00    +0.144 HD
ATOM     23  H   UNL     1      32.423 -19.769 -21.127  0.00  0.00    +0.144 HD
ENDBRANCH  12  19
ENDBRANCH  10  11
ENDBRANCH   5  10
BRANCH   6  24
ATOM     24  O   UNL     1      35.087 -14.667 -22.734  0.00  0.00    -0.426 OA
BRANCH  24  25
ATOM     25  C   UNL     1      34.171 -14.092 -21.908  0.00  0.00    +0.148 C 
ATOM     26  C   UNL     1      32.558 -12.349 -21.463  0.00  0.00    +0.034 C 
ATOM     27  C   UNL     1      33.495 -12.940 -22.310  0.00  0.00    +0.040 C 
ATOM     28  C   UNL     1      33.910 -14.653 -20.658  0.00  0.00    +0.038 C 
ATOM     29  C   UNL     1      32.296 -12.910 -20.213  0.00  0.00    +0.003 C 
ATOM     30  C   UNL     1      32.972 -14.062 -19.811  0.00  0.00    +0.003 C 
BRANCH  26  33
ATOM     31  N   UNL     1      32.436 -10.236 -22.761  0.00  0.00    -0.343 N 
ATOM     32  N   UNL     1      30.638 -10.904 -21.426  0.00  0.00    -0.285 NA
ATOM     33  C   UNL     1      31.853 -11.148 -21.883  0.00  0.00    +0.117 C 
ATOM     34  H   UNL     1      31.942  -9.429 -23.032  0.00  0.00    +0.144 HD
ATOM     35  H   UNL     1      33.343 -10.398 -23.110  0.00  0.00    +0.144 HD
ATOM     36  H   UNL     1      30.160 -10.091 -21.710  0.00  0.00    +0.188 HD
ENDBRANCH  26  33
ENDBRANCH  24  25
ENDBRANCH   6  24
TORSDOF 6
ENDMDL
MODEL 7
REMARK VINA RESULT:     -10.5     10.384     13.153
REMARK  Name = 4470378
REMARK  6 active torsions:
REMARK  status: ('A' for Active; 'I' for Inactive)
REMARK    1  A    between atoms: C_5  and  O_10
REMARK    2  A    between atoms: C_6  and  O_24
REMARK    3  A    between atoms: O_10  and  C_11
REMARK    4  A    between atoms: C_12  and  C_19
REMARK    5  A    between atoms: O_24  and  C_25
REMARK    6  A    between atoms: C_26  and  C_33
REMARK                            x       y       z     vdW  Elec       q    Type
REMARK                         _______ _______ _______ _____ _____    ______ ____
ROOT
ATOM      1  F   UNL     1      33.895 -22.388 -19.292  0.00  0.00    -0.221 F 
ATOM      2  F   UNL     1      37.756 -21.017 -16.882  0.00  0.00    -0.199 F 
ATOM      3  N   UNL     1      34.904 -23.015 -15.863  0.00  0.00    -0.331 NA
ATOM      4  C   UNL     1      35.844 -21.676 -18.130  0.00  0.00    +0.031 C 
ATOM      5  C   UNL     1      34.211 -23.005 -17.025  0.00  0.00    +0.298 C 
ATOM      6  C   UNL     1      36.068 -22.341 -15.871  0.00  0.00    +0.312 C 
ATOM      7  C   UNL     1      34.632 -22.358 -18.175  0.00  0.00    +0.270 C 
ATOM      8  C   UNL     1      36.586 -21.663 -16.954  0.00  0.00    +0.201 C 
ATOM      9  C   UNL     1      36.345 -20.961 -19.339  0.00  0.00    +0.032 C 
ENDROOT
BRANCH   5  10
ATOM     10  O   UNL     1      33.020 -23.682 -17.042  0.00  0.00    -0.428 OA
BRANCH  10  11
ATOM     11  C   UNL     1      32.087 -23.351 -16.081  0.00  0.00    +0.148 C 
ATOM     12  C   UNL     1      29.813 -22.888 -15.470  0.00  0.00    +0.032 C 
ATOM     13  C   UNL     1      30.756 -23.224 -16.443  0.00  0.00    +0.040 C 
ATOM     14  C   UNL     1      32.501 -23.152 -14.774  0.00  0.00    +0.038 C 
ATOM     15  C   UNL     1      30.215 -22.685 -14.150  0.00  0.00    +0.003 C 
ATOM     16  C   UNL     1      31.559 -22.817 -13.802  0.00  0.00    +0.003 C 
BRANCH  12  19
ATOM     17  N   UNL     1      27.520 -22.327 -14.927  0.00  0.00    -0.387 N 
ATOM     18  N   UNL     1      28.006 -23.049 -17.074  0.00  0.00    -0.345 N 
ATOM     19  C   UNL     1      28.420 -22.751 -15.831  0.00  0.00    +0.096 C 
ATOM     20  H   UNL     1      26.573 -22.237 -15.180  0.00  0.00    +0.157 HD
ATOM     21  H   UNL     1      27.808 -22.107 -14.012  0.00  0.00    +0.157 HD
ATOM     22  H   UNL     1      27.055 -22.954 -17.312  0.00  0.00    +0.144 HD
ATOM     23  H   UNL     1      28.653 -23.362 -17.747  0.00  0.00    +0.144 HD
ENDBRANCH  12  19
ENDBRANCH  10  11
ENDBRANCH   5  10
BRANCH   6  24
ATOM     24  O   UNL     1      36.786 -22.343 -14.687  0.00  0.00    -0.426 OA
BRANCH  24  25
ATOM     25  C   UNL     1      37.173 -23.546 -14.184  0.00  0.00    +0.148 C 
ATOM     26  C   UNL     1      38.685 -25.432 -14.197  0.00  0.00    +0.034 C 
ATOM     27  C   UNL     1      38.289 -24.197 -14.712  0.00  0.00    +0.040 C 
ATOM     28  C   UNL     1      36.453 -24.131 -13.142  0.00  0.00    +0.038 C 
ATOM     29  C   UNL     1      37.965 -26.016 -13.155  0.00  0.00    +0.003 C 
ATOM     30  C   UNL     1      36.849 -25.366 -12.627  0.00  0.00    +0.003 C 
BRANCH  26  33
ATOM     31  N   UNL     1      39.739 -26.955 -15.851  0.00  0.00    -0.343 N 
ATOM     32  N   UNL     1      41.035 -25.933 -14.196  0.00  0.00    -0.285 NA
ATOM     33  C   UNL     1      39.848 -26.110 -14.748  0.00  0.00    +0.117 C 
ATOM     34  H   UNL     1      40.539 -27.404 -16.207  0.00  0.00    +0.144 HD
ATOM     35  H   UNL     1      38.862 -27.102 -16.274  0.00  0.00    +0.144 HD
ATOM     36  H   UNL     1      41.823 -26.392 -14.567  0.00  0.00    +0.188 HD
ENDBRANCH  26  33
ENDBRANCH  24  25
ENDBRANCH   6  24
TORSDOF 6
ENDMDL
MODEL 8
REMARK VINA RESULT:     -10.5     10.269     14.253
REMARK  Name = 4470378
REMARK  6 active torsions:
REMARK  status: ('A' for Active; 'I' for Inactive)
REMARK    1  A    between atoms: C_5  and  O_10
REMARK    2  A    between atoms: C_6  and  O_24
REMARK    3  A    between atoms: O_10  and  C_11
REMARK    4  A    between atoms: C_12  and  C_19
REMARK    5  A    between atoms: O_24  and  C_25
REMARK    6  A    between atoms: C_26  and  C_33
REMARK                            x       y       z     vdW  Elec       q    Type
REMARK                         _______ _______ _______ _____ _____    ______ ____
ROOT
ATOM      1  F   UNL     1      37.554 -20.936 -17.202  0.00  0.00    -0.221 F 
ATOM      2  F   UNL     1      33.547 -22.412 -19.291  0.00  0.00    -0.199 F 
ATOM      3  N   UNL     1      34.889 -23.077 -15.987  0.00  0.00    -0.331 NA
ATOM      4  C   UNL     1      35.564 -21.647 -18.292  0.00  0.00    +0.031 C 
ATOM      5  C   UNL     1      36.029 -22.355 -16.070  0.00  0.00    +0.298 C 
ATOM      6  C   UNL     1      34.106 -23.062 -17.080  0.00  0.00    +0.312 C 
ATOM      7  C   UNL     1      36.409 -21.630 -17.187  0.00  0.00    +0.270 C 
ATOM      8  C   UNL     1      34.381 -22.378 -18.245  0.00  0.00    +0.201 C 
ATOM      9  C   UNL     1      35.923 -20.884 -19.521  0.00  0.00    +0.032 C 
ENDROOT
BRANCH   5  10
ATOM     10  O   UNL     1      36.845 -22.356 -14.969  0.00  0.00    -0.428 OA
BRANCH  10  11
ATOM     11  C   UNL     1      36.814 -23.471 -14.156  0.00  0.00    +0.148 C 
ATOM     12  C   UNL     1      36.998 -25.848 -13.888  0.00  0.00    +0.032 C 
ATOM     13  C   UNL     1      37.031 -24.721 -14.711  0.00  0.00    +0.040 C 
ATOM     14  C   UNL     1      36.565 -23.315 -12.802  0.00  0.00    +0.038 C 
ATOM     15  C   UNL     1      36.749 -25.708 -12.523  0.00  0.00    +0.003 C 
ATOM     16  C   UNL     1      36.532 -24.441 -11.980  0.00  0.00    +0.003 C 
BRANCH  12  19
ATOM     17  N   UNL     1      38.117 -27.334 -15.439  0.00  0.00    -0.387 N 
ATOM     18  N   UNL     1      36.539 -28.224 -13.996  0.00  0.00    -0.345 N 
ATOM     19  C   UNL     1      37.223 -27.160 -14.451  0.00  0.00    +0.096 C 
ATOM     20  H   UNL     1      38.265 -28.231 -15.818  0.00  0.00    +0.157 HD
ATOM     21  H   UNL     1      38.626 -26.565 -15.784  0.00  0.00    +0.157 HD
ATOM     22  H   UNL     1      36.696 -29.114 -14.385  0.00  0.00    +0.144 HD
ATOM     23  H   UNL     1      35.879 -28.112 -13.274  0.00  0.00    +0.144 HD
ENDBRANCH  12  19
ENDBRANCH  10  11
ENDBRANCH   5  10
BRANCH   6  24
ATOM     24  O   UNL     1      32.936 -23.799 -17.007  0.00  0.00    -0.426 OA
BRANCH  24  25
ATOM     25  C   UNL     1      31.988 -23.395 -16.120  0.00  0.00    +0.148 C 
ATOM     26  C   UNL     1      29.674 -22.939 -15.591  0.00  0.00    +0.034 C 
ATOM     27  C   UNL     1      30.646 -23.355 -16.501  0.00  0.00    +0.040 C 
ATOM     28  C   UNL     1      32.356 -23.018 -14.828  0.00  0.00    +0.038 C 
ATOM     29  C   UNL     1      30.043 -22.561 -14.300  0.00  0.00    +0.003 C 
ATOM     30  C   UNL     1      31.384 -22.602 -13.919  0.00  0.00    +0.003 C 
BRANCH  26  33
ATOM     31  N   UNL     1      27.301 -22.356 -15.154  0.00  0.00    -0.343 N 
ATOM     32  N   UNL     1      27.910 -23.383 -17.162  0.00  0.00    -0.285 NA
ATOM     33  C   UNL     1      28.276 -22.897 -15.990  0.00  0.00    +0.117 C 
ATOM     34  H   UNL     1      26.360 -22.338 -15.443  0.00  0.00    +0.144 HD
ATOM     35  H   UNL     1      27.552 -21.991 -14.274  0.00  0.00    +0.144 HD
ATOM     36  H   UNL     1      26.964 -23.356 -17.433  0.00  0.00    +0.188 HD
ENDBRANCH  26  33
ENDBRANCH  24  25
ENDBRANCH   6  24
TORSDOF 6
ENDMDL
MODEL 9
REMARK VINA RESULT:     -10.5     10.006     13.750
REMARK  Name = 4470378
REMARK  6 active torsions:
REMARK  status: ('A' for Active; 'I' for Inactive)
REMARK    1  A    between atoms: C_5  and  O_10
REMARK    2  A    between atoms: C_6  and  O_24
REMARK    3  A    between atoms: O_10  and  C_11
REMARK    4  A    between atoms: C_12  and  C_19
REMARK    5  A    between atoms: O_24  and  C_25
REMARK    6  A    between atoms: C_26  and  C_33
REMARK                            x       y       z     vdW  Elec       q    Type
REMARK                         _______ _______ _______ _____ _____    ______ ____
ROOT
ATOM      1  F   UNL     1      37.580 -20.519 -17.802  0.00  0.00    -0.221 F 
ATOM      2  F   UNL     1      33.528 -22.498 -19.304  0.00  0.00    -0.199 F 
ATOM      3  N   UNL     1      35.359 -22.897 -16.198  0.00  0.00    -0.331 NA
ATOM      4  C   UNL     1      35.558 -21.482 -18.600  0.00  0.00    +0.031 C 
ATOM      5  C   UNL     1      36.389 -22.058 -16.447  0.00  0.00    +0.298 C 
ATOM      6  C   UNL     1      34.442 -23.006 -17.176  0.00  0.00    +0.312 C 
ATOM      7  C   UNL     1      36.533 -21.334 -17.620  0.00  0.00    +0.270 C 
ATOM      8  C   UNL     1      34.483 -22.337 -18.380  0.00  0.00    +0.201 C 
ATOM      9  C   UNL     1      35.664 -20.728 -19.882  0.00  0.00    +0.032 C 
ENDROOT
BRANCH   5  10
ATOM     10  O   UNL     1      37.337 -21.931 -15.467  0.00  0.00    -0.428 OA
BRANCH  10  11
ATOM     11  C   UNL     1      37.540 -23.013 -14.636  0.00  0.00    +0.148 C 
ATOM     12  C   UNL     1      37.055 -24.183 -12.598  0.00  0.00    +0.032 C 
ATOM     13  C   UNL     1      36.849 -23.088 -13.438  0.00  0.00    +0.040 C 
ATOM     14  C   UNL     1      38.432 -24.003 -15.017  0.00  0.00    +0.038 C 
ATOM     15  C   UNL     1      37.950 -25.187 -12.968  0.00  0.00    +0.003 C 
ATOM     16  C   UNL     1      38.639 -25.097 -14.177  0.00  0.00    +0.003 C 
BRANCH  12  19
ATOM     17  N   UNL     1      36.906 -23.840 -10.204  0.00  0.00    -0.387 N 
ATOM     18  N   UNL     1      35.106 -24.802 -11.300  0.00  0.00    -0.345 N 
ATOM     19  C   UNL     1      36.342 -24.276 -11.344  0.00  0.00    +0.096 C 
ATOM     20  H   UNL     1      36.414 -23.907  -9.355  0.00  0.00    +0.157 HD
ATOM     21  H   UNL     1      37.812 -23.453 -10.220  0.00  0.00    +0.157 HD
ATOM     22  H   UNL     1      34.627 -24.863 -10.442  0.00  0.00    +0.144 HD
ATOM     23  H   UNL     1      34.680 -25.127 -12.126  0.00  0.00    +0.144 HD
ENDBRANCH  12  19
ENDBRANCH  10  11
ENDBRANCH   5  10
BRANCH   6  24
ATOM     24  O   UNL     1      33.383 -23.865 -16.932  0.00  0.00    -0.426 OA
BRANCH  24  25
ATOM     25  C   UNL     1      32.466 -23.489 -16.000  0.00  0.00    +0.148 C 
ATOM     26  C   UNL     1      30.198 -22.894 -15.417  0.00  0.00    +0.034 C 
ATOM     27  C   UNL     1      31.138 -23.280 -16.372  0.00  0.00    +0.040 C 
ATOM     28  C   UNL     1      32.854 -23.309 -14.672  0.00  0.00    +0.038 C 
ATOM     29  C   UNL     1      30.586 -22.714 -14.090  0.00  0.00    +0.003 C 
ATOM     30  C   UNL     1      31.914 -22.922 -13.717  0.00  0.00    +0.003 C 
BRANCH  26  33
ATOM     31  N   UNL     1      28.318 -23.154 -17.019  0.00  0.00    -0.343 N 
ATOM     32  N   UNL     1      28.001 -22.011 -15.005  0.00  0.00    -0.285 NA
ATOM     33  C   UNL     1      28.813 -22.677 -15.806  0.00  0.00    +0.117 C 
ATOM     34  H   UNL     1      27.378 -22.996 -17.262  0.00  0.00    +0.144 HD
ATOM     35  H   UNL     1      28.908 -23.649 -17.631  0.00  0.00    +0.144 HD
ATOM     36  H   UNL     1      27.064 -21.863 -15.267  0.00  0.00    +0.188 HD
ENDBRANCH  26  33
ENDBRANCH  24  25
ENDBRANCH   6  24
TORSDOF 6
ENDMDL
