MODEL 1
REMARK VINA RESULT:     -11.9      0.000      0.000
REMARK  Name = 6918314
REMARK  8 active torsions:
REMARK  status: ('A' for Active; 'I' for Inactive)
REMARK    1  A    between atoms: N_1  and  C_22
REMARK    2  A    between atoms: N_2  and  C_9
REMARK    3  A    between atoms: C_16  and  C_19
REMARK    4  A    between atoms: C_22  and  C_23
REMARK    5  A    between atoms: C_23  and  C_24
REMARK    6  A    between atoms: C_24  and  C_25
REMARK    7  A    between atoms: C_25  and  C_27
REMARK    8  A    between atoms: C_33  and  C_37
REMARK                            x       y       z     vdW  Elec       q    Type
REMARK                         _______ _______ _______ _____ _____    ______ ____
ROOT
ATOM      1  N   UNL     1      35.322 -16.404 -22.614  0.00  0.00    +0.389 N 
ATOM      2  N   UNL     1      33.782 -14.029 -22.236  0.00  0.00    -0.312 N 
ATOM      3  C   UNL     1      34.403 -15.941 -23.661  0.00  0.00    -0.055 C 
ATOM      4  C   UNL     1      34.780 -16.073 -21.292  0.00  0.00    -0.055 C 
ATOM      5  C   UNL     1      34.203 -14.426 -23.585  0.00  0.00    +0.068 C 
ATOM      6  C   UNL     1      34.590 -14.563 -21.136  0.00  0.00    +0.068 C 
ATOM      7  H   UNL     1      36.218 -15.931 -22.729  0.00  0.00    -0.080 HD
ENDROOT
BRANCH   2   9
ATOM      8  O   UNL     1      31.286  -9.121 -21.760  0.00  0.00    -0.449 OA
ATOM      9  C   UNL     1      33.129 -12.799 -22.085  0.00  0.00    +0.048 C 
ATOM     10  C   UNL     1      33.422 -11.719 -22.954  0.00  0.00    +0.018 C 
ATOM     11  C   UNL     1      32.170 -12.613 -21.065  0.00  0.00    +0.018 C 
ATOM     12  C   UNL     1      32.758 -10.491 -22.790  0.00  0.00    +0.039 C 
ATOM     13  C   UNL     1      31.824 -10.373 -21.766  0.00  0.00    +0.146 C 
ATOM     14  C   UNL     1      31.497 -11.401 -20.883  0.00  0.00    +0.039 C 
ATOM     15  C   UNL     1      32.781  -9.229 -23.439  0.00  0.00    +0.045 C 
ATOM     16  C   UNL     1      31.872  -8.436 -22.777  0.00  0.00    +0.198 C 
BRANCH  16  19
ATOM     17  O   UNL     1      31.326  -6.545 -24.110  0.00  0.00    -0.267 OA
ATOM     18  N   UNL     1      31.257  -6.275 -21.857  0.00  0.00    -0.323 N 
ATOM     19  C   UNL     1      31.477  -7.084 -22.984  0.00  0.00    +0.277 C 
ATOM     20  H   UNL     1      30.982  -5.336 -21.972  0.00  0.00    +0.145 HD
ATOM     21  H   UNL     1      31.377  -6.646 -20.954  0.00  0.00    +0.145 HD
ENDBRANCH  16  19
ENDBRANCH   2   9
BRANCH   1  22
ATOM     22  C   UNL     1      35.548 -17.844 -22.731  0.00  0.00    -0.077 C 
BRANCH  22  23
ATOM     23  C   UNL     1      35.892 -18.440 -21.367  0.00  0.00    -0.022 C 
BRANCH  23  24
ATOM     24  C   UNL     1      34.984 -19.626 -21.037  0.00  0.00    +0.003 C 
BRANCH  24  25
ATOM     25  C   UNL     1      35.623 -20.543 -19.989  0.00  0.00    +0.028 C 
BRANCH  25  27
ATOM     26  N   UNL     1      32.699 -22.210 -18.573  0.00  0.00    -0.312 N 
ATOM     27  C   UNL     1      34.600 -21.296 -19.192  0.00  0.00    -0.006 C 
ATOM     28  C   UNL     1      34.824 -21.932 -17.954  0.00  0.00    +0.011 C 
ATOM     29  C   UNL     1      33.299 -21.474 -19.559  0.00  0.00    +0.058 C 
ATOM     30  C   UNL     1      33.607 -22.505 -17.580  0.00  0.00    +0.048 C 
ATOM     31  C   UNL     1      35.936 -22.086 -17.102  0.00  0.00    +0.011 C 
ATOM     32  C   UNL     1      33.445 -23.225 -16.391  0.00  0.00    +0.015 C 
ATOM     33  C   UNL     1      35.789 -22.805 -15.910  0.00  0.00    +0.069 C 
ATOM     34  C   UNL     1      34.562 -23.365 -15.562  0.00  0.00    +0.012 C 
ATOM     35  H   UNL     1      31.755 -22.489 -18.572  0.00  0.00    +0.152 HD
BRANCH  33  37
ATOM     36  N   UNL     1      37.825 -23.094 -14.334  0.00  0.00    -0.191 NA
ATOM     37  C   UNL     1      36.913 -22.965 -15.040  0.00  0.00    +0.100 C 
ENDBRANCH  33  37
ENDBRANCH  25  27
ENDBRANCH  24  25
ENDBRANCH  23  24
ENDBRANCH  22  23
ENDBRANCH   1  22
TORSDOF 8
ENDMDL
MODEL 2
REMARK VINA RESULT:     -11.8      4.454     12.424
REMARK  Name = 6918314
REMARK  8 active torsions:
REMARK  status: ('A' for Active; 'I' for Inactive)
REMARK    1  A    between atoms: N_1  and  C_22
REMARK    2  A    between atoms: N_2  and  C_9
REMARK    3  A    between atoms: C_16  and  C_19
REMARK    4  A    between atoms: C_22  and  C_23
REMARK    5  A    between atoms: C_23  and  C_24
REMARK    6  A    between atoms: C_24  and  C_25
REMARK    7  A    between atoms: C_25  and  C_27
REMARK    8  A    between atoms: C_33  and  C_37
REMARK                            x       y       z     vdW  Elec       q    Type
REMARK                         _______ _______ _______ _____ _____    ______ ____
ROOT
ATOM      1  N   UNL     1      34.987 -16.693 -23.916  0.00  0.00    +0.389 N 
ATOM      2  N   UNL     1      34.905 -18.619 -21.808  0.00  0.00    -0.312 N 
ATOM      3  C   UNL     1      35.119 -16.268 -22.518  0.00  0.00    -0.055 C 
ATOM      4  C   UNL     1      34.092 -17.852 -24.003  0.00  0.00    -0.055 C 
ATOM      5  C   UNL     1      35.697 -17.392 -21.654  0.00  0.00    +0.068 C 
ATOM      6  C   UNL     1      34.633 -19.029 -23.190  0.00  0.00    +0.068 C 
ATOM      7  H   UNL     1      35.906 -16.961 -24.268  0.00  0.00    -0.080 HD
ENDROOT
BRANCH   2   9
ATOM      8  O   UNL     1      35.077 -22.437 -17.816  0.00  0.00    -0.449 OA
ATOM      9  C   UNL     1      34.987 -19.586 -20.799  0.00  0.00    +0.048 C 
ATOM     10  C   UNL     1      33.812 -20.093 -20.193  0.00  0.00    +0.018 C 
ATOM     11  C   UNL     1      36.242 -20.071 -20.368  0.00  0.00    +0.018 C 
ATOM     12  C   UNL     1      33.911 -21.065 -19.181  0.00  0.00    +0.039 C 
ATOM     13  C   UNL     1      35.177 -21.501 -18.802  0.00  0.00    +0.146 C 
ATOM     14  C   UNL     1      36.365 -21.037 -19.364  0.00  0.00    +0.039 C 
ATOM     15  C   UNL     1      32.996 -21.785 -18.371  0.00  0.00    +0.045 C 
ATOM     16  C   UNL     1      33.752 -22.601 -17.562  0.00  0.00    +0.198 C 
BRANCH  16  19
ATOM     17  O   UNL     1      34.169 -24.333 -15.989  0.00  0.00    -0.267 OA
ATOM     18  N   UNL     1      32.028 -23.604 -16.178  0.00  0.00    -0.323 N 
ATOM     19  C   UNL     1      33.379 -23.537 -16.557  0.00  0.00    +0.277 C 
ATOM     20  H   UNL     1      31.742 -24.243 -15.485  0.00  0.00    +0.145 HD
ATOM     21  H   UNL     1      31.367 -23.012 -16.604  0.00  0.00    +0.145 HD
ENDBRANCH  16  19
ENDBRANCH   2   9
BRANCH   1  22
ATOM     22  C   UNL     1      34.486 -15.594 -24.741  0.00  0.00    -0.077 C 
BRANCH  22  23
ATOM     23  C   UNL     1      33.710 -14.597 -23.882  0.00  0.00    -0.022 C 
BRANCH  23  24
ATOM     24  C   UNL     1      33.446 -13.298 -24.645  0.00  0.00    +0.003 C 
BRANCH  24  25
ATOM     25  C   UNL     1      33.096 -12.151 -23.691  0.00  0.00    +0.028 C 
BRANCH  25  27
ATOM     26  N   UNL     1      35.216  -9.473 -24.984  0.00  0.00    -0.312 N 
ATOM     27  C   UNL     1      33.855 -10.897 -24.007  0.00  0.00    -0.006 C 
ATOM     28  C   UNL     1      33.770  -9.681 -23.297  0.00  0.00    +0.011 C 
ATOM     29  C   UNL     1      34.741 -10.756 -25.033  0.00  0.00    +0.058 C 
ATOM     30  C   UNL     1      34.640  -8.793 -23.934  0.00  0.00    +0.048 C 
ATOM     31  C   UNL     1      33.043  -9.233 -22.176  0.00  0.00    +0.011 C 
ATOM     32  C   UNL     1      34.822  -7.475 -23.502  0.00  0.00    +0.015 C 
ATOM     33  C   UNL     1      33.215  -7.916 -21.734  0.00  0.00    +0.069 C 
ATOM     34  C   UNL     1      34.090  -7.052 -22.388  0.00  0.00    +0.012 C 
ATOM     35  H   UNL     1      35.874  -9.091 -25.608  0.00  0.00    +0.152 HD
BRANCH  33  37
ATOM     36  N   UNL     1      31.886  -7.079 -19.673  0.00  0.00    -0.191 NA
ATOM     37  C   UNL     1      32.482  -7.454 -20.596  0.00  0.00    +0.100 C 
ENDBRANCH  33  37
ENDBRANCH  25  27
ENDBRANCH  24  25
ENDBRANCH  23  24
ENDBRANCH  22  23
ENDBRANCH   1  22
TORSDOF 8
ENDMDL
MODEL 3
REMARK VINA RESULT:     -11.7      4.417     12.285
REMARK  Name = 6918314
REMARK  8 active torsions:
REMARK  status: ('A' for Active; 'I' for Inactive)
REMARK    1  A    between atoms: N_1  and  C_22
REMARK    2  A    between atoms: N_2  and  C_9
REMARK    3  A    between atoms: C_16  and  C_19
REMARK    4  A    between atoms: C_22  and  C_23
REMARK    5  A    between atoms: C_23  and  C_24
REMARK    6  A    between atoms: C_24  and  C_25
REMARK    7  A    between atoms: C_25  and  C_27
REMARK    8  A    between atoms: C_33  and  C_37
REMARK                            x       y       z     vdW  Elec       q    Type
REMARK                         _______ _______ _______ _____ _____    ______ ____
ROOT
ATOM      1  N   UNL     1      35.041 -16.782 -23.920  0.00  0.00    +0.389 N 
ATOM      2  N   UNL     1      34.953 -18.681 -21.789  0.00  0.00    -0.312 N 
ATOM      3  C   UNL     1      35.110 -16.334 -22.524  0.00  0.00    -0.055 C 
ATOM      4  C   UNL     1      34.190 -17.973 -24.022  0.00  0.00    -0.055 C 
ATOM      5  C   UNL     1      35.696 -17.426 -21.626  0.00  0.00    +0.068 C 
ATOM      6  C   UNL     1      34.744 -19.119 -23.173  0.00  0.00    +0.068 C 
ATOM      7  H   UNL     1      35.981 -17.021 -24.236  0.00  0.00    -0.080 HD
ENDROOT
BRANCH   2   9
ATOM      8  O   UNL     1      35.119 -22.435 -17.737  0.00  0.00    -0.449 OA
ATOM      9  C   UNL     1      35.034 -19.632 -20.765  0.00  0.00    +0.048 C 
ATOM     10  C   UNL     1      33.857 -20.150 -20.171  0.00  0.00    +0.018 C 
ATOM     11  C   UNL     1      36.289 -20.088 -20.304  0.00  0.00    +0.018 C 
ATOM     12  C   UNL     1      33.954 -21.104 -19.143  0.00  0.00    +0.039 C 
ATOM     13  C   UNL     1      35.220 -21.513 -18.736  0.00  0.00    +0.146 C 
ATOM     14  C   UNL     1      36.410 -21.037 -19.283  0.00  0.00    +0.039 C 
ATOM     15  C   UNL     1      33.037 -21.827 -18.337  0.00  0.00    +0.045 C 
ATOM     16  C   UNL     1      33.793 -22.619 -17.503  0.00  0.00    +0.198 C 
BRANCH  16  19
ATOM     17  O   UNL     1      34.203 -24.350 -15.928  0.00  0.00    -0.267 OA
ATOM     18  N   UNL     1      32.070 -23.593 -16.097  0.00  0.00    -0.323 N 
ATOM     19  C   UNL     1      33.417 -23.546 -16.491  0.00  0.00    +0.277 C 
ATOM     20  H   UNL     1      31.784 -24.225 -15.399  0.00  0.00    +0.145 HD
ATOM     21  H   UNL     1      31.413 -22.994 -16.519  0.00  0.00    +0.145 HD
ENDBRANCH  16  19
ENDBRANCH   2   9
BRANCH   1  22
ATOM     22  C   UNL     1      34.531 -15.712 -24.777  0.00  0.00    -0.077 C 
BRANCH  22  23
ATOM     23  C   UNL     1      33.521 -14.856 -24.014  0.00  0.00    -0.022 C 
BRANCH  23  24
ATOM     24  C   UNL     1      33.448 -13.441 -24.590  0.00  0.00    +0.003 C 
BRANCH  24  25
ATOM     25  C   UNL     1      34.140 -12.428 -23.674  0.00  0.00    +0.028 C 
BRANCH  25  27
ATOM     26  N   UNL     1      31.519 -11.102 -21.506  0.00  0.00    -0.312 N 
ATOM     27  C   UNL     1      33.162 -11.627 -22.868  0.00  0.00    -0.006 C 
ATOM     28  C   UNL     1      33.091 -10.219 -22.820  0.00  0.00    +0.011 C 
ATOM     29  C   UNL     1      32.198 -12.153 -22.061  0.00  0.00    +0.058 C 
ATOM     30  C   UNL     1      32.043  -9.909 -21.950  0.00  0.00    +0.048 C 
ATOM     31  C   UNL     1      33.807  -9.166 -23.422  0.00  0.00    +0.011 C 
ATOM     32  C   UNL     1      31.673  -8.592 -21.654  0.00  0.00    +0.015 C 
ATOM     33  C   UNL     1      33.449  -7.844 -23.134  0.00  0.00    +0.069 C 
ATOM     34  C   UNL     1      32.398  -7.563 -22.264  0.00  0.00    +0.012 C 
ATOM     35  H   UNL     1      30.764 -11.186 -20.878  0.00  0.00    +0.152 HD
BRANCH  33  37
ATOM     36  N   UNL     1      34.756  -5.898 -24.239  0.00  0.00    -0.191 NA
ATOM     37  C   UNL     1      34.170  -6.770 -23.744  0.00  0.00    +0.100 C 
ENDBRANCH  33  37
ENDBRANCH  25  27
ENDBRANCH  24  25
ENDBRANCH  23  24
ENDBRANCH  22  23
ENDBRANCH   1  22
TORSDOF 8
ENDMDL
MODEL 4
REMARK VINA RESULT:     -11.7      1.405      2.229
REMARK  Name = 6918314
REMARK  8 active torsions:
REMARK  status: ('A' for Active; 'I' for Inactive)
REMARK    1  A    between atoms: N_1  and  C_22
REMARK    2  A    between atoms: N_2  and  C_9
REMARK    3  A    between atoms: C_16  and  C_19
REMARK    4  A    between atoms: C_22  and  C_23
REMARK    5  A    between atoms: C_23  and  C_24
REMARK    6  A    between atoms: C_24  and  C_25
REMARK    7  A    between atoms: C_25  and  C_27
REMARK    8  A    between atoms: C_33  and  C_37
REMARK                            x       y       z     vdW  Elec       q    Type
REMARK                         _______ _______ _______ _____ _____    ______ ____
ROOT
ATOM      1  N   UNL     1      33.961 -15.551 -23.605  0.00  0.00    +0.389 N 
ATOM      2  N   UNL     1      33.851 -12.703 -23.439  0.00  0.00    -0.312 N 
ATOM      3  C   UNL     1      34.595 -14.849 -22.484  0.00  0.00    -0.055 C 
ATOM      4  C   UNL     1      34.046 -14.733 -24.820  0.00  0.00    -0.055 C 
ATOM      5  C   UNL     1      33.906 -13.509 -22.214  0.00  0.00    +0.068 C 
ATOM      6  C   UNL     1      33.339 -13.390 -24.629  0.00  0.00    +0.068 C 
ATOM      7  H   UNL     1      32.978 -15.708 -23.382  0.00  0.00    -0.080 HD
ENDROOT
BRANCH   2   9
ATOM      8  O   UNL     1      33.061  -7.267 -22.831  0.00  0.00    -0.449 OA
ATOM      9  C   UNL     1      33.680 -11.319 -23.309  0.00  0.00    +0.048 C 
ATOM     10  C   UNL     1      32.645 -10.796 -22.496  0.00  0.00    +0.018 C 
ATOM     11  C   UNL     1      34.536 -10.422 -23.986  0.00  0.00    +0.018 C 
ATOM     12  C   UNL     1      32.487  -9.404 -22.375  0.00  0.00    +0.039 C 
ATOM     13  C   UNL     1      33.364  -8.574 -23.067  0.00  0.00    +0.146 C 
ATOM     14  C   UNL     1      34.399  -9.034 -23.880  0.00  0.00    +0.039 C 
ATOM     15  C   UNL     1      31.603  -8.538 -21.681  0.00  0.00    +0.045 C 
ATOM     16  C   UNL     1      31.993  -7.256 -21.990  0.00  0.00    +0.198 C 
BRANCH  16  19
ATOM     17  O   UNL     1      30.391  -5.499 -21.989  0.00  0.00    -0.267 OA
ATOM     18  N   UNL     1      32.233  -5.218 -20.693  0.00  0.00    -0.323 N 
ATOM     19  C   UNL     1      31.476  -5.992 -21.588  0.00  0.00    +0.277 C 
ATOM     20  H   UNL     1      31.899  -4.340 -20.398  0.00  0.00    +0.145 HD
ATOM     21  H   UNL     1      33.097  -5.553 -20.362  0.00  0.00    +0.145 HD
ENDBRANCH  16  19
ENDBRANCH   2   9
BRANCH   1  22
ATOM     22  C   UNL     1      34.594 -16.853 -23.817  0.00  0.00    -0.077 C 
BRANCH  22  23
ATOM     23  C   UNL     1      35.214 -17.361 -22.517  0.00  0.00    -0.022 C 
BRANCH  23  24
ATOM     24  C   UNL     1      35.114 -18.884 -22.414  0.00  0.00    +0.003 C 
BRANCH  24  25
ATOM     25  C   UNL     1      35.624 -19.386 -21.060  0.00  0.00    +0.028 C 
BRANCH  25  27
ATOM     26  N   UNL     1      32.689 -21.145 -19.785  0.00  0.00    -0.312 N 
ATOM     27  C   UNL     1      34.599 -20.204 -20.333  0.00  0.00    -0.006 C 
ATOM     28  C   UNL     1      34.829 -20.975 -19.175  0.00  0.00    +0.011 C 
ATOM     29  C   UNL     1      33.289 -20.317 -20.695  0.00  0.00    +0.058 C 
ATOM     30  C   UNL     1      33.605 -21.563 -18.845  0.00  0.00    +0.048 C 
ATOM     31  C   UNL     1      35.950 -21.242 -18.364  0.00  0.00    +0.011 C 
ATOM     32  C   UNL     1      33.447 -22.406 -17.740  0.00  0.00    +0.015 C 
ATOM     33  C   UNL     1      35.805 -22.084 -17.255  0.00  0.00    +0.069 C 
ATOM     34  C   UNL     1      34.572 -22.656 -16.950  0.00  0.00    +0.012 C 
ATOM     35  H   UNL     1      31.740 -21.405 -19.799  0.00  0.00    +0.152 HD
BRANCH  33  37
ATOM     36  N   UNL     1      37.859 -22.580 -15.755  0.00  0.00    -0.191 NA
ATOM     37  C   UNL     1      36.939 -22.358 -16.427  0.00  0.00    +0.100 C 
ENDBRANCH  33  37
ENDBRANCH  25  27
ENDBRANCH  24  25
ENDBRANCH  23  24
ENDBRANCH  22  23
ENDBRANCH   1  22
TORSDOF 8
ENDMDL
MODEL 5
REMARK VINA RESULT:     -11.6      3.270      5.832
REMARK  Name = 6918314
REMARK  8 active torsions:
REMARK  status: ('A' for Active; 'I' for Inactive)
REMARK    1  A    between atoms: N_1  and  C_22
REMARK    2  A    between atoms: N_2  and  C_9
REMARK    3  A    between atoms: C_16  and  C_19
REMARK    4  A    between atoms: C_22  and  C_23
REMARK    5  A    between atoms: C_23  and  C_24
REMARK    6  A    between atoms: C_24  and  C_25
REMARK    7  A    between atoms: C_25  and  C_27
REMARK    8  A    between atoms: C_33  and  C_37
REMARK                            x       y       z     vdW  Elec       q    Type
REMARK                         _______ _______ _______ _____ _____    ______ ____
ROOT
ATOM      1  N   UNL     1      36.061 -20.509 -19.113  0.00  0.00    +0.389 N 
ATOM      2  N   UNL     1      35.322 -18.820 -21.293  0.00  0.00    -0.312 N 
ATOM      3  C   UNL     1      37.091 -19.847 -19.920  0.00  0.00    -0.055 C 
ATOM      4  C   UNL     1      34.906 -20.844 -19.953  0.00  0.00    -0.055 C 
ATOM      5  C   UNL     1      36.556 -18.556 -20.544  0.00  0.00    +0.068 C 
ATOM      6  C   UNL     1      34.297 -19.587 -20.579  0.00  0.00    +0.068 C 
ATOM      7  H   UNL     1      35.758 -19.870 -18.377  0.00  0.00    -0.080 HD
ENDROOT
BRANCH   2   9
ATOM      8  O   UNL     1      33.841 -15.075 -25.078  0.00  0.00    -0.449 OA
ATOM      9  C   UNL     1      34.940 -17.900 -22.277  0.00  0.00    +0.048 C 
ATOM     10  C   UNL     1      34.936 -16.510 -21.999  0.00  0.00    +0.018 C 
ATOM     11  C   UNL     1      34.552 -18.340 -23.562  0.00  0.00    +0.018 C 
ATOM     12  C   UNL     1      34.550 -15.599 -22.998  0.00  0.00    +0.039 C 
ATOM     13  C   UNL     1      34.180 -16.097 -24.244  0.00  0.00    +0.146 C 
ATOM     14  C   UNL     1      34.165 -17.452 -24.571  0.00  0.00    +0.039 C 
ATOM     15  C   UNL     1      34.425 -14.189 -23.094  0.00  0.00    +0.045 C 
ATOM     16  C   UNL     1      33.992 -13.923 -24.372  0.00  0.00    +0.198 C 
BRANCH  16  19
ATOM     17  O   UNL     1      33.412 -12.586 -26.249  0.00  0.00    -0.267 OA
ATOM     18  N   UNL     1      33.742 -11.510 -24.279  0.00  0.00    -0.323 N 
ATOM     19  C   UNL     1      33.696 -12.696 -25.030  0.00  0.00    +0.277 C 
ATOM     20  H   UNL     1      33.541 -10.647 -24.708  0.00  0.00    +0.145 HD
ATOM     21  H   UNL     1      33.975 -11.542 -23.323  0.00  0.00    +0.145 HD
ENDBRANCH  16  19
ENDBRANCH   2   9
BRANCH   1  22
ATOM     22  C   UNL     1      36.600 -21.711 -18.478  0.00  0.00    -0.077 C 
BRANCH  22  23
ATOM     23  C   UNL     1      37.045 -21.403 -17.049  0.00  0.00    -0.022 C 
BRANCH  23  24
ATOM     24  C   UNL     1      36.448 -22.404 -16.057  0.00  0.00    +0.003 C 
BRANCH  24  25
ATOM     25  C   UNL     1      34.994 -22.734 -16.404  0.00  0.00    +0.028 C 
BRANCH  25  27
ATOM     26  N   UNL     1      33.904 -24.582 -13.450  0.00  0.00    -0.312 N 
ATOM     27  C   UNL     1      34.281 -23.422 -15.279  0.00  0.00    -0.006 C 
ATOM     28  C   UNL     1      32.884 -23.466 -15.091  0.00  0.00    +0.011 C 
ATOM     29  C   UNL     1      34.891 -24.107 -14.270  0.00  0.00    +0.058 C 
ATOM     30  C   UNL     1      32.667 -24.205 -13.926  0.00  0.00    +0.048 C 
ATOM     31  C   UNL     1      31.771 -22.954 -15.786  0.00  0.00    +0.011 C 
ATOM     32  C   UNL     1      31.388 -24.461 -13.422  0.00  0.00    +0.015 C 
ATOM     33  C   UNL     1      30.485 -23.201 -15.292  0.00  0.00    +0.069 C 
ATOM     34  C   UNL     1      30.298 -23.943 -14.128  0.00  0.00    +0.012 C 
ATOM     35  H   UNL     1      34.054 -25.116 -12.637  0.00  0.00    +0.152 HD
BRANCH  33  37
ATOM     36  N   UNL     1      28.428 -22.268 -16.563  0.00  0.00    -0.191 NA
ATOM     37  C   UNL     1      29.350 -22.686 -15.994  0.00  0.00    +0.100 C 
ENDBRANCH  33  37
ENDBRANCH  25  27
ENDBRANCH  24  25
ENDBRANCH  23  24
ENDBRANCH  22  23
ENDBRANCH   1  22
TORSDOF 8
ENDMDL
MODEL 6
REMARK VINA RESULT:     -11.5      2.283      3.997
REMARK  Name = 6918314
REMARK  8 active torsions:
REMARK  status: ('A' for Active; 'I' for Inactive)
REMARK    1  A    between atoms: N_1  and  C_22
REMARK    2  A    between atoms: N_2  and  C_9
REMARK    3  A    between atoms: C_16  and  C_19
REMARK    4  A    between atoms: C_22  and  C_23
REMARK    5  A    between atoms: C_23  and  C_24
REMARK    6  A    between atoms: C_24  and  C_25
REMARK    7  A    between atoms: C_25  and  C_27
REMARK    8  A    between atoms: C_33  and  C_37
REMARK                            x       y       z     vdW  Elec       q    Type
REMARK                         _______ _______ _______ _____ _____    ______ ____
ROOT
ATOM      1  N   UNL     1      33.486 -14.097 -24.414  0.00  0.00    +0.389 N 
ATOM      2  N   UNL     1      33.620 -11.291 -23.900  0.00  0.00    -0.312 N 
ATOM      3  C   UNL     1      34.018 -13.601 -23.139  0.00  0.00    -0.055 C 
ATOM      4  C   UNL     1      33.818 -13.160 -25.493  0.00  0.00    -0.055 C 
ATOM      5  C   UNL     1      33.426 -12.234 -22.791  0.00  0.00    +0.068 C 
ATOM      6  C   UNL     1      33.220 -11.777 -25.224  0.00  0.00    +0.068 C 
ATOM      7  H   UNL     1      32.471 -14.169 -24.341  0.00  0.00    -0.080 HD
ENDROOT
BRANCH   2   9
ATOM      8  O   UNL     1      33.245  -5.897 -22.760  0.00  0.00    -0.449 OA
ATOM      9  C   UNL     1      33.563  -9.921 -23.616  0.00  0.00    +0.048 C 
ATOM     10  C   UNL     1      32.326  -9.301 -23.315  0.00  0.00    +0.018 C 
ATOM     11  C   UNL     1      34.737  -9.135 -23.626  0.00  0.00    +0.018 C 
ATOM     12  C   UNL     1      32.286  -7.924 -23.032  0.00  0.00    +0.039 C 
ATOM     13  C   UNL     1      33.477  -7.206 -23.057  0.00  0.00    +0.146 C 
ATOM     14  C   UNL     1      34.721  -7.765 -23.347  0.00  0.00    +0.039 C 
ATOM     15  C   UNL     1      31.276  -6.984 -22.699  0.00  0.00    +0.045 C 
ATOM     16  C   UNL     1      31.909  -5.773 -22.544  0.00  0.00    +0.198 C 
BRANCH  16  19
ATOM     17  O   UNL     1      30.500  -4.262 -21.369  0.00  0.00    -0.267 OA
ATOM     18  N   UNL     1      31.933  -3.369 -22.886  0.00  0.00    -0.323 N 
ATOM     19  C   UNL     1      31.405  -4.483 -22.213  0.00  0.00    +0.277 C 
ATOM     20  H   UNL     1      31.602  -2.466 -22.676  0.00  0.00    +0.145 HD
ATOM     21  H   UNL     1      32.633  -3.491 -23.567  0.00  0.00    +0.145 HD
ENDBRANCH  16  19
ENDBRANCH   2   9
BRANCH   1  22
ATOM     22  C   UNL     1      34.018 -15.428 -24.708  0.00  0.00    -0.077 C 
BRANCH  22  23
ATOM     23  C   UNL     1      34.572 -16.071 -23.438  0.00  0.00    -0.022 C 
BRANCH  23  24
ATOM     24  C   UNL     1      34.950 -17.534 -23.680  0.00  0.00    +0.003 C 
BRANCH  24  25
ATOM     25  C   UNL     1      34.388 -18.444 -22.583  0.00  0.00    +0.028 C 
BRANCH  25  27
ATOM     26  N   UNL     1      37.415 -19.274 -20.717  0.00  0.00    -0.312 N 
ATOM     27  C   UNL     1      35.455 -18.950 -21.660  0.00  0.00    -0.006 C 
ATOM     28  C   UNL     1      35.262 -19.849 -20.591  0.00  0.00    +0.011 C 
ATOM     29  C   UNL     1      36.773 -18.606 -21.725  0.00  0.00    +0.058 C 
ATOM     30  C   UNL     1      36.517 -20.040 -20.007  0.00  0.00    +0.048 C 
ATOM     31  C   UNL     1      34.152 -20.528 -20.050  0.00  0.00    +0.011 C 
ATOM     32  C   UNL     1      36.717 -20.880 -18.907  0.00  0.00    +0.015 C 
ATOM     33  C   UNL     1      34.338 -21.371 -18.948  0.00  0.00    +0.069 C 
ATOM     34  C   UNL     1      35.601 -21.543 -18.387  0.00  0.00    +0.012 C 
ATOM     35  H   UNL     1      38.379 -19.214 -20.526  0.00  0.00    +0.152 HD
BRANCH  33  37
ATOM     36  N   UNL     1      32.305 -22.626 -17.946  0.00  0.00    -0.191 NA
ATOM     37  C   UNL     1      33.216 -22.064 -18.394  0.00  0.00    +0.100 C 
ENDBRANCH  33  37
ENDBRANCH  25  27
ENDBRANCH  24  25
ENDBRANCH  23  24
ENDBRANCH  22  23
ENDBRANCH   1  22
TORSDOF 8
ENDMDL
MODEL 7
REMARK VINA RESULT:     -11.4      1.534      2.357
REMARK  Name = 6918314
REMARK  8 active torsions:
REMARK  status: ('A' for Active; 'I' for Inactive)
REMARK    1  A    between atoms: N_1  and  C_22
REMARK    2  A    between atoms: N_2  and  C_9
REMARK    3  A    between atoms: C_16  and  C_19
REMARK    4  A    between atoms: C_22  and  C_23
REMARK    5  A    between atoms: C_23  and  C_24
REMARK    6  A    between atoms: C_24  and  C_25
REMARK    7  A    between atoms: C_25  and  C_27
REMARK    8  A    between atoms: C_33  and  C_37
REMARK                            x       y       z     vdW  Elec       q    Type
REMARK                         _______ _______ _______ _____ _____    ______ ____
ROOT
ATOM      1  N   UNL     1      34.823 -15.747 -23.518  0.00  0.00    +0.389 N 
ATOM      2  N   UNL     1      33.502 -13.317 -22.810  0.00  0.00    -0.312 N 
ATOM      3  C   UNL     1      33.687 -15.263 -24.311  0.00  0.00    -0.055 C 
ATOM      4  C   UNL     1      34.639 -15.386 -22.108  0.00  0.00    -0.055 C 
ATOM      5  C   UNL     1      33.560 -13.741 -24.214  0.00  0.00    +0.068 C 
ATOM      6  C   UNL     1      34.542 -13.869 -21.937  0.00  0.00    +0.068 C 
ATOM      7  H   UNL     1      35.677 -15.307 -23.862  0.00  0.00    -0.080 HD
ENDROOT
BRANCH   2   9
ATOM      8  O   UNL     1      31.407  -8.308 -21.779  0.00  0.00    -0.449 OA
ATOM      9  C   UNL     1      32.947 -12.064 -22.523  0.00  0.00    +0.048 C 
ATOM     10  C   UNL     1      33.429 -10.899 -23.170  0.00  0.00    +0.018 C 
ATOM     11  C   UNL     1      31.899 -11.939 -21.584  0.00  0.00    +0.018 C 
ATOM     12  C   UNL     1      32.861  -9.648 -22.872  0.00  0.00    +0.039 C 
ATOM     13  C   UNL     1      31.831  -9.593 -21.938  0.00  0.00    +0.146 C 
ATOM     14  C   UNL     1      31.318 -10.705 -21.272  0.00  0.00    +0.039 C 
ATOM     15  C   UNL     1      33.067  -8.311 -23.298  0.00  0.00    +0.045 C 
ATOM     16  C   UNL     1      32.162  -7.539 -22.607  0.00  0.00    +0.198 C 
BRANCH  16  19
ATOM     17  O   UNL     1      32.740  -5.267 -22.998  0.00  0.00    -0.267 OA
ATOM     18  N   UNL     1      30.663  -5.678 -22.180  0.00  0.00    -0.323 N 
ATOM     19  C   UNL     1      31.913  -6.138 -22.626  0.00  0.00    +0.277 C 
ATOM     20  H   UNL     1      30.464  -4.714 -22.182  0.00  0.00    +0.145 HD
ATOM     21  H   UNL     1      29.987  -6.319 -21.864  0.00  0.00    +0.145 HD
ENDBRANCH  16  19
ENDBRANCH   2   9
BRANCH   1  22
ATOM     22  C   UNL     1      34.968 -17.196 -23.662  0.00  0.00    -0.077 C 
BRANCH  22  23
ATOM     23  C   UNL     1      34.980 -17.867 -22.289  0.00  0.00    -0.022 C 
BRANCH  23  24
ATOM     24  C   UNL     1      34.640 -19.354 -22.398  0.00  0.00    +0.003 C 
BRANCH  24  25
ATOM     25  C   UNL     1      33.826 -19.831 -21.191  0.00  0.00    +0.028 C 
BRANCH  25  27
ATOM     26  N   UNL     1      36.429 -21.297 -19.092  0.00  0.00    -0.312 N 
ATOM     27  C   UNL     1      34.674 -20.532 -20.173  0.00  0.00    -0.006 C 
ATOM     28  C   UNL     1      34.198 -21.260 -19.063  0.00  0.00    +0.011 C 
ATOM     29  C   UNL     1      36.037 -20.562 -20.178  0.00  0.00    +0.058 C 
ATOM     30  C   UNL     1      35.327 -21.735 -18.392  0.00  0.00    +0.048 C 
ATOM     31  C   UNL     1      32.923 -21.569 -18.549  0.00  0.00    +0.011 C 
ATOM     32  C   UNL     1      35.243 -22.509 -17.229  0.00  0.00    +0.015 C 
ATOM     33  C   UNL     1      32.825 -22.342 -17.386  0.00  0.00    +0.069 C 
ATOM     34  C   UNL     1      33.968 -22.804 -16.738  0.00  0.00    +0.012 C 
ATOM     35  H   UNL     1      37.363 -21.486 -18.846  0.00  0.00    +0.152 HD
BRANCH  33  37
ATOM     36  N   UNL     1      30.485 -22.920 -16.433  0.00  0.00    -0.191 NA
ATOM     37  C   UNL     1      31.534 -22.661 -16.860  0.00  0.00    +0.100 C 
ENDBRANCH  33  37
ENDBRANCH  25  27
ENDBRANCH  24  25
ENDBRANCH  23  24
ENDBRANCH  22  23
ENDBRANCH   1  22
TORSDOF 8
ENDMDL
MODEL 8
REMARK VINA RESULT:     -11.3      2.940      5.298
REMARK  Name = 6918314
REMARK  8 active torsions:
REMARK  status: ('A' for Active; 'I' for Inactive)
REMARK    1  A    between atoms: N_1  and  C_22
REMARK    2  A    between atoms: N_2  and  C_9
REMARK    3  A    between atoms: C_16  and  C_19
REMARK    4  A    between atoms: C_22  and  C_23
REMARK    5  A    between atoms: C_23  and  C_24
REMARK    6  A    between atoms: C_24  and  C_25
REMARK    7  A    between atoms: C_25  and  C_27
REMARK    8  A    between atoms: C_33  and  C_37
REMARK                            x       y       z     vdW  Elec       q    Type
REMARK                         _______ _______ _______ _____ _____    ______ ____
ROOT
ATOM      1  N   UNL     1      36.106 -20.365 -20.461  0.00  0.00    +0.389 N 
ATOM      2  N   UNL     1      35.280 -17.965 -21.769  0.00  0.00    -0.312 N 
ATOM      3  C   UNL     1      34.679 -20.076 -20.649  0.00  0.00    -0.055 C 
ATOM      4  C   UNL     1      36.846 -19.116 -20.255  0.00  0.00    -0.055 C 
ATOM      5  C   UNL     1      34.457 -19.176 -21.867  0.00  0.00    +0.068 C 
ATOM      6  C   UNL     1      36.697 -18.183 -21.459  0.00  0.00    +0.068 C 
ATOM      7  H   UNL     1      36.462 -20.825 -21.299  0.00  0.00    -0.080 HD
ENDROOT
BRANCH   2   9
ATOM      8  O   UNL     1      33.783 -13.466 -24.608  0.00  0.00    -0.449 OA
ATOM      9  C   UNL     1      34.897 -16.847 -22.520  0.00  0.00    +0.048 C 
ATOM     10  C   UNL     1      34.803 -15.571 -21.912  0.00  0.00    +0.018 C 
ATOM     11  C   UNL     1      34.597 -16.972 -23.895  0.00  0.00    +0.018 C 
ATOM     12  C   UNL     1      34.418 -14.458 -22.680  0.00  0.00    +0.039 C 
ATOM     13  C   UNL     1      34.136 -14.648 -24.029  0.00  0.00    +0.146 C 
ATOM     14  C   UNL     1      34.212 -15.879 -24.678  0.00  0.00    +0.039 C 
ATOM     15  C   UNL     1      34.220 -13.074 -22.436  0.00  0.00    +0.045 C 
ATOM     16  C   UNL     1      33.836 -12.519 -23.635  0.00  0.00    +0.198 C 
BRANCH  16  19
ATOM     17  O   UNL     1      33.598 -10.702 -25.148  0.00  0.00    -0.267 OA
ATOM     18  N   UNL     1      33.063 -10.314 -22.977  0.00  0.00    -0.323 N 
ATOM     19  C   UNL     1      33.506 -11.181 -23.989  0.00  0.00    +0.277 C 
ATOM     20  H   UNL     1      32.828  -9.383 -23.195  0.00  0.00    +0.145 HD
ATOM     21  H   UNL     1      32.988 -10.636 -22.051  0.00  0.00    +0.145 HD
ENDBRANCH  16  19
ENDBRANCH   2   9
BRANCH   1  22
ATOM     22  C   UNL     1      36.300 -21.270 -19.328  0.00  0.00    -0.077 C 
BRANCH  22  23
ATOM     23  C   UNL     1      35.083 -22.178 -19.158  0.00  0.00    -0.022 C 
BRANCH  23  24
ATOM     24  C   UNL     1      34.691 -22.308 -17.686  0.00  0.00    +0.003 C 
BRANCH  24  25
ATOM     25  C   UNL     1      33.193 -22.584 -17.529  0.00  0.00    +0.028 C 
BRANCH  25  27
ATOM     26  N   UNL     1      33.057 -24.041 -14.184  0.00  0.00    -0.312 N 
ATOM     27  C   UNL     1      32.853 -23.140 -16.179  0.00  0.00    -0.006 C 
ATOM     28  C   UNL     1      31.559 -23.232 -15.626  0.00  0.00    +0.011 C 
ATOM     29  C   UNL     1      33.758 -23.636 -15.288  0.00  0.00    +0.058 C 
ATOM     30  C   UNL     1      31.712 -23.805 -14.362  0.00  0.00    +0.048 C 
ATOM     31  C   UNL     1      30.264 -22.888 -16.063  0.00  0.00    +0.011 C 
ATOM     32  C   UNL     1      30.630 -24.055 -13.511  0.00  0.00    +0.015 C 
ATOM     33  C   UNL     1      29.173 -23.131 -15.222  0.00  0.00    +0.069 C 
ATOM     34  C   UNL     1      29.355 -23.706 -13.966  0.00  0.00    +0.012 C 
ATOM     35  H   UNL     1      33.456 -24.442 -13.378  0.00  0.00    +0.152 HD
BRANCH  33  37
ATOM     36  N   UNL     1      26.786 -22.507 -16.015  0.00  0.00    -0.191 NA
ATOM     37  C   UNL     1      27.855 -22.786 -15.659  0.00  0.00    +0.100 C 
ENDBRANCH  33  37
ENDBRANCH  25  27
ENDBRANCH  24  25
ENDBRANCH  23  24
ENDBRANCH  22  23
ENDBRANCH   1  22
TORSDOF 8
ENDMDL
MODEL 9
REMARK VINA RESULT:     -10.7      2.544      4.938
REMARK  Name = 6918314
REMARK  8 active torsions:
REMARK  status: ('A' for Active; 'I' for Inactive)
REMARK    1  A    between atoms: N_1  and  C_22
REMARK    2  A    between atoms: N_2  and  C_9
REMARK    3  A    between atoms: C_16  and  C_19
REMARK    4  A    between atoms: C_22  and  C_23
REMARK    5  A    between atoms: C_23  and  C_24
REMARK    6  A    between atoms: C_24  and  C_25
REMARK    7  A    between atoms: C_25  and  C_27
REMARK    8  A    between atoms: C_33  and  C_37
REMARK                            x       y       z     vdW  Elec       q    Type
REMARK                         _______ _______ _______ _____ _____    ______ ____
ROOT
ATOM      1  N   UNL     1      35.992 -20.556 -20.181  0.00  0.00    +0.389 N 
ATOM      2  N   UNL     1      35.284 -18.161 -21.566  0.00  0.00    -0.312 N 
ATOM      3  C   UNL     1      34.584 -20.175 -20.330  0.00  0.00    -0.055 C 
ATOM      4  C   UNL     1      36.826 -19.354 -20.059  0.00  0.00    -0.055 C 
ATOM      5  C   UNL     1      34.376 -19.314 -21.578  0.00  0.00    +0.068 C 
ATOM      6  C   UNL     1      36.693 -18.466 -21.298  0.00  0.00    +0.068 C 
ATOM      7  H   UNL     1      36.283 -21.075 -21.009  0.00  0.00    -0.080 HD
ENDROOT
BRANCH   2   9
ATOM      8  O   UNL     1      33.970 -13.697 -24.546  0.00  0.00    -0.449 OA
ATOM      9  C   UNL     1      34.951 -17.052 -22.352  0.00  0.00    +0.048 C 
ATOM     10  C   UNL     1      34.804 -15.772 -21.764  0.00  0.00    +0.018 C 
ATOM     11  C   UNL     1      34.752 -17.191 -23.744  0.00  0.00    +0.018 C 
ATOM     12  C   UNL     1      34.469 -14.668 -22.568  0.00  0.00    +0.039 C 
ATOM     13  C   UNL     1      34.288 -14.871 -23.933  0.00  0.00    +0.146 C 
ATOM     14  C   UNL     1      34.419 -16.107 -24.563  0.00  0.00    +0.039 C 
ATOM     15  C   UNL     1      34.245 -13.284 -22.351  0.00  0.00    +0.045 C 
ATOM     16  C   UNL     1      33.947 -12.741 -23.580  0.00  0.00    +0.198 C 
BRANCH  16  19
ATOM     17  O   UNL     1      33.838 -10.929 -25.114  0.00  0.00    -0.267 OA
ATOM     18  N   UNL     1      33.078 -10.547 -23.009  0.00  0.00    -0.323 N 
ATOM     19  C   UNL     1      33.634 -11.409 -23.969  0.00  0.00    +0.277 C 
ATOM     20  H   UNL     1      32.853  -9.620 -23.252  0.00  0.00    +0.145 HD
ATOM     21  H   UNL     1      32.914 -10.870 -22.094  0.00  0.00    +0.145 HD
ENDBRANCH  16  19
ENDBRANCH   2   9
BRANCH   1  22
ATOM     22  C   UNL     1      36.169 -21.422 -19.015  0.00  0.00    -0.077 C 
BRANCH  22  23
ATOM     23  C   UNL     1      34.910 -22.255 -18.778  0.00  0.00    -0.022 C 
BRANCH  23  24
ATOM     24  C   UNL     1      34.609 -22.388 -17.283  0.00  0.00    +0.003 C 
BRANCH  24  25
ATOM     25  C   UNL     1      35.897 -22.399 -16.454  0.00  0.00    +0.028 C 
BRANCH  25  27
ATOM     26  N   UNL     1      34.768 -23.566 -13.183  0.00  0.00    -0.312 N 
ATOM     27  C   UNL     1      35.694 -22.999 -15.095  0.00  0.00    -0.006 C 
ATOM     28  C   UNL     1      36.638 -23.768 -14.384  0.00  0.00    +0.011 C 
ATOM     29  C   UNL     1      34.557 -22.884 -14.352  0.00  0.00    +0.058 C 
ATOM     30  C   UNL     1      36.031 -24.117 -13.176  0.00  0.00    +0.048 C 
ATOM     31  C   UNL     1      37.952 -24.210 -14.635  0.00  0.00    +0.011 C 
ATOM     32  C   UNL     1      36.675 -24.888 -12.202  0.00  0.00    +0.015 C 
ATOM     33  C   UNL     1      38.609 -24.982 -13.669  0.00  0.00    +0.069 C 
ATOM     34  C   UNL     1      37.978 -25.316 -12.473  0.00  0.00    +0.012 C 
ATOM     35  H   UNL     1      34.112 -23.652 -12.454  0.00  0.00    +0.152 HD
BRANCH  33  37
ATOM     36  N   UNL     1      41.027 -25.800 -14.117  0.00  0.00    -0.191 NA
ATOM     37  C   UNL     1      39.943 -25.434 -13.917  0.00  0.00    +0.100 C 
ENDBRANCH  33  37
ENDBRANCH  25  27
ENDBRANCH  24  25
ENDBRANCH  23  24
ENDBRANCH  22  23
ENDBRANCH   1  22
TORSDOF 8
ENDMDL
