MODEL 1
REMARK VINA RESULT:     -10.9      0.000      0.000
REMARK  Name = 16720766
REMARK  7 active torsions:
REMARK  status: ('A' for Active; 'I' for Inactive)
REMARK    1  A    between atoms: N_1  and  C_10
REMARK    2  A    between atoms: C_11  and  C_17
REMARK    3  A    between atoms: C_13  and  O_15
REMARK    4  A    between atoms: C_17  and  O_18
REMARK    5  A    between atoms: O_18  and  S_19
REMARK    6  A    between atoms: S_19  and  N_22
REMARK    7  A    between atoms: N_25  and  C_27
REMARK                            x       y       z     vdW  Elec       q    Type
REMARK                         _______ _______ _______ _____ _____    ______ ____
ROOT
ATOM      1  N   UNL     1      33.898 -21.664 -18.801  0.00  0.00    -0.276 N 
ATOM      2  N   UNL     1      36.185 -20.945 -19.055  0.00  0.00    -0.233 NA
ATOM      3  N   UNL     1      36.432 -19.097 -20.620  0.00  0.00    -0.233 NA
ATOM      4  C   UNL     1      34.872 -20.865 -19.336  0.00  0.00    +0.120 C 
ATOM      5  C   UNL     1      32.678 -21.302 -19.313  0.00  0.00    +0.062 C 
ATOM      6  C   UNL     1      34.264 -19.973 -20.211  0.00  0.00    +0.131 C 
ATOM      7  C   UNL     1      32.875 -20.256 -20.189  0.00  0.00    +0.004 C 
ATOM      8  C   UNL     1      35.093 -19.054 -20.874  0.00  0.00    +0.113 C 
ATOM      9  C   UNL     1      36.886 -20.022 -19.743  0.00  0.00    +0.252 C 
ATOM     10  N   UNL     1      34.575 -18.125 -21.764  0.00  0.00    -0.319 N 
ATOM     11  H   UNL     1      33.603 -18.125 -21.920  0.00  0.00    +0.148 HD
ENDROOT
BRANCH  10  12
ATOM     12  C   UNL     1      35.379 -17.159 -22.473  0.00  0.00    +0.093 C 
ATOM     13  C   UNL     1      35.326 -17.407 -23.992  0.00  0.00    +0.029 C 
ATOM     14  C   UNL     1      34.769 -15.793 -22.379  0.00  0.00    -0.008 C 
ATOM     15  C   UNL     1      34.137 -16.596 -24.536  0.00  0.00    +0.028 C 
ATOM     16  C   UNL     1      34.073 -15.472 -23.551  0.00  0.00    -0.025 C 
ATOM     17  C   UNL     1      34.814 -14.910 -21.312  0.00  0.00    -0.003 C 
ATOM     18  C   UNL     1      33.401 -14.268 -23.676  0.00  0.00    -0.005 C 
ATOM     19  C   UNL     1      34.149 -13.688 -21.434  0.00  0.00    -0.000 C 
ATOM     20  C   UNL     1      33.447 -13.370 -22.608  0.00  0.00    -0.000 C 
ENDBRANCH  10  12
BRANCH   1  21
ATOM     21  C   UNL     1      34.110 -22.738 -17.834  0.00  0.00    +0.081 C 
ATOM     22  C   UNL     1      33.034 -22.962 -15.649  0.00  0.00    +0.061 C 
ATOM     23  C   UNL     1      32.825 -23.241 -17.143  0.00  0.00    +0.025 C 
ATOM     24  C   UNL     1      34.549 -23.079 -15.473  0.00  0.00    +0.115 C 
ATOM     25  C   UNL     1      35.090 -22.360 -16.705  0.00  0.00    +0.049 C 
BRANCH  24  26
ATOM     26  O   UNL     1      34.959 -24.440 -15.490  0.00  0.00    -0.384 OA
ATOM     27  H   UNL     1      34.299 -24.982 -15.029  0.00  0.00    +0.210 HD
ENDBRANCH  24  26
BRANCH  22  28
ATOM     28  C   UNL     1      32.219 -23.888 -14.760  0.00  0.00    +0.176 C 
BRANCH  28  29
ATOM     29  O   UNL     1      31.028 -24.242 -15.442  0.00  0.00    -0.230 OA
BRANCH  29  30
ATOM     30  S   UNL     1      29.641 -23.429 -15.136  0.00  0.00    +0.045 S 
ATOM     31  O   UNL     1      28.571 -24.394 -14.956  0.00  0.00    -0.056 OA
ATOM     32  O   UNL     1      29.927 -22.460 -14.094  0.00  0.00    -0.056 OA
BRANCH  30  33
ATOM     33  N   UNL     1      29.338 -22.562 -16.584  0.00  0.00    -0.204 NA
ATOM     34  H   UNL     1      30.224 -22.321 -17.027  0.00  0.00    +0.144 HD
ATOM     35  H   UNL     1      28.822 -21.709 -16.367  0.00  0.00    +0.144 HD
ENDBRANCH  30  33
ENDBRANCH  29  30
ENDBRANCH  28  29
ENDBRANCH  22  28
ENDBRANCH   1  21
TORSDOF 7
ENDMDL
MODEL 2
REMARK VINA RESULT:     -10.8      8.439     12.060
REMARK  Name = 16720766
REMARK  7 active torsions:
REMARK  status: ('A' for Active; 'I' for Inactive)
REMARK    1  A    between atoms: N_1  and  C_10
REMARK    2  A    between atoms: C_11  and  C_17
REMARK    3  A    between atoms: C_13  and  O_15
REMARK    4  A    between atoms: C_17  and  O_18
REMARK    5  A    between atoms: O_18  and  S_19
REMARK    6  A    between atoms: S_19  and  N_22
REMARK    7  A    between atoms: N_25  and  C_27
REMARK                            x       y       z     vdW  Elec       q    Type
REMARK                         _______ _______ _______ _____ _____    ______ ____
ROOT
ATOM      1  N   UNL     1      33.485 -12.601 -22.366  0.00  0.00    -0.276 N 
ATOM      2  N   UNL     1      33.586 -13.967 -24.350  0.00  0.00    -0.233 NA
ATOM      3  N   UNL     1      34.456 -16.200 -23.922  0.00  0.00    -0.233 NA
ATOM      4  C   UNL     1      33.766 -13.762 -23.033  0.00  0.00    +0.120 C 
ATOM      5  C   UNL     1      33.793 -12.750 -21.037  0.00  0.00    +0.062 C 
ATOM      6  C   UNL     1      34.266 -14.675 -22.112  0.00  0.00    +0.131 C 
ATOM      7  C   UNL     1      34.280 -14.026 -20.852  0.00  0.00    +0.004 C 
ATOM      8  C   UNL     1      34.622 -15.947 -22.593  0.00  0.00    +0.113 C 
ATOM      9  C   UNL     1      33.958 -15.214 -24.702  0.00  0.00    +0.252 C 
ATOM     10  N   UNL     1      35.128 -16.922 -21.748  0.00  0.00    -0.319 N 
ATOM     11  H   UNL     1      35.233 -16.702 -20.794  0.00  0.00    +0.148 HD
ENDROOT
BRANCH  10  12
ATOM     12  C   UNL     1      35.510 -18.243 -22.186  0.00  0.00    +0.093 C 
ATOM     13  C   UNL     1      37.029 -18.452 -22.046  0.00  0.00    +0.029 C 
ATOM     14  C   UNL     1      34.985 -19.285 -21.246  0.00  0.00    -0.008 C 
ATOM     15  C   UNL     1      37.275 -19.011 -20.634  0.00  0.00    +0.028 C 
ATOM     16  C   UNL     1      35.987 -19.726 -20.373  0.00  0.00    -0.025 C 
ATOM     17  C   UNL     1      33.695 -19.786 -21.161  0.00  0.00    -0.003 C 
ATOM     18  C   UNL     1      35.719 -20.667 -19.394  0.00  0.00    -0.005 C 
ATOM     19  C   UNL     1      33.419 -20.745 -20.184  0.00  0.00    -0.000 C 
ATOM     20  C   UNL     1      34.424 -21.182 -19.306  0.00  0.00    -0.000 C 
ENDBRANCH  10  12
BRANCH   1  21
ATOM     21  C   UNL     1      32.942 -11.383 -22.963  0.00  0.00    +0.081 C 
ATOM     22  C   UNL     1      33.902  -9.139 -22.818  0.00  0.00    +0.061 C 
ATOM     23  C   UNL     1      33.999 -10.455 -23.599  0.00  0.00    +0.025 C 
ATOM     24  C   UNL     1      32.433  -9.080 -22.397  0.00  0.00    +0.115 C 
ATOM     25  C   UNL     1      32.147 -10.515 -21.966  0.00  0.00    +0.049 C 
BRANCH  24  26
ATOM     26  O   UNL     1      31.602  -8.731 -23.497  0.00  0.00    -0.384 OA
ATOM     27  H   UNL     1      31.382  -7.787 -23.449  0.00  0.00    +0.210 HD
ENDBRANCH  24  26
BRANCH  22  28
ATOM     28  C   UNL     1      34.378  -7.942 -23.627  0.00  0.00    +0.176 C 
BRANCH  28  29
ATOM     29  O   UNL     1      34.034  -6.756 -22.931  0.00  0.00    -0.230 OA
BRANCH  29  30
ATOM     30  S   UNL     1      33.242  -5.554 -23.710  0.00  0.00    +0.045 S 
ATOM     31  O   UNL     1      34.214  -4.760 -24.442  0.00  0.00    -0.056 OA
ATOM     32  O   UNL     1      32.122  -6.155 -24.410  0.00  0.00    -0.056 OA
BRANCH  30  33
ATOM     33  N   UNL     1      32.607  -4.585 -22.447  0.00  0.00    -0.204 NA
ATOM     34  H   UNL     1      33.174  -4.707 -21.607  0.00  0.00    +0.144 HD
ATOM     35  H   UNL     1      31.647  -4.868 -22.252  0.00  0.00    +0.144 HD
ENDBRANCH  30  33
ENDBRANCH  29  30
ENDBRANCH  28  29
ENDBRANCH  22  28
ENDBRANCH   1  21
TORSDOF 7
ENDMDL
MODEL 3
REMARK VINA RESULT:     -10.6      1.081      1.424
REMARK  Name = 16720766
REMARK  7 active torsions:
REMARK  status: ('A' for Active; 'I' for Inactive)
REMARK    1  A    between atoms: N_1  and  C_10
REMARK    2  A    between atoms: C_11  and  C_17
REMARK    3  A    between atoms: C_13  and  O_15
REMARK    4  A    between atoms: C_17  and  O_18
REMARK    5  A    between atoms: O_18  and  S_19
REMARK    6  A    between atoms: S_19  and  N_22
REMARK    7  A    between atoms: N_25  and  C_27
REMARK                            x       y       z     vdW  Elec       q    Type
REMARK                         _______ _______ _______ _____ _____    ______ ____
ROOT
ATOM      1  N   UNL     1      33.422 -22.165 -17.955  0.00  0.00    -0.276 N 
ATOM      2  N   UNL     1      35.801 -21.913 -18.257  0.00  0.00    -0.233 NA
ATOM      3  N   UNL     1      36.373 -20.308 -19.995  0.00  0.00    -0.233 NA
ATOM      4  C   UNL     1      34.523 -21.619 -18.557  0.00  0.00    +0.120 C 
ATOM      5  C   UNL     1      32.286 -21.636 -18.512  0.00  0.00    +0.062 C 
ATOM      6  C   UNL     1      34.084 -20.721 -19.522  0.00  0.00    +0.131 C 
ATOM      7  C   UNL     1      32.666 -20.737 -19.486  0.00  0.00    +0.004 C 
ATOM      8  C   UNL     1      35.063 -20.042 -20.265  0.00  0.00    +0.113 C 
ATOM      9  C   UNL     1      36.654 -21.209 -19.027  0.00  0.00    +0.252 C 
ATOM     10  N   UNL     1      34.719 -19.126 -21.247  0.00  0.00    -0.319 N 
ATOM     11  H   UNL     1      33.762 -18.960 -21.412  0.00  0.00    +0.148 HD
ENDROOT
BRANCH  10  12
ATOM     12  C   UNL     1      35.681 -18.401 -22.040  0.00  0.00    +0.093 C 
ATOM     13  C   UNL     1      35.854 -19.050 -23.426  0.00  0.00    +0.029 C 
ATOM     14  C   UNL     1      35.149 -17.051 -22.416  0.00  0.00    -0.008 C 
ATOM     15  C   UNL     1      34.817 -18.399 -24.358  0.00  0.00    +0.028 C 
ATOM     16  C   UNL     1      34.667 -17.049 -23.731  0.00  0.00    -0.025 C 
ATOM     17  C   UNL     1      35.077 -15.913 -21.629  0.00  0.00    -0.003 C 
ATOM     18  C   UNL     1      34.098 -15.914 -24.282  0.00  0.00    -0.005 C 
ATOM     19  C   UNL     1      34.516 -14.760 -22.181  0.00  0.00    -0.000 C 
ATOM     20  C   UNL     1      34.028 -14.760 -23.498  0.00  0.00    -0.000 C 
ENDBRANCH  10  12
BRANCH   1  21
ATOM     21  C   UNL     1      33.440 -23.160 -16.885  0.00  0.00    +0.081 C 
ATOM     22  C   UNL     1      32.060 -23.147 -14.866  0.00  0.00    +0.061 C 
ATOM     23  C   UNL     1      32.045 -23.546 -16.347  0.00  0.00    +0.025 C 
ATOM     24  C   UNL     1      33.527 -23.311 -14.465  0.00  0.00    +0.115 C 
ATOM     25  C   UNL     1      34.272 -22.726 -15.661  0.00  0.00    +0.049 C 
BRANCH  24  26
ATOM     26  O   UNL     1      33.861 -24.685 -14.315  0.00  0.00    -0.384 OA
ATOM     27  H   UNL     1      34.210 -24.837 -13.422  0.00  0.00    +0.210 HD
ENDBRANCH  24  26
BRANCH  22  28
ATOM     28  C   UNL     1      31.080 -23.958 -14.031  0.00  0.00    +0.176 C 
BRANCH  28  29
ATOM     29  O   UNL     1      29.836 -23.280 -14.003  0.00  0.00    -0.230 OA
BRANCH  29  30
ATOM     30  S   UNL     1      28.734 -23.548 -15.183  0.00  0.00    +0.045 S 
ATOM     31  O   UNL     1      28.942 -24.883 -15.713  0.00  0.00    -0.056 OA
ATOM     32  O   UNL     1      27.434 -23.170 -14.657  0.00  0.00    -0.056 OA
BRANCH  30  33
ATOM     33  N   UNL     1      29.148 -22.419 -16.404  0.00  0.00    -0.204 NA
ATOM     34  H   UNL     1      29.779 -22.858 -17.074  0.00  0.00    +0.144 HD
ATOM     35  H   UNL     1      29.608 -21.614 -15.981  0.00  0.00    +0.144 HD
ENDBRANCH  30  33
ENDBRANCH  29  30
ENDBRANCH  28  29
ENDBRANCH  22  28
ENDBRANCH   1  21
TORSDOF 7
ENDMDL
MODEL 4
REMARK VINA RESULT:      -9.8      2.195      2.626
REMARK  Name = 16720766
REMARK  7 active torsions:
REMARK  status: ('A' for Active; 'I' for Inactive)
REMARK    1  A    between atoms: N_1  and  C_10
REMARK    2  A    between atoms: C_11  and  C_17
REMARK    3  A    between atoms: C_13  and  O_15
REMARK    4  A    between atoms: C_17  and  O_18
REMARK    5  A    between atoms: O_18  and  S_19
REMARK    6  A    between atoms: S_19  and  N_22
REMARK    7  A    between atoms: N_25  and  C_27
REMARK                            x       y       z     vdW  Elec       q    Type
REMARK                         _______ _______ _______ _____ _____    ______ ____
ROOT
ATOM      1  N   UNL     1      34.616 -21.288 -19.169  0.00  0.00    -0.276 N 
ATOM      2  N   UNL     1      36.751 -20.209 -19.472  0.00  0.00    -0.233 NA
ATOM      3  N   UNL     1      36.663 -18.354 -21.045  0.00  0.00    -0.233 NA
ATOM      4  C   UNL     1      35.437 -20.345 -19.726  0.00  0.00    +0.120 C 
ATOM      5  C   UNL     1      33.344 -21.131 -19.656  0.00  0.00    +0.062 C 
ATOM      6  C   UNL     1      34.675 -19.567 -20.589  0.00  0.00    +0.131 C 
ATOM      7  C   UNL     1      33.350 -20.072 -20.538  0.00  0.00    +0.004 C 
ATOM      8  C   UNL     1      35.330 -18.529 -21.271  0.00  0.00    +0.113 C 
ATOM      9  C   UNL     1      37.278 -19.188 -20.177  0.00  0.00    +0.252 C 
ATOM     10  N   UNL     1      34.650 -17.701 -22.151  0.00  0.00    -0.319 N 
ATOM     11  H   UNL     1      33.688 -17.859 -22.287  0.00  0.00    +0.148 HD
ENDROOT
BRANCH  10  12
ATOM     12  C   UNL     1      35.271 -16.621 -22.878  0.00  0.00    +0.093 C 
ATOM     13  C   UNL     1      34.972 -16.727 -24.385  0.00  0.00    +0.029 C 
ATOM     14  C   UNL     1      34.620 -15.313 -22.543  0.00  0.00    -0.008 C 
ATOM     15  C   UNL     1      33.669 -15.950 -24.638  0.00  0.00    +0.028 C 
ATOM     16  C   UNL     1      33.718 -14.930 -23.545  0.00  0.00    -0.025 C 
ATOM     17  C   UNL     1      34.801 -14.534 -21.412  0.00  0.00    -0.003 C 
ATOM     18  C   UNL     1      32.976 -13.767 -23.431  0.00  0.00    -0.005 C 
ATOM     19  C   UNL     1      34.065 -13.353 -21.295  0.00  0.00    -0.000 C 
ATOM     20  C   UNL     1      33.158 -12.973 -22.297  0.00  0.00    -0.000 C 
ENDBRANCH  10  12
BRANCH   1  21
ATOM     21  C   UNL     1      35.020 -22.309 -18.206  0.00  0.00    +0.081 C 
ATOM     22  C   UNL     1      34.161 -22.584 -15.932  0.00  0.00    +0.061 C 
ATOM     23  C   UNL     1      33.856 -22.922 -17.397  0.00  0.00    +0.025 C 
ATOM     24  C   UNL     1      35.689 -22.540 -15.885  0.00  0.00    +0.115 C 
ATOM     25  C   UNL     1      36.046 -21.803 -17.172  0.00  0.00    +0.049 C 
BRANCH  24  26
ATOM     26  O   UNL     1      36.235 -23.853 -15.914  0.00  0.00    -0.384 OA
ATOM     27  H   UNL     1      35.537 -24.489 -16.137  0.00  0.00    +0.210 HD
ENDBRANCH  24  26
BRANCH  22  28
ATOM     28  C   UNL     1      33.524 -23.565 -14.960  0.00  0.00    +0.176 C 
BRANCH  28  29
ATOM     29  O   UNL     1      33.883 -23.196 -13.639  0.00  0.00    -0.230 OA
BRANCH  29  30
ATOM     30  S   UNL     1      34.981 -24.085 -12.814  0.00  0.00    +0.045 S 
ATOM     31  O   UNL     1      36.221 -23.333 -12.739  0.00  0.00    -0.056 OA
ATOM     32  O   UNL     1      34.338 -24.548 -11.597  0.00  0.00    -0.056 OA
BRANCH  30  33
ATOM     33  N   UNL     1      35.247 -25.452 -13.814  0.00  0.00    -0.204 NA
ATOM     34  H   UNL     1      35.967 -25.234 -14.503  0.00  0.00    +0.144 HD
ATOM     35  H   UNL     1      34.381 -25.697 -14.293  0.00  0.00    +0.144 HD
ENDBRANCH  30  33
ENDBRANCH  29  30
ENDBRANCH  28  29
ENDBRANCH  22  28
ENDBRANCH   1  21
TORSDOF 7
ENDMDL
MODEL 5
REMARK VINA RESULT:      -9.7      5.970      9.549
REMARK  Name = 16720766
REMARK  7 active torsions:
REMARK  status: ('A' for Active; 'I' for Inactive)
REMARK    1  A    between atoms: N_1  and  C_10
REMARK    2  A    between atoms: C_11  and  C_17
REMARK    3  A    between atoms: C_13  and  O_15
REMARK    4  A    between atoms: C_17  and  O_18
REMARK    5  A    between atoms: O_18  and  S_19
REMARK    6  A    between atoms: S_19  and  N_22
REMARK    7  A    between atoms: N_25  and  C_27
REMARK                            x       y       z     vdW  Elec       q    Type
REMARK                         _______ _______ _______ _____ _____    ______ ____
ROOT
ATOM      1  N   UNL     1      33.556 -13.682 -23.484  0.00  0.00    -0.276 N 
ATOM      2  N   UNL     1      32.320 -13.099 -21.498  0.00  0.00    -0.233 NA
ATOM      3  N   UNL     1      31.914 -10.707 -21.300  0.00  0.00    -0.233 NA
ATOM      4  C   UNL     1      32.954 -12.787 -22.643  0.00  0.00    +0.120 C 
ATOM      5  C   UNL     1      34.102 -13.013 -24.550  0.00  0.00    +0.062 C 
ATOM      6  C   UNL     1      33.116 -11.516 -23.180  0.00  0.00    +0.131 C 
ATOM      7  C   UNL     1      33.843 -11.668 -24.388  0.00  0.00    +0.004 C 
ATOM      8  C   UNL     1      32.566 -10.438 -22.467  0.00  0.00    +0.113 C 
ATOM      9  C   UNL     1      31.833 -11.995 -20.896  0.00  0.00    +0.252 C 
ATOM     10  N   UNL     1      32.677  -9.135 -22.927  0.00  0.00    -0.319 N 
ATOM     11  H   UNL     1      33.155  -8.981 -23.774  0.00  0.00    +0.148 HD
ENDROOT
BRANCH  10  12
ATOM     12  C   UNL     1      32.133  -7.991 -22.236  0.00  0.00    +0.093 C 
ATOM     13  C   UNL     1      33.104  -7.490 -21.151  0.00  0.00    +0.029 C 
ATOM     14  C   UNL     1      32.074  -6.802 -23.146  0.00  0.00    -0.008 C 
ATOM     15  C   UNL     1      34.029  -6.458 -21.821  0.00  0.00    +0.028 C 
ATOM     16  C   UNL     1      33.143  -5.930 -22.904  0.00  0.00    -0.025 C 
ATOM     17  C   UNL     1      31.143  -6.531 -24.137  0.00  0.00    -0.003 C 
ATOM     18  C   UNL     1      33.309  -4.777 -23.653  0.00  0.00    -0.005 C 
ATOM     19  C   UNL     1      31.296  -5.364 -24.888  0.00  0.00    -0.000 C 
ATOM     20  C   UNL     1      32.372  -4.494 -24.648  0.00  0.00    -0.000 C 
ENDBRANCH  10  12
BRANCH   1  21
ATOM     21  C   UNL     1      33.618 -15.128 -23.289  0.00  0.00    +0.081 C 
ATOM     22  C   UNL     1      35.621 -16.445 -22.801  0.00  0.00    +0.061 C 
ATOM     23  C   UNL     1      34.542 -15.580 -22.137  0.00  0.00    +0.025 C 
ATOM     24  C   UNL     1      34.897 -17.065 -23.997  0.00  0.00    +0.115 C 
ATOM     25  C   UNL     1      34.084 -15.895 -24.543  0.00  0.00    +0.049 C 
BRANCH  24  26
ATOM     26  O   UNL     1      34.023 -18.106 -23.578  0.00  0.00    -0.384 OA
ATOM     27  H   UNL     1      33.685 -17.906 -22.691  0.00  0.00    +0.210 HD
ENDBRANCH  24  26
BRANCH  22  28
ATOM     28  C   UNL     1      36.236 -17.452 -21.841  0.00  0.00    +0.176 C 
BRANCH  28  29
ATOM     29  O   UNL     1      35.223 -17.932 -20.974  0.00  0.00    -0.230 OA
BRANCH  29  30
ATOM     30  S   UNL     1      34.963 -19.543 -20.837  0.00  0.00    +0.045 S 
ATOM     31  O   UNL     1      33.693 -19.749 -20.164  0.00  0.00    -0.056 OA
ATOM     32  O   UNL     1      35.196 -20.131 -22.144  0.00  0.00    -0.056 OA
BRANCH  30  33
ATOM     33  N   UNL     1      36.213 -20.081 -19.795  0.00  0.00    -0.204 NA
ATOM     34  H   UNL     1      35.802 -20.500 -18.960  0.00  0.00    +0.144 HD
ATOM     35  H   UNL     1      36.795 -19.288 -19.525  0.00  0.00    +0.144 HD
ENDBRANCH  30  33
ENDBRANCH  29  30
ENDBRANCH  28  29
ENDBRANCH  22  28
ENDBRANCH   1  21
TORSDOF 7
ENDMDL
MODEL 6
REMARK VINA RESULT:      -9.4      3.972      6.896
REMARK  Name = 16720766
REMARK  7 active torsions:
REMARK  status: ('A' for Active; 'I' for Inactive)
REMARK    1  A    between atoms: N_1  and  C_10
REMARK    2  A    between atoms: C_11  and  C_17
REMARK    3  A    between atoms: C_13  and  O_15
REMARK    4  A    between atoms: C_17  and  O_18
REMARK    5  A    between atoms: O_18  and  S_19
REMARK    6  A    between atoms: S_19  and  N_22
REMARK    7  A    between atoms: N_25  and  C_27
REMARK                            x       y       z     vdW  Elec       q    Type
REMARK                         _______ _______ _______ _____ _____    ______ ____
ROOT
ATOM      1  N   UNL     1      34.822 -15.887 -21.536  0.00  0.00    -0.276 N 
ATOM      2  N   UNL     1      34.290 -15.208 -23.787  0.00  0.00    -0.233 NA
ATOM      3  N   UNL     1      33.233 -13.018 -23.893  0.00  0.00    -0.233 NA
ATOM      4  C   UNL     1      34.318 -15.010 -22.457  0.00  0.00    +0.120 C 
ATOM      5  C   UNL     1      34.684 -15.359 -20.277  0.00  0.00    +0.062 C 
ATOM      6  C   UNL     1      33.847 -13.894 -21.775  0.00  0.00    +0.131 C 
ATOM      7  C   UNL     1      34.083 -14.124 -20.395  0.00  0.00    +0.004 C 
ATOM      8  C   UNL     1      33.282 -12.861 -22.540  0.00  0.00    +0.113 C 
ATOM      9  C   UNL     1      33.730 -14.159 -24.422  0.00  0.00    +0.252 C 
ATOM     10  N   UNL     1      32.788 -11.710 -21.946  0.00  0.00    -0.319 N 
ATOM     11  H   UNL     1      32.842 -11.633 -20.966  0.00  0.00    +0.148 HD
ENDROOT
BRANCH  10  12
ATOM     12  C   UNL     1      32.198 -10.618 -22.682  0.00  0.00    +0.093 C 
ATOM     13  C   UNL     1      31.122  -9.905 -21.842  0.00  0.00    +0.029 C 
ATOM     14  C   UNL     1      33.192  -9.513 -22.879  0.00  0.00    -0.008 C 
ATOM     15  C   UNL     1      31.834  -8.793 -21.053  0.00  0.00    +0.028 C 
ATOM     16  C   UNL     1      32.980  -8.477 -21.961  0.00  0.00    -0.025 C 
ATOM     17  C   UNL     1      34.229  -9.452 -23.797  0.00  0.00    -0.003 C 
ATOM     18  C   UNL     1      33.804  -7.364 -21.937  0.00  0.00    -0.005 C 
ATOM     19  C   UNL     1      35.056  -8.328 -23.788  0.00  0.00    -0.000 C 
ATOM     20  C   UNL     1      34.846  -7.291 -22.864  0.00  0.00    -0.000 C 
ENDBRANCH  10  12
BRANCH   1  21
ATOM     21  C   UNL     1      35.416 -17.189 -21.832  0.00  0.00    +0.081 C 
ATOM     22  C   UNL     1      35.112 -19.251 -20.553  0.00  0.00    +0.061 C 
ATOM     23  C   UNL     1      34.461 -18.387 -21.640  0.00  0.00    +0.025 C 
ATOM     24  C   UNL     1      36.609 -18.999 -20.744  0.00  0.00    +0.115 C 
ATOM     25  C   UNL     1      36.670 -17.495 -20.989  0.00  0.00    +0.049 C 
BRANCH  24  26
ATOM     26  O   UNL     1      37.099 -19.694 -21.884  0.00  0.00    -0.384 OA
ATOM     27  H   UNL     1      38.026 -19.940 -21.738  0.00  0.00    +0.210 HD
ENDBRANCH  24  26
BRANCH  22  28
ATOM     28  C   UNL     1      34.698 -20.712 -20.641  0.00  0.00    +0.176 C 
BRANCH  28  29
ATOM     29  O   UNL     1      35.020 -21.351 -19.417  0.00  0.00    -0.230 OA
BRANCH  29  30
ATOM     30  S   UNL     1      33.911 -22.300 -18.677  0.00  0.00    +0.045 S 
ATOM     31  O   UNL     1      32.694 -21.530 -18.491  0.00  0.00    -0.056 OA
ATOM     32  O   UNL     1      33.869 -23.560 -19.397  0.00  0.00    -0.056 OA
BRANCH  30  33
ATOM     33  N   UNL     1      34.589 -22.607 -17.133  0.00  0.00    -0.204 NA
ATOM     34  H   UNL     1      33.950 -22.276 -16.409  0.00  0.00    +0.144 HD
ATOM     35  H   UNL     1      35.480 -22.118 -17.049  0.00  0.00    +0.144 HD
ENDBRANCH  30  33
ENDBRANCH  29  30
ENDBRANCH  28  29
ENDBRANCH  22  28
ENDBRANCH   1  21
TORSDOF 7
ENDMDL
MODEL 7
REMARK VINA RESULT:      -9.4      5.335     10.205
REMARK  Name = 16720766
REMARK  7 active torsions:
REMARK  status: ('A' for Active; 'I' for Inactive)
REMARK    1  A    between atoms: N_1  and  C_10
REMARK    2  A    between atoms: C_11  and  C_17
REMARK    3  A    between atoms: C_13  and  O_15
REMARK    4  A    between atoms: C_17  and  O_18
REMARK    5  A    between atoms: O_18  and  S_19
REMARK    6  A    between atoms: S_19  and  N_22
REMARK    7  A    between atoms: N_25  and  C_27
REMARK                            x       y       z     vdW  Elec       q    Type
REMARK                         _______ _______ _______ _____ _____    ______ ____
ROOT
ATOM      1  N   UNL     1      35.829 -21.020 -19.246  0.00  0.00    -0.276 N 
ATOM      2  N   UNL     1      33.875 -22.357 -18.787  0.00  0.00    -0.233 NA
ATOM      3  N   UNL     1      33.955 -23.438 -16.607  0.00  0.00    -0.233 NA
ATOM      4  C   UNL     1      35.077 -21.849 -18.458  0.00  0.00    +0.120 C 
ATOM      5  C   UNL     1      36.993 -20.702 -18.594  0.00  0.00    +0.062 C 
ATOM      6  C   UNL     1      35.775 -22.068 -17.277  0.00  0.00    +0.131 C 
ATOM      7  C   UNL     1      36.986 -21.337 -17.371  0.00  0.00    +0.004 C 
ATOM      8  C   UNL     1      35.174 -22.901 -16.318  0.00  0.00    +0.113 C 
ATOM      9  C   UNL     1      33.393 -23.138 -17.800  0.00  0.00    +0.252 C 
ATOM     10  N   UNL     1      35.795 -23.175 -15.109  0.00  0.00    -0.319 N 
ATOM     11  H   UNL     1      36.675 -22.767 -14.936  0.00  0.00    +0.148 HD
ENDROOT
BRANCH  10  12
ATOM     12  C   UNL     1      35.226 -24.022 -14.089  0.00  0.00    +0.093 C 
ATOM     13  C   UNL     1      35.191 -25.491 -14.549  0.00  0.00    +0.029 C 
ATOM     14  C   UNL     1      36.140 -24.110 -12.904  0.00  0.00    -0.008 C 
ATOM     15  C   UNL     1      36.526 -26.126 -14.123  0.00  0.00    +0.028 C 
ATOM     16  C   UNL     1      36.869 -25.306 -12.920  0.00  0.00    -0.025 C 
ATOM     17  C   UNL     1      36.323 -23.176 -11.897  0.00  0.00    -0.003 C 
ATOM     18  C   UNL     1      37.801 -25.587 -11.935  0.00  0.00    -0.005 C 
ATOM     19  C   UNL     1      37.252 -23.458 -10.893  0.00  0.00    -0.000 C 
ATOM     20  C   UNL     1      37.987 -24.654 -10.913  0.00  0.00    -0.000 C 
ENDBRANCH  10  12
BRANCH   1  21
ATOM     21  C   UNL     1      35.461 -20.541 -20.576  0.00  0.00    +0.081 C 
ATOM     22  C   UNL     1      35.246 -18.206 -21.273  0.00  0.00    +0.061 C 
ATOM     23  C   UNL     1      36.275 -19.325 -21.067  0.00  0.00    +0.025 C 
ATOM     24  C   UNL     1      33.971 -18.960 -21.656  0.00  0.00    +0.115 C 
ATOM     25  C   UNL     1      33.975 -20.143 -20.693  0.00  0.00    +0.049 C 
BRANCH  24  26
ATOM     26  O   UNL     1      34.041 -19.429 -22.997  0.00  0.00    -0.384 OA
ATOM     27  H   UNL     1      34.011 -20.399 -23.002  0.00  0.00    +0.210 HD
ENDBRANCH  24  26
BRANCH  22  28
ATOM     28  C   UNL     1      35.701 -17.172 -22.291  0.00  0.00    +0.176 C 
BRANCH  28  29
ATOM     29  O   UNL     1      34.582 -16.395 -22.682  0.00  0.00    -0.230 OA
BRANCH  29  30
ATOM     30  S   UNL     1      34.242 -16.198 -24.271  0.00  0.00    +0.045 S 
ATOM     31  O   UNL     1      35.478 -15.900 -24.974  0.00  0.00    -0.056 OA
ATOM     32  O   UNL     1      33.426 -17.326 -24.684  0.00  0.00    -0.056 OA
BRANCH  30  33
ATOM     33  N   UNL     1      33.254 -14.798 -24.316  0.00  0.00    -0.204 NA
ATOM     34  H   UNL     1      33.567 -14.185 -25.069  0.00  0.00    +0.144 HD
ATOM     35  H   UNL     1      33.322 -14.305 -23.426  0.00  0.00    +0.144 HD
ENDBRANCH  30  33
ENDBRANCH  29  30
ENDBRANCH  28  29
ENDBRANCH  22  28
ENDBRANCH   1  21
TORSDOF 7
ENDMDL
MODEL 8
REMARK VINA RESULT:      -9.3      7.522     11.176
REMARK  Name = 16720766
REMARK  7 active torsions:
REMARK  status: ('A' for Active; 'I' for Inactive)
REMARK    1  A    between atoms: N_1  and  C_10
REMARK    2  A    between atoms: C_11  and  C_17
REMARK    3  A    between atoms: C_13  and  O_15
REMARK    4  A    between atoms: C_17  and  O_18
REMARK    5  A    between atoms: O_18  and  S_19
REMARK    6  A    between atoms: S_19  and  N_22
REMARK    7  A    between atoms: N_25  and  C_27
REMARK                            x       y       z     vdW  Elec       q    Type
REMARK                         _______ _______ _______ _____ _____    ______ ____
ROOT
ATOM      1  N   UNL     1      32.490 -11.540 -22.595  0.00  0.00    -0.276 N 
ATOM      2  N   UNL     1      34.340 -10.780 -23.942  0.00  0.00    -0.233 NA
ATOM      3  N   UNL     1      34.605  -8.361 -23.912  0.00  0.00    -0.233 NA
ATOM      4  C   UNL     1      33.297 -10.567 -23.120  0.00  0.00    +0.120 C 
ATOM      5  C   UNL     1      31.530 -10.961 -21.804  0.00  0.00    +0.062 C 
ATOM      6  C   UNL     1      32.844  -9.338 -22.656  0.00  0.00    +0.131 C 
ATOM      7  C   UNL     1      31.726  -9.597 -21.823  0.00  0.00    +0.004 C 
ATOM      8  C   UNL     1      33.540  -8.193 -23.079  0.00  0.00    +0.113 C 
ATOM      9  C   UNL     1      34.932  -9.619 -24.285  0.00  0.00    +0.252 C 
ATOM     10  N   UNL     1      33.162  -6.925 -22.665  0.00  0.00    -0.319 N 
ATOM     11  H   UNL     1      32.388  -6.844 -22.062  0.00  0.00    +0.148 HD
ENDROOT
BRANCH  10  12
ATOM     12  C   UNL     1      33.838  -5.716 -23.068  0.00  0.00    +0.093 C 
ATOM     13  C   UNL     1      34.403  -5.848 -24.495  0.00  0.00    +0.029 C 
ATOM     14  C   UNL     1      32.859  -4.595 -23.246  0.00  0.00    -0.008 C 
ATOM     15  C   UNL     1      33.300  -5.376 -25.458  0.00  0.00    +0.028 C 
ATOM     16  C   UNL     1      32.561  -4.398 -24.600  0.00  0.00    -0.025 C 
ATOM     17  C   UNL     1      32.258  -3.823 -22.264  0.00  0.00    -0.003 C 
ATOM     18  C   UNL     1      31.651  -3.433 -24.998  0.00  0.00    -0.005 C 
ATOM     19  C   UNL     1      31.349  -2.840 -22.658  0.00  0.00    -0.000 C 
ATOM     20  C   UNL     1      31.047  -2.647 -24.016  0.00  0.00    -0.000 C 
ENDBRANCH  10  12
BRANCH   1  21
ATOM     21  C   UNL     1      32.618 -12.976 -22.833  0.00  0.00    +0.081 C 
ATOM     22  C   UNL     1      34.513 -14.389 -22.205  0.00  0.00    +0.061 C 
ATOM     23  C   UNL     1      33.222 -13.769 -21.655  0.00  0.00    +0.025 C 
ATOM     24  C   UNL     1      34.203 -14.601 -23.688  0.00  0.00    +0.115 C 
ATOM     25  C   UNL     1      33.476 -13.315 -24.069  0.00  0.00    +0.049 C 
BRANCH  24  26
ATOM     26  O   UNL     1      33.340 -15.716 -23.873  0.00  0.00    -0.384 OA
ATOM     27  H   UNL     1      33.739 -16.333 -24.507  0.00  0.00    +0.210 HD
ENDBRANCH  24  26
BRANCH  22  28
ATOM     28  C   UNL     1      34.922 -15.649 -21.457  0.00  0.00    +0.176 C 
BRANCH  28  29
ATOM     29  O   UNL     1      35.424 -16.591 -22.390  0.00  0.00    -0.230 OA
BRANCH  29  30
ATOM     30  S   UNL     1      35.665 -18.143 -21.931  0.00  0.00    +0.045 S 
ATOM     31  O   UNL     1      35.290 -18.276 -20.535  0.00  0.00    -0.056 OA
ATOM     32  O   UNL     1      35.047 -18.992 -22.933  0.00  0.00    -0.056 OA
BRANCH  30  33
ATOM     33  N   UNL     1      37.363 -18.353 -22.048  0.00  0.00    -0.204 NA
ATOM     34  H   UNL     1      37.806 -18.024 -21.190  0.00  0.00    +0.144 HD
ATOM     35  H   UNL     1      37.718 -17.818 -22.840  0.00  0.00    +0.144 HD
ENDBRANCH  30  33
ENDBRANCH  29  30
ENDBRANCH  28  29
ENDBRANCH  22  28
ENDBRANCH   1  21
TORSDOF 7
ENDMDL
MODEL 9
REMARK VINA RESULT:      -9.1      6.697     10.432
REMARK  Name = 16720766
REMARK  7 active torsions:
REMARK  status: ('A' for Active; 'I' for Inactive)
REMARK    1  A    between atoms: N_1  and  C_10
REMARK    2  A    between atoms: C_11  and  C_17
REMARK    3  A    between atoms: C_13  and  O_15
REMARK    4  A    between atoms: C_17  and  O_18
REMARK    5  A    between atoms: O_18  and  S_19
REMARK    6  A    between atoms: S_19  and  N_22
REMARK    7  A    between atoms: N_25  and  C_27
REMARK                            x       y       z     vdW  Elec       q    Type
REMARK                         _______ _______ _______ _____ _____    ______ ____
ROOT
ATOM      1  N   UNL     1      34.723 -15.370 -22.192  0.00  0.00    -0.276 N 
ATOM      2  N   UNL     1      35.004 -17.249 -23.676  0.00  0.00    -0.233 NA
ATOM      3  N   UNL     1      35.240 -19.365 -22.496  0.00  0.00    -0.233 NA
ATOM      4  C   UNL     1      34.900 -16.702 -22.452  0.00  0.00    +0.120 C 
ATOM      5  C   UNL     1      34.661 -15.173 -20.836  0.00  0.00    +0.062 C 
ATOM      6  C   UNL     1      34.952 -17.374 -21.236  0.00  0.00    +0.131 C 
ATOM      7  C   UNL     1      34.799 -16.398 -20.219  0.00  0.00    +0.004 C 
ATOM      8  C   UNL     1      35.129 -18.766 -21.276  0.00  0.00    +0.113 C 
ATOM      9  C   UNL     1      35.172 -18.584 -23.598  0.00  0.00    +0.252 C 
ATOM     10  N   UNL     1      35.191 -19.520 -20.114  0.00  0.00    -0.319 N 
ATOM     11  H   UNL     1      35.107 -19.051 -19.252  0.00  0.00    +0.148 HD
ENDROOT
BRANCH  10  12
ATOM     12  C   UNL     1      35.373 -20.951 -20.095  0.00  0.00    +0.093 C 
ATOM     13  C   UNL     1      36.798 -21.320 -19.644  0.00  0.00    +0.029 C 
ATOM     14  C   UNL     1      34.552 -21.574 -19.007  0.00  0.00    -0.008 C 
ATOM     15  C   UNL     1      36.762 -21.453 -18.111  0.00  0.00    +0.028 C 
ATOM     16  C   UNL     1      35.342 -21.866 -17.887  0.00  0.00    -0.025 C 
ATOM     17  C   UNL     1      33.192 -21.839 -19.009  0.00  0.00    -0.003 C 
ATOM     18  C   UNL     1      34.786 -22.419 -16.746  0.00  0.00    -0.005 C 
ATOM     19  C   UNL     1      32.626 -22.408 -17.866  0.00  0.00    -0.000 C 
ATOM     20  C   UNL     1      33.417 -22.695 -16.742  0.00  0.00    -0.000 C 
ENDBRANCH  10  12
BRANCH   1  21
ATOM     21  C   UNL     1      34.618 -14.311 -23.193  0.00  0.00    +0.081 C 
ATOM     22  C   UNL     1      33.139 -12.366 -23.102  0.00  0.00    +0.061 C 
ATOM     23  C   UNL     1      34.495 -12.887 -22.609  0.00  0.00    +0.025 C 
ATOM     24  C   UNL     1      32.951 -13.072 -24.446  0.00  0.00    +0.115 C 
ATOM     25  C   UNL     1      33.423 -14.492 -24.150  0.00  0.00    +0.049 C 
BRANCH  24  26
ATOM     26  O   UNL     1      33.776 -12.488 -25.446  0.00  0.00    -0.384 OA
ATOM     27  H   UNL     1      33.741 -11.521 -25.369  0.00  0.00    +0.210 HD
ENDBRANCH  24  26
BRANCH  22  28
ATOM     28  C   UNL     1      33.086 -10.847 -23.171  0.00  0.00    +0.176 C 
BRANCH  28  29
ATOM     29  O   UNL     1      32.291 -10.370 -22.098  0.00  0.00    -0.230 OA
BRANCH  29  30
ATOM     30  S   UNL     1      32.200  -8.762 -21.804  0.00  0.00    +0.045 S 
ATOM     31  O   UNL     1      31.099  -8.214 -22.577  0.00  0.00    -0.056 OA
ATOM     32  O   UNL     1      32.237  -8.582 -20.364  0.00  0.00    -0.056 OA
BRANCH  30  33
ATOM     33  N   UNL     1      33.662  -8.137 -22.444  0.00  0.00    -0.204 NA
ATOM     34  H   UNL     1      34.171  -8.882 -22.920  0.00  0.00    +0.144 HD
ATOM     35  H   UNL     1      34.234  -7.766 -21.685  0.00  0.00    +0.144 HD
ENDBRANCH  30  33
ENDBRANCH  29  30
ENDBRANCH  28  29
ENDBRANCH  22  28
ENDBRANCH   1  21
TORSDOF 7
ENDMDL
