MODEL 1
REMARK VINA RESULT:     -11.3      0.000      0.000
REMARK  Name = 23586145
REMARK  7 active torsions:
REMARK  status: ('A' for Active; 'I' for Inactive)
REMARK    1  A    between atoms: C_5  and  O_24
REMARK    2  A    between atoms: C_7  and  N_10
REMARK    3  A    between atoms: N_10  and  C_12
REMARK    4  A    between atoms: C_15  and  S_18
REMARK    5  A    between atoms: S_18  and  N_21
REMARK    6  A    between atoms: O_24  and  C_25
REMARK    7  A    between atoms: C_25  and  C_26
REMARK                            x       y       z     vdW  Elec       q    Type
REMARK                         _______ _______ _______ _____ _____    ______ ____
ROOT
ATOM      1  N   UNL     1      32.539 -23.420 -14.165  0.00  0.00    -0.299 NA
ATOM      2  N   UNL     1      31.527 -22.849 -16.271  0.00  0.00    -0.106 N 
ATOM      3  N   UNL     1      30.287 -22.573 -16.754  0.00  0.00    -0.139 NA
ATOM      4  N   UNL     1      30.173 -23.007 -14.521  0.00  0.00    -0.145 NA
ATOM      5  C   UNL     1      33.654 -23.448 -14.821  0.00  0.00    +0.291 C 
ATOM      6  C   UNL     1      33.863 -23.188 -16.262  0.00  0.00    +0.105 C 
ATOM      7  C   UNL     1      32.751 -22.888 -16.956  0.00  0.00    +0.142 C 
ATOM      8  C   UNL     1      31.431 -23.112 -14.899  0.00  0.00    +0.178 C 
ATOM      9  C   UNL     1      29.527 -22.682 -15.670  0.00  0.00    +0.230 C 
ENDROOT
BRANCH   7  10
ATOM     10  N   UNL     1      32.735 -22.615 -18.294  0.00  0.00    -0.299 N 
ATOM     11  H   UNL     1      32.087 -23.129 -18.829  0.00  0.00    +0.153 HD
BRANCH  10  12
ATOM     12  C   UNL     1      33.522 -21.701 -19.004  0.00  0.00    +0.049 C 
ATOM     13  C   UNL     1      34.918 -21.733 -18.894  0.00  0.00    +0.016 C 
ATOM     14  C   UNL     1      32.923 -20.744 -19.832  0.00  0.00    +0.016 C 
ATOM     15  C   UNL     1      35.097 -19.871 -20.424  0.00  0.00    +0.122 C 
ATOM     16  C   UNL     1      35.702 -20.822 -19.602  0.00  0.00    +0.021 C 
ATOM     17  C   UNL     1      33.707 -19.832 -20.539  0.00  0.00    +0.021 C 
BRANCH  15  18
ATOM     18  S   UNL     1      36.078 -18.731 -21.310  0.00  0.00    +0.057 S 
ATOM     19  O   UNL     1      37.469 -18.927 -20.926  0.00  0.00    -0.153 OA
ATOM     20  O   UNL     1      35.701 -18.789 -22.715  0.00  0.00    -0.153 OA
BRANCH  18  21
ATOM     21  N   UNL     1      35.528 -17.251 -20.654  0.00  0.00    -0.203 NA
ATOM     22  H   UNL     1      36.197 -16.513 -20.875  0.00  0.00    +0.144 HD
ATOM     23  H   UNL     1      35.439 -17.340 -19.643  0.00  0.00    +0.144 HD
ENDBRANCH  18  21
ENDBRANCH  15  18
ENDBRANCH  10  12
ENDBRANCH   7  10
BRANCH   5  24
ATOM     24  O   UNL     1      34.788 -23.739 -14.191  0.00  0.00    -0.451 OA
BRANCH  24  25
ATOM     25  C   UNL     1      35.327 -25.016 -14.477  0.00  0.00    +0.208 C 
BRANCH  25  26
ATOM     26  C   UNL     1      36.422 -25.319 -13.456  0.00  0.00    +0.044 C 
ATOM     27  C   UNL     1      37.780 -24.800 -13.948  0.00  0.00    +0.004 C 
ATOM     28  C   UNL     1      36.070 -24.717 -12.089  0.00  0.00    +0.004 C 
ATOM     29  C   UNL     1      38.883 -25.046 -12.920  0.00  0.00    +0.000 C 
ATOM     30  C   UNL     1      37.176 -24.962 -11.064  0.00  0.00    +0.000 C 
ATOM     31  C   UNL     1      38.525 -24.454 -11.560  0.00  0.00    +0.000 C 
ENDBRANCH  25  26
ENDBRANCH  24  25
ENDBRANCH   5  24
TORSDOF 7
ENDMDL
MODEL 2
REMARK VINA RESULT:     -11.3      1.059      1.781
REMARK  Name = 23586145
REMARK  7 active torsions:
REMARK  status: ('A' for Active; 'I' for Inactive)
REMARK    1  A    between atoms: C_5  and  O_24
REMARK    2  A    between atoms: C_7  and  N_10
REMARK    3  A    between atoms: N_10  and  C_12
REMARK    4  A    between atoms: C_15  and  S_18
REMARK    5  A    between atoms: S_18  and  N_21
REMARK    6  A    between atoms: O_24  and  C_25
REMARK    7  A    between atoms: C_25  and  C_26
REMARK                            x       y       z     vdW  Elec       q    Type
REMARK                         _______ _______ _______ _____ _____    ______ ____
ROOT
ATOM      1  N   UNL     1      32.544 -23.255 -13.918  0.00  0.00    -0.299 NA
ATOM      2  N   UNL     1      31.881 -22.997 -16.216  0.00  0.00    -0.106 N 
ATOM      3  N   UNL     1      30.738 -22.790 -16.920  0.00  0.00    -0.139 NA
ATOM      4  N   UNL     1      30.272 -22.888 -14.692  0.00  0.00    -0.145 NA
ATOM      5  C   UNL     1      33.744 -23.386 -14.382  0.00  0.00    +0.291 C 
ATOM      6  C   UNL     1      34.178 -23.342 -15.796  0.00  0.00    +0.105 C 
ATOM      7  C   UNL     1      33.194 -23.143 -16.690  0.00  0.00    +0.142 C 
ATOM      8  C   UNL     1      31.570 -23.054 -14.852  0.00  0.00    +0.178 C 
ATOM      9  C   UNL     1      29.818 -22.733 -15.962  0.00  0.00    +0.230 C 
ENDROOT
BRANCH   7  10
ATOM     10  N   UNL     1      33.389 -23.071 -18.039  0.00  0.00    -0.299 N 
ATOM     11  H   UNL     1      33.100 -23.856 -18.558  0.00  0.00    +0.153 HD
BRANCH  10  12
ATOM     12  C   UNL     1      33.951 -22.025 -18.781  0.00  0.00    +0.049 C 
ATOM     13  C   UNL     1      33.130 -21.134 -19.484  0.00  0.00    +0.016 C 
ATOM     14  C   UNL     1      35.340 -21.857 -18.829  0.00  0.00    +0.016 C 
ATOM     15  C   UNL     1      35.075 -19.932 -20.265  0.00  0.00    +0.122 C 
ATOM     16  C   UNL     1      33.690 -20.092 -20.223  0.00  0.00    +0.021 C 
ATOM     17  C   UNL     1      35.901 -20.815 -19.568  0.00  0.00    +0.021 C 
BRANCH  15  18
ATOM     18  S   UNL     1      35.776 -18.627 -21.190  0.00  0.00    +0.057 S 
ATOM     19  O   UNL     1      35.481 -18.853 -22.598  0.00  0.00    -0.153 OA
ATOM     20  O   UNL     1      35.403 -17.366 -20.566  0.00  0.00    -0.153 OA
BRANCH  18  21
ATOM     21  N   UNL     1      37.442 -18.899 -20.924  0.00  0.00    -0.203 NA
ATOM     22  H   UNL     1      37.640 -19.896 -21.009  0.00  0.00    +0.144 HD
ATOM     23  H   UNL     1      37.693 -18.581 -19.989  0.00  0.00    +0.144 HD
ENDBRANCH  18  21
ENDBRANCH  15  18
ENDBRANCH  10  12
ENDBRANCH   7  10
BRANCH   5  24
ATOM     24  O   UNL     1      34.761 -23.586 -13.549  0.00  0.00    -0.451 OA
BRANCH  24  25
ATOM     25  C   UNL     1      36.021 -23.145 -14.018  0.00  0.00    +0.208 C 
BRANCH  25  26
ATOM     26  C   UNL     1      37.106 -24.006 -13.373  0.00  0.00    +0.044 C 
ATOM     27  C   UNL     1      36.496 -25.271 -12.753  0.00  0.00    +0.004 C 
ATOM     28  C   UNL     1      38.191 -24.367 -14.397  0.00  0.00    +0.004 C 
ATOM     29  C   UNL     1      37.569 -26.174 -12.147  0.00  0.00    +0.000 C 
ATOM     30  C   UNL     1      39.260 -25.273 -13.788  0.00  0.00    +0.000 C 
ATOM     31  C   UNL     1      38.649 -26.524 -13.165  0.00  0.00    +0.000 C 
ENDBRANCH  25  26
ENDBRANCH  24  25
ENDBRANCH   5  24
TORSDOF 7
ENDMDL
MODEL 3
REMARK VINA RESULT:     -11.3      5.296     11.093
REMARK  Name = 23586145
REMARK  7 active torsions:
REMARK  status: ('A' for Active; 'I' for Inactive)
REMARK    1  A    between atoms: C_5  and  O_24
REMARK    2  A    between atoms: C_7  and  N_10
REMARK    3  A    between atoms: N_10  and  C_12
REMARK    4  A    between atoms: C_15  and  S_18
REMARK    5  A    between atoms: S_18  and  N_21
REMARK    6  A    between atoms: O_24  and  C_25
REMARK    7  A    between atoms: C_25  and  C_26
REMARK                            x       y       z     vdW  Elec       q    Type
REMARK                         _______ _______ _______ _____ _____    ______ ____
ROOT
ATOM      1  N   UNL     1      33.960 -15.893 -23.890  0.00  0.00    -0.299 NA
ATOM      2  N   UNL     1      34.575 -18.130 -23.257  0.00  0.00    -0.106 N 
ATOM      3  N   UNL     1      34.350 -19.399 -23.686  0.00  0.00    -0.139 NA
ATOM      4  N   UNL     1      33.265 -17.918 -25.035  0.00  0.00    -0.145 NA
ATOM      5  C   UNL     1      34.672 -15.516 -22.878  0.00  0.00    +0.291 C 
ATOM      6  C   UNL     1      35.421 -16.370 -21.930  0.00  0.00    +0.105 C 
ATOM      7  C   UNL     1      35.340 -17.692 -22.165  0.00  0.00    +0.142 C 
ATOM      8  C   UNL     1      33.899 -17.239 -24.100  0.00  0.00    +0.178 C 
ATOM      9  C   UNL     1      33.567 -19.209 -24.743  0.00  0.00    +0.230 C 
ENDROOT
BRANCH   7  10
ATOM     10  N   UNL     1      35.960 -18.643 -21.406  0.00  0.00    -0.299 N 
ATOM     11  H   UNL     1      36.944 -18.634 -21.427  0.00  0.00    +0.153 HD
BRANCH  10  12
ATOM     12  C   UNL     1      35.376 -19.630 -20.603  0.00  0.00    +0.049 C 
ATOM     13  C   UNL     1      33.984 -19.772 -20.553  0.00  0.00    +0.016 C 
ATOM     14  C   UNL     1      36.179 -20.488 -19.841  0.00  0.00    +0.016 C 
ATOM     15  C   UNL     1      34.210 -21.606 -18.997  0.00  0.00    +0.122 C 
ATOM     16  C   UNL     1      33.403 -20.756 -19.753  0.00  0.00    +0.021 C 
ATOM     17  C   UNL     1      35.598 -21.472 -19.041  0.00  0.00    +0.021 C 
BRANCH  15  18
ATOM     18  S   UNL     1      33.482 -22.838 -17.995  0.00  0.00    +0.057 S 
ATOM     19  O   UNL     1      32.176 -22.364 -17.562  0.00  0.00    -0.153 OA
ATOM     20  O   UNL     1      33.597 -24.118 -18.680  0.00  0.00    -0.153 OA
BRANCH  18  21
ATOM     21  N   UNL     1      34.544 -22.835 -16.656  0.00  0.00    -0.203 NA
ATOM     22  H   UNL     1      34.820 -21.876 -16.444  0.00  0.00    +0.144 HD
ATOM     23  H   UNL     1      35.371 -23.387 -16.877  0.00  0.00    +0.144 HD
ENDBRANCH  18  21
ENDBRANCH  15  18
ENDBRANCH  10  12
ENDBRANCH   7  10
BRANCH   5  24
ATOM     24  O   UNL     1      34.790 -14.223 -22.592  0.00  0.00    -0.451 OA
BRANCH  24  25
ATOM     25  C   UNL     1      34.012 -13.354 -23.394  0.00  0.00    +0.208 C 
BRANCH  25  26
ATOM     26  C   UNL     1      33.480 -12.227 -22.510  0.00  0.00    +0.044 C 
ATOM     27  C   UNL     1      33.180 -10.977 -23.349  0.00  0.00    +0.004 C 
ATOM     28  C   UNL     1      32.231 -12.682 -21.744  0.00  0.00    +0.004 C 
ATOM     29  C   UNL     1      32.598  -9.852 -22.496  0.00  0.00    +0.000 C 
ATOM     30  C   UNL     1      31.649 -11.554 -20.893  0.00  0.00    +0.000 C 
ATOM     31  C   UNL     1      31.362 -10.312 -21.729  0.00  0.00    +0.000 C 
ENDBRANCH  25  26
ENDBRANCH  24  25
ENDBRANCH   5  24
TORSDOF 7
ENDMDL
MODEL 4
REMARK VINA RESULT:     -11.1      2.182      5.942
REMARK  Name = 23586145
REMARK  7 active torsions:
REMARK  status: ('A' for Active; 'I' for Inactive)
REMARK    1  A    between atoms: C_5  and  O_24
REMARK    2  A    between atoms: C_7  and  N_10
REMARK    3  A    between atoms: N_10  and  C_12
REMARK    4  A    between atoms: C_15  and  S_18
REMARK    5  A    between atoms: S_18  and  N_21
REMARK    6  A    between atoms: O_24  and  C_25
REMARK    7  A    between atoms: C_25  and  C_26
REMARK                            x       y       z     vdW  Elec       q    Type
REMARK                         _______ _______ _______ _____ _____    ______ ____
ROOT
ATOM      1  N   UNL     1      32.341 -23.191 -14.101  0.00  0.00    -0.299 NA
ATOM      2  N   UNL     1      33.991 -23.360 -15.842  0.00  0.00    -0.106 N 
ATOM      3  N   UNL     1      35.324 -23.599 -15.950  0.00  0.00    -0.139 NA
ATOM      4  N   UNL     1      34.699 -23.657 -13.761  0.00  0.00    -0.145 NA
ATOM      5  C   UNL     1      31.500 -22.959 -15.056  0.00  0.00    +0.291 C 
ATOM      6  C   UNL     1      31.775 -22.895 -16.508  0.00  0.00    +0.105 C 
ATOM      7  C   UNL     1      33.057 -23.105 -16.857  0.00  0.00    +0.142 C 
ATOM      8  C   UNL     1      33.632 -23.401 -14.490  0.00  0.00    +0.178 C 
ATOM      9  C   UNL     1      35.689 -23.768 -14.683  0.00  0.00    +0.230 C 
ENDROOT
BRANCH   7  10
ATOM     10  N   UNL     1      33.511 -23.088 -18.145  0.00  0.00    -0.299 N 
ATOM     11  H   UNL     1      33.461 -23.944 -18.629  0.00  0.00    +0.153 HD
BRANCH  10  12
ATOM     12  C   UNL     1      34.043 -22.012 -18.864  0.00  0.00    +0.049 C 
ATOM     13  C   UNL     1      35.426 -21.802 -18.909  0.00  0.00    +0.016 C 
ATOM     14  C   UNL     1      33.195 -21.131 -19.549  0.00  0.00    +0.016 C 
ATOM     15  C   UNL     1      35.104 -19.857 -20.305  0.00  0.00    +0.122 C 
ATOM     16  C   UNL     1      35.955 -20.729 -19.627  0.00  0.00    +0.021 C 
ATOM     17  C   UNL     1      33.723 -20.057 -20.266  0.00  0.00    +0.021 C 
BRANCH  15  18
ATOM     18  S   UNL     1      35.765 -18.513 -21.203  0.00  0.00    +0.057 S 
ATOM     19  O   UNL     1      35.395 -18.669 -22.602  0.00  0.00    -0.153 OA
ATOM     20  O   UNL     1      35.437 -17.281 -20.501  0.00  0.00    -0.153 OA
BRANCH  18  21
ATOM     21  N   UNL     1      37.441 -18.807 -21.040  0.00  0.00    -0.203 NA
ATOM     22  H   UNL     1      37.634 -19.155 -20.100  0.00  0.00    +0.144 HD
ATOM     23  H   UNL     1      37.955 -17.941 -21.194  0.00  0.00    +0.144 HD
ENDBRANCH  18  21
ENDBRANCH  15  18
ENDBRANCH  10  12
ENDBRANCH   7  10
BRANCH   5  24
ATOM     24  O   UNL     1      30.218 -22.743 -14.776  0.00  0.00    -0.451 OA
BRANCH  24  25
ATOM     25  C   UNL     1      29.389 -23.888 -14.823  0.00  0.00    +0.208 C 
BRANCH  25  26
ATOM     26  C   UNL     1      28.053 -23.492 -15.450  0.00  0.00    +0.044 C 
ATOM     27  C   UNL     1      27.376 -22.387 -14.628  0.00  0.00    +0.004 C 
ATOM     28  C   UNL     1      28.247 -23.050 -16.906  0.00  0.00    +0.004 C 
ATOM     29  C   UNL     1      26.061 -21.937 -15.264  0.00  0.00    +0.000 C 
ATOM     30  C   UNL     1      26.931 -22.598 -17.539  0.00  0.00    +0.000 C 
ATOM     31  C   UNL     1      26.257 -21.506 -16.714  0.00  0.00    +0.000 C 
ENDBRANCH  25  26
ENDBRANCH  24  25
ENDBRANCH   5  24
TORSDOF 7
ENDMDL
MODEL 5
REMARK VINA RESULT:     -11.0      3.503      7.740
REMARK  Name = 23586145
REMARK  7 active torsions:
REMARK  status: ('A' for Active; 'I' for Inactive)
REMARK    1  A    between atoms: C_5  and  O_24
REMARK    2  A    between atoms: C_7  and  N_10
REMARK    3  A    between atoms: N_10  and  C_12
REMARK    4  A    between atoms: C_15  and  S_18
REMARK    5  A    between atoms: S_18  and  N_21
REMARK    6  A    between atoms: O_24  and  C_25
REMARK    7  A    between atoms: C_25  and  C_26
REMARK                            x       y       z     vdW  Elec       q    Type
REMARK                         _______ _______ _______ _____ _____    ______ ____
ROOT
ATOM      1  N   UNL     1      32.352 -22.386 -17.921  0.00  0.00    -0.299 NA
ATOM      2  N   UNL     1      32.661 -23.123 -15.652  0.00  0.00    -0.106 N 
ATOM      3  N   UNL     1      31.889 -23.443 -14.580  0.00  0.00    -0.139 NA
ATOM      4  N   UNL     1      30.569 -22.840 -16.336  0.00  0.00    -0.145 NA
ATOM      5  C   UNL     1      33.644 -22.400 -17.997  0.00  0.00    +0.291 C 
ATOM      6  C   UNL     1      34.608 -22.769 -16.938  0.00  0.00    +0.105 C 
ATOM      7  C   UNL     1      34.060 -23.129 -15.764  0.00  0.00    +0.142 C 
ATOM      8  C   UNL     1      31.828 -22.756 -16.717  0.00  0.00    +0.178 C 
ATOM      9  C   UNL     1      30.659 -23.257 -15.047  0.00  0.00    +0.230 C 
ENDROOT
BRANCH   7  10
ATOM     10  N   UNL     1      34.779 -23.503 -14.666  0.00  0.00    -0.299 N 
ATOM     11  H   UNL     1      34.400 -23.244 -13.795  0.00  0.00    +0.153 HD
BRANCH  10  12
ATOM     12  C   UNL     1      35.989 -24.207 -14.618  0.00  0.00    +0.049 C 
ATOM     13  C   UNL     1      37.207 -23.519 -14.558  0.00  0.00    +0.016 C 
ATOM     14  C   UNL     1      35.994 -25.608 -14.631  0.00  0.00    +0.016 C 
ATOM     15  C   UNL     1      38.408 -25.616 -14.524  0.00  0.00    +0.122 C 
ATOM     16  C   UNL     1      38.411 -24.221 -14.511  0.00  0.00    +0.021 C 
ATOM     17  C   UNL     1      37.198 -26.309 -14.584  0.00  0.00    +0.021 C 
BRANCH  15  18
ATOM     18  S   UNL     1      39.916 -26.494 -14.465  0.00  0.00    +0.057 S 
ATOM     19  O   UNL     1      40.930 -25.626 -13.886  0.00  0.00    -0.153 OA
ATOM     20  O   UNL     1      39.665 -27.804 -13.881  0.00  0.00    -0.153 OA
BRANCH  18  21
ATOM     21  N   UNL     1      40.242 -26.690 -16.131  0.00  0.00    -0.203 NA
ATOM     22  H   UNL     1      39.442 -27.132 -16.584  0.00  0.00    +0.144 HD
ATOM     23  H   UNL     1      41.066 -27.278 -16.249  0.00  0.00    +0.144 HD
ENDBRANCH  18  21
ENDBRANCH  15  18
ENDBRANCH  10  12
ENDBRANCH   7  10
BRANCH   5  24
ATOM     24  O   UNL     1      34.247 -22.055 -19.130  0.00  0.00    -0.451 OA
BRANCH  24  25
ATOM     25  C   UNL     1      35.436 -21.303 -18.976  0.00  0.00    +0.208 C 
BRANCH  25  26
ATOM     26  C   UNL     1      35.701 -20.545 -20.275  0.00  0.00    +0.044 C 
ATOM     27  C   UNL     1      34.413 -19.890 -20.792  0.00  0.00    +0.004 C 
ATOM     28  C   UNL     1      36.805 -19.498 -20.076  0.00  0.00    +0.004 C 
ATOM     29  C   UNL     1      34.663 -19.082 -22.064  0.00  0.00    +0.000 C 
ATOM     30  C   UNL     1      37.051 -18.689 -21.349  0.00  0.00    +0.000 C 
ATOM     31  C   UNL     1      35.767 -18.048 -21.865  0.00  0.00    +0.000 C 
ENDBRANCH  25  26
ENDBRANCH  24  25
ENDBRANCH   5  24
TORSDOF 7
ENDMDL
MODEL 6
REMARK VINA RESULT:     -10.2      3.819      7.541
REMARK  Name = 23586145
REMARK  7 active torsions:
REMARK  status: ('A' for Active; 'I' for Inactive)
REMARK    1  A    between atoms: C_5  and  O_24
REMARK    2  A    between atoms: C_7  and  N_10
REMARK    3  A    between atoms: N_10  and  C_12
REMARK    4  A    between atoms: C_15  and  S_18
REMARK    5  A    between atoms: S_18  and  N_21
REMARK    6  A    between atoms: O_24  and  C_25
REMARK    7  A    between atoms: C_25  and  C_26
REMARK                            x       y       z     vdW  Elec       q    Type
REMARK                         _______ _______ _______ _____ _____    ______ ____
ROOT
ATOM      1  N   UNL     1      32.733 -21.949 -18.719  0.00  0.00    -0.299 NA
ATOM      2  N   UNL     1      35.072 -21.643 -18.252  0.00  0.00    -0.106 N 
ATOM      3  N   UNL     1      36.141 -21.021 -18.814  0.00  0.00    -0.139 NA
ATOM      4  N   UNL     1      34.288 -20.695 -20.098  0.00  0.00    -0.145 NA
ATOM      5  C   UNL     1      32.705 -22.637 -17.623  0.00  0.00    +0.291 C 
ATOM      6  C   UNL     1      33.829 -22.921 -16.705  0.00  0.00    +0.105 C 
ATOM      7  C   UNL     1      35.012 -22.394 -17.068  0.00  0.00    +0.142 C 
ATOM      8  C   UNL     1      33.947 -21.429 -19.058  0.00  0.00    +0.178 C 
ATOM      9  C   UNL     1      35.614 -20.476 -19.906  0.00  0.00    +0.230 C 
ENDROOT
BRANCH   7  10
ATOM     10  N   UNL     1      36.167 -22.542 -16.355  0.00  0.00    -0.299 N 
ATOM     11  H   UNL     1      36.973 -22.146 -16.757  0.00  0.00    +0.153 HD
BRANCH  10  12
ATOM     12  C   UNL     1      36.353 -23.187 -15.127  0.00  0.00    +0.049 C 
ATOM     13  C   UNL     1      35.359 -23.135 -14.141  0.00  0.00    +0.016 C 
ATOM     14  C   UNL     1      37.535 -23.892 -14.869  0.00  0.00    +0.016 C 
ATOM     15  C   UNL     1      36.726 -24.478 -12.669  0.00  0.00    +0.122 C 
ATOM     16  C   UNL     1      35.545 -23.778 -12.917  0.00  0.00    +0.021 C 
ATOM     17  C   UNL     1      37.721 -24.535 -13.645  0.00  0.00    +0.021 C 
BRANCH  15  18
ATOM     18  S   UNL     1      36.958 -25.283 -11.137  0.00  0.00    +0.057 S 
ATOM     19  O   UNL     1      37.160 -26.702 -11.389  0.00  0.00    -0.153 OA
ATOM     20  O   UNL     1      37.945 -24.537 -10.368  0.00  0.00    -0.153 OA
BRANCH  18  21
ATOM     21  N   UNL     1      35.423 -25.063 -10.419  0.00  0.00    -0.203 NA
ATOM     22  H   UNL     1      34.786 -24.650 -11.100  0.00  0.00    +0.144 HD
ATOM     23  H   UNL     1      35.510 -24.442  -9.615  0.00  0.00    +0.144 HD
ENDBRANCH  18  21
ENDBRANCH  15  18
ENDBRANCH  10  12
ENDBRANCH   7  10
BRANCH   5  24
ATOM     24  O   UNL     1      31.566 -23.184 -17.210  0.00  0.00    -0.451 OA
BRANCH  24  25
ATOM     25  C   UNL     1      30.735 -22.338 -16.438  0.00  0.00    +0.208 C 
BRANCH  25  26
ATOM     26  C   UNL     1      30.454 -23.023 -15.102  0.00  0.00    +0.044 C 
ATOM     27  C   UNL     1      30.307 -24.539 -15.292  0.00  0.00    +0.004 C 
ATOM     28  C   UNL     1      31.559 -22.705 -14.087  0.00  0.00    +0.004 C 
ATOM     29  C   UNL     1      30.077 -25.254 -13.961  0.00  0.00    +0.000 C 
ATOM     30  C   UNL     1      31.328 -23.423 -12.758  0.00  0.00    +0.000 C 
ATOM     31  C   UNL     1      31.172 -24.927 -12.952  0.00  0.00    +0.000 C 
ENDBRANCH  25  26
ENDBRANCH  24  25
ENDBRANCH   5  24
TORSDOF 7
ENDMDL
MODEL 7
REMARK VINA RESULT:     -10.1      2.553      5.175
REMARK  Name = 23586145
REMARK  7 active torsions:
REMARK  status: ('A' for Active; 'I' for Inactive)
REMARK    1  A    between atoms: C_5  and  O_24
REMARK    2  A    between atoms: C_7  and  N_10
REMARK    3  A    between atoms: N_10  and  C_12
REMARK    4  A    between atoms: C_15  and  S_18
REMARK    5  A    between atoms: S_18  and  N_21
REMARK    6  A    between atoms: O_24  and  C_25
REMARK    7  A    between atoms: C_25  and  C_26
REMARK                            x       y       z     vdW  Elec       q    Type
REMARK                         _______ _______ _______ _____ _____    ______ ____
ROOT
ATOM      1  N   UNL     1      34.688 -23.024 -14.068  0.00  0.00    -0.299 NA
ATOM      2  N   UNL     1      35.635 -22.683 -16.252  0.00  0.00    -0.106 N 
ATOM      3  N   UNL     1      36.847 -22.389 -16.793  0.00  0.00    -0.139 NA
ATOM      4  N   UNL     1      37.013 -22.495 -14.524  0.00  0.00    -0.145 NA
ATOM      5  C   UNL     1      33.572 -23.224 -14.692  0.00  0.00    +0.291 C 
ATOM      6  C   UNL     1      33.331 -23.184 -16.150  0.00  0.00    +0.105 C 
ATOM      7  C   UNL     1      34.411 -22.905 -16.902  0.00  0.00    +0.142 C 
ATOM      8  C   UNL     1      35.763 -22.743 -14.859  0.00  0.00    +0.178 C 
ATOM      9  C   UNL     1      37.623 -22.290 -15.719  0.00  0.00    +0.230 C 
ENDROOT
BRANCH   7  10
ATOM     10  N   UNL     1      34.395 -22.824 -18.264  0.00  0.00    -0.299 N 
ATOM     11  H   UNL     1      34.191 -23.660 -18.741  0.00  0.00    +0.153 HD
BRANCH  10  12
ATOM     12  C   UNL     1      34.633 -21.705 -19.071  0.00  0.00    +0.049 C 
ATOM     13  C   UNL     1      35.944 -21.324 -19.385  0.00  0.00    +0.016 C 
ATOM     14  C   UNL     1      33.563 -20.953 -19.573  0.00  0.00    +0.016 C 
ATOM     15  C   UNL     1      35.109 -19.465 -20.685  0.00  0.00    +0.122 C 
ATOM     16  C   UNL     1      36.180 -20.208 -20.189  0.00  0.00    +0.021 C 
ATOM     17  C   UNL     1      33.800 -19.838 -20.377  0.00  0.00    +0.021 C 
BRANCH  15  18
ATOM     18  S   UNL     1      35.406 -18.069 -21.691  0.00  0.00    +0.057 S 
ATOM     19  O   UNL     1      34.607 -18.198 -22.902  0.00  0.00    -0.153 OA
ATOM     20  O   UNL     1      35.286 -16.873 -20.869  0.00  0.00    -0.153 OA
BRANCH  18  21
ATOM     21  N   UNL     1      37.052 -18.299 -22.088  0.00  0.00    -0.203 NA
ATOM     22  H   UNL     1      37.494 -17.392 -22.237  0.00  0.00    +0.144 HD
ATOM     23  H   UNL     1      37.122 -18.856 -22.939  0.00  0.00    +0.144 HD
ENDBRANCH  18  21
ENDBRANCH  15  18
ENDBRANCH  10  12
ENDBRANCH   7  10
BRANCH   5  24
ATOM     24  O   UNL     1      32.468 -23.504 -14.006  0.00  0.00    -0.451 OA
BRANCH  24  25
ATOM     25  C   UNL     1      31.539 -22.442 -13.897  0.00  0.00    +0.208 C 
BRANCH  25  26
ATOM     26  C   UNL     1      30.157 -22.966 -14.282  0.00  0.00    +0.044 C 
ATOM     27  C   UNL     1      29.752 -22.453 -15.671  0.00  0.00    +0.004 C 
ATOM     28  C   UNL     1      30.126 -24.499 -14.236  0.00  0.00    +0.004 C 
ATOM     29  C   UNL     1      28.394 -23.005 -16.102  0.00  0.00    +0.000 C 
ATOM     30  C   UNL     1      28.767 -25.048 -14.669  0.00  0.00    +0.000 C 
ATOM     31  C   UNL     1      28.364 -24.529 -16.045  0.00  0.00    +0.000 C 
ENDBRANCH  25  26
ENDBRANCH  24  25
ENDBRANCH   5  24
TORSDOF 7
ENDMDL
MODEL 8
REMARK VINA RESULT:      -9.9      5.507     11.155
REMARK  Name = 23586145
REMARK  7 active torsions:
REMARK  status: ('A' for Active; 'I' for Inactive)
REMARK    1  A    between atoms: C_5  and  O_24
REMARK    2  A    between atoms: C_7  and  N_10
REMARK    3  A    between atoms: N_10  and  C_12
REMARK    4  A    between atoms: C_15  and  S_18
REMARK    5  A    between atoms: S_18  and  N_21
REMARK    6  A    between atoms: O_24  and  C_25
REMARK    7  A    between atoms: C_25  and  C_26
REMARK                            x       y       z     vdW  Elec       q    Type
REMARK                         _______ _______ _______ _____ _____    ______ ____
ROOT
ATOM      1  N   UNL     1      33.745 -14.624 -22.907  0.00  0.00    -0.299 NA
ATOM      2  N   UNL     1      34.823 -16.771 -23.022  0.00  0.00    -0.106 N 
ATOM      3  N   UNL     1      35.024 -17.752 -23.940  0.00  0.00    -0.139 NA
ATOM      4  N   UNL     1      33.826 -16.052 -24.869  0.00  0.00    -0.145 NA
ATOM      5  C   UNL     1      34.147 -14.598 -21.678  0.00  0.00    +0.291 C 
ATOM      6  C   UNL     1      34.927 -15.629 -20.959  0.00  0.00    +0.105 C 
ATOM      7  C   UNL     1      35.246 -16.715 -21.685  0.00  0.00    +0.142 C 
ATOM      8  C   UNL     1      34.086 -15.739 -23.615  0.00  0.00    +0.178 C 
ATOM      9  C   UNL     1      34.409 -17.269 -25.015  0.00  0.00    +0.230 C 
ENDROOT
BRANCH   7  10
ATOM     10  N   UNL     1      35.960 -17.774 -21.204  0.00  0.00    -0.299 N 
ATOM     11  H   UNL     1      36.937 -17.718 -21.313  0.00  0.00    +0.153 HD
BRANCH  10  12
ATOM     12  C   UNL     1      35.483 -18.932 -20.578  0.00  0.00    +0.049 C 
ATOM     13  C   UNL     1      34.115 -19.230 -20.587  0.00  0.00    +0.016 C 
ATOM     14  C   UNL     1      36.370 -19.805 -19.934  0.00  0.00    +0.016 C 
ATOM     15  C   UNL     1      34.530 -21.247 -19.323  0.00  0.00    +0.122 C 
ATOM     16  C   UNL     1      33.641 -20.384 -19.962  0.00  0.00    +0.021 C 
ATOM     17  C   UNL     1      35.895 -20.958 -19.309  0.00  0.00    +0.021 C 
BRANCH  15  18
ATOM     18  S   UNL     1      33.936 -22.691 -18.541  0.00  0.00    +0.057 S 
ATOM     19  O   UNL     1      33.889 -23.761 -19.527  0.00  0.00    -0.153 OA
ATOM     20  O   UNL     1      34.674 -22.882 -17.300  0.00  0.00    -0.153 OA
BRANCH  18  21
ATOM     21  N   UNL     1      32.338 -22.220 -18.161  0.00  0.00    -0.203 NA
ATOM     22  H   UNL     1      32.125 -21.337 -18.626  0.00  0.00    +0.144 HD
ATOM     23  H   UNL     1      32.249 -22.103 -17.152  0.00  0.00    +0.144 HD
ENDBRANCH  18  21
ENDBRANCH  15  18
ENDBRANCH  10  12
ENDBRANCH   7  10
BRANCH   5  24
ATOM     24  O   UNL     1      33.863 -13.553 -20.907  0.00  0.00    -0.451 OA
BRANCH  24  25
ATOM     25  C   UNL     1      32.540 -13.513 -20.407  0.00  0.00    +0.208 C 
BRANCH  25  26
ATOM     26  C   UNL     1      31.944 -12.142 -20.722  0.00  0.00    +0.044 C 
ATOM     27  C   UNL     1      32.055 -11.211 -19.506  0.00  0.00    +0.004 C 
ATOM     28  C   UNL     1      32.627 -11.523 -21.948  0.00  0.00    +0.004 C 
ATOM     29  C   UNL     1      31.513  -9.816 -19.813  0.00  0.00    +0.000 C 
ATOM     30  C   UNL     1      32.084 -10.127 -22.251  0.00  0.00    +0.000 C 
ATOM     31  C   UNL     1      32.188  -9.208 -21.038  0.00  0.00    +0.000 C 
ENDBRANCH  25  26
ENDBRANCH  24  25
ENDBRANCH   5  24
TORSDOF 7
ENDMDL
MODEL 9
REMARK VINA RESULT:      -9.8      9.648     15.014
REMARK  Name = 23586145
REMARK  7 active torsions:
REMARK  status: ('A' for Active; 'I' for Inactive)
REMARK    1  A    between atoms: C_5  and  O_24
REMARK    2  A    between atoms: C_7  and  N_10
REMARK    3  A    between atoms: N_10  and  C_12
REMARK    4  A    between atoms: C_15  and  S_18
REMARK    5  A    between atoms: S_18  and  N_21
REMARK    6  A    between atoms: O_24  and  C_25
REMARK    7  A    between atoms: C_25  and  C_26
REMARK                            x       y       z     vdW  Elec       q    Type
REMARK                         _______ _______ _______ _____ _____    ______ ____
ROOT
ATOM      1  N   UNL     1      33.305  -9.168 -22.404  0.00  0.00    -0.299 NA
ATOM      2  N   UNL     1      32.593 -11.459 -22.578  0.00  0.00    -0.106 N 
ATOM      3  N   UNL     1      31.712 -12.291 -21.965  0.00  0.00    -0.139 NA
ATOM      4  N   UNL     1      31.621 -10.225 -21.011  0.00  0.00    -0.145 NA
ATOM      5  C   UNL     1      34.103  -9.444 -23.385  0.00  0.00    +0.291 C 
ATOM      6  C   UNL     1      34.258 -10.736 -24.088  0.00  0.00    +0.105 C 
ATOM      7  C   UNL     1      33.469 -11.730 -23.641  0.00  0.00    +0.142 C 
ATOM      8  C   UNL     1      32.519 -10.197 -21.975  0.00  0.00    +0.178 C 
ATOM      9  C   UNL     1      31.166 -11.503 -21.045  0.00  0.00    +0.230 C 
ENDROOT
BRANCH   7  10
ATOM     10  N   UNL     1      33.462 -12.993 -24.158  0.00  0.00    -0.299 N 
ATOM     11  H   UNL     1      33.041 -13.093 -25.042  0.00  0.00    +0.153 HD
BRANCH  10  12
ATOM     12  C   UNL     1      33.976 -14.166 -23.592  0.00  0.00    +0.049 C 
ATOM     13  C   UNL     1      34.123 -15.322 -24.368  0.00  0.00    +0.016 C 
ATOM     14  C   UNL     1      34.350 -14.196 -22.242  0.00  0.00    +0.016 C 
ATOM     15  C   UNL     1      35.004 -16.512 -22.459  0.00  0.00    +0.122 C 
ATOM     16  C   UNL     1      34.635 -16.490 -23.804  0.00  0.00    +0.021 C 
ATOM     17  C   UNL     1      34.862 -15.365 -21.678  0.00  0.00    +0.021 C 
BRANCH  15  18
ATOM     18  S   UNL     1      35.645 -17.975 -21.753  0.00  0.00    +0.057 S 
ATOM     19  O   UNL     1      36.909 -18.284 -22.405  0.00  0.00    -0.153 OA
ATOM     20  O   UNL     1      35.590 -17.851 -20.303  0.00  0.00    -0.153 OA
BRANCH  18  21
ATOM     21  N   UNL     1      34.474 -19.115 -22.250  0.00  0.00    -0.203 NA
ATOM     22  H   UNL     1      33.894 -18.708 -22.983  0.00  0.00    +0.144 HD
ATOM     23  H   UNL     1      33.888 -19.369 -21.455  0.00  0.00    +0.144 HD
ENDBRANCH  18  21
ENDBRANCH  15  18
ENDBRANCH  10  12
ENDBRANCH   7  10
BRANCH   5  24
ATOM     24  O   UNL     1      34.909  -8.506 -23.872  0.00  0.00    -0.451 OA
BRANCH  24  25
ATOM     25  C   UNL     1      34.868  -7.264 -23.194  0.00  0.00    +0.208 C 
BRANCH  25  26
ATOM     26  C   UNL     1      33.955  -6.317 -23.972  0.00  0.00    +0.044 C 
ATOM     27  C   UNL     1      33.050  -5.530 -23.015  0.00  0.00    +0.004 C 
ATOM     28  C   UNL     1      34.781  -5.367 -24.849  0.00  0.00    +0.004 C 
ATOM     29  C   UNL     1      32.163  -4.538 -23.766  0.00  0.00    +0.000 C 
ATOM     30  C   UNL     1      33.892  -4.374 -25.597  0.00  0.00    +0.000 C 
ATOM     31  C   UNL     1      32.988  -3.601 -24.643  0.00  0.00    +0.000 C 
ENDBRANCH  25  26
ENDBRANCH  24  25
ENDBRANCH   5  24
TORSDOF 7
ENDMDL
