MODEL 1
REMARK VINA RESULT:     -12.2      0.000      0.000
REMARK  Name = 59568713
REMARK  8 active torsions:
REMARK  status: ('A' for Active; 'I' for Inactive)
REMARK    1  A    between atoms: N_1  and  C_9
REMARK    2  A    between atoms: N_2  and  C_24
REMARK    3  A    between atoms: C_9  and  C_10
REMARK    4  A    between atoms: C_10  and  C_13
REMARK    5  A    between atoms: C_10  and  O_22
REMARK    6  A    between atoms: C_24  and  C_25
REMARK    7  A    between atoms: C_25  and  C_28
REMARK    8  A    between atoms: C_25  and  O_37
REMARK                            x       y       z     vdW  Elec       q    Type
REMARK                         _______ _______ _______ _____ _____    ______ ____
ROOT
ATOM      1  N   UNL     1      33.857 -13.198 -22.555  0.00  0.00    +0.386 N 
ATOM      2  N   UNL     1      34.622 -15.901 -21.873  0.00  0.00    +0.386 N 
ATOM      3  C   UNL     1      34.997 -15.304 -23.161  0.00  0.00    -0.101 C 
ATOM      4  C   UNL     1      34.498 -14.862 -20.844  0.00  0.00    -0.101 C 
ATOM      5  C   UNL     1      33.982 -14.237 -23.584  0.00  0.00    -0.101 C 
ATOM      6  C   UNL     1      33.484 -13.794 -21.267  0.00  0.00    -0.101 C 
ATOM      7  H   UNL     1      34.763 -12.742 -22.448  0.00  0.00    -0.080 HD
ATOM      8  H   UNL     1      33.715 -16.356 -21.982  0.00  0.00    -0.080 HD
ENDROOT
BRANCH   1   9
ATOM      9  C   UNL     1      32.886 -12.183 -22.959  0.00  0.00    -0.043 C 
BRANCH   9  10
ATOM     10  C   UNL     1      32.234 -11.533 -21.731  0.00  0.00    +0.112 C 
BRANCH  10  13
ATOM     11  O   UNL     1      32.296  -5.619 -20.450  0.00  0.00    -0.440 OA
ATOM     12  O   UNL     1      32.802  -5.018 -22.627  0.00  0.00    -0.245 OA
ATOM     13  C   UNL     1      32.333 -10.025 -21.784  0.00  0.00    -0.002 C 
ATOM     14  C   UNL     1      32.128  -9.256 -20.633  0.00  0.00    -0.024 C 
ATOM     15  C   UNL     1      32.230  -7.881 -20.738  0.00  0.00    +0.023 C 
ATOM     16  C   UNL     1      32.634  -9.412 -23.012  0.00  0.00    -0.002 C 
ATOM     17  C   UNL     1      32.525  -7.292 -21.951  0.00  0.00    +0.075 C 
ATOM     18  C   UNL     1      32.733  -8.023 -23.106  0.00  0.00    +0.006 C 
ATOM     19  C   UNL     1      32.067  -6.842 -19.706  0.00  0.00    +0.235 C 
ATOM     20  C   UNL     1      31.808  -9.894 -19.324  0.00  0.00    +0.031 C 
ATOM     21  C   UNL     1      32.569  -5.849 -21.772  0.00  0.00    +0.341 C 
ENDBRANCH  10  13
BRANCH  10  22
ATOM     22  O   UNL     1      30.854 -11.888 -21.660  0.00  0.00    -0.382 OA
ATOM     23  H   UNL     1      30.687 -12.377 -20.840  0.00  0.00    +0.211 HD
ENDBRANCH  10  22
ENDBRANCH   9  10
ENDBRANCH   1   9
BRANCH   2  24
ATOM     24  C   UNL     1      35.591 -16.918 -21.470  0.00  0.00    -0.043 C 
BRANCH  24  25
ATOM     25  C   UNL     1      35.289 -18.259 -22.150  0.00  0.00    +0.112 C 
BRANCH  25  28
ATOM     26  O   UNL     1      34.906 -22.431 -17.783  0.00  0.00    -0.440 OA
ATOM     27  O   UNL     1      32.620 -22.683 -18.040  0.00  0.00    -0.245 OA
ATOM     28  C   UNL     1      34.821 -19.294 -21.150  0.00  0.00    -0.002 C 
ATOM     29  C   UNL     1      35.730 -19.911 -20.284  0.00  0.00    -0.024 C 
ATOM     30  C   UNL     1      35.248 -20.850 -19.391  0.00  0.00    +0.023 C 
ATOM     31  C   UNL     1      33.455 -19.625 -21.112  0.00  0.00    -0.002 C 
ATOM     32  C   UNL     1      33.906 -21.165 -19.364  0.00  0.00    +0.075 C 
ATOM     33  C   UNL     1      32.982 -20.575 -20.206  0.00  0.00    +0.006 C 
ATOM     34  C   UNL     1      35.967 -21.644 -18.379  0.00  0.00    +0.235 C 
ATOM     35  C   UNL     1      37.181 -19.571 -20.316  0.00  0.00    +0.031 C 
ATOM     36  C   UNL     1      33.681 -22.174 -18.340  0.00  0.00    +0.341 C 
ENDBRANCH  25  28
BRANCH  25  37
ATOM     37  O   UNL     1      34.267 -18.096 -23.134  0.00  0.00    -0.382 OA
ATOM     38  H   UNL     1      33.791 -18.933 -23.246  0.00  0.00    +0.211 HD
ENDBRANCH  25  37
ENDBRANCH  24  25
ENDBRANCH   2  24
TORSDOF 8
ENDMDL
MODEL 2
REMARK VINA RESULT:     -12.2      0.038     11.611
REMARK  Name = 59568713
REMARK  8 active torsions:
REMARK  status: ('A' for Active; 'I' for Inactive)
REMARK    1  A    between atoms: N_1  and  C_9
REMARK    2  A    between atoms: N_2  and  C_24
REMARK    3  A    between atoms: C_9  and  C_10
REMARK    4  A    between atoms: C_10  and  C_13
REMARK    5  A    between atoms: C_10  and  O_22
REMARK    6  A    between atoms: C_24  and  C_25
REMARK    7  A    between atoms: C_25  and  C_28
REMARK    8  A    between atoms: C_25  and  O_37
REMARK                            x       y       z     vdW  Elec       q    Type
REMARK                         _______ _______ _______ _____ _____    ______ ____
ROOT
ATOM      1  N   UNL     1      34.634 -15.907 -21.917  0.00  0.00    +0.386 N 
ATOM      2  N   UNL     1      33.892 -13.192 -22.576  0.00  0.00    +0.386 N 
ATOM      3  C   UNL     1      34.015 -14.223 -23.615  0.00  0.00    -0.101 C 
ATOM      4  C   UNL     1      33.506 -13.797 -21.297  0.00  0.00    -0.101 C 
ATOM      5  C   UNL     1      35.020 -15.301 -23.197  0.00  0.00    -0.101 C 
ATOM      6  C   UNL     1      34.511 -14.877 -20.879  0.00  0.00    -0.101 C 
ATOM      7  H   UNL     1      33.727 -16.356 -22.035  0.00  0.00    -0.080 HD
ATOM      8  H   UNL     1      34.801 -12.745 -22.458  0.00  0.00    -0.080 HD
ENDROOT
BRANCH   1   9
ATOM      9  C   UNL     1      35.596 -16.933 -21.518  0.00  0.00    -0.043 C 
BRANCH   9  10
ATOM     10  C   UNL     1      35.270 -18.276 -22.185  0.00  0.00    +0.112 C 
BRANCH  10  13
ATOM     11  O   UNL     1      34.900 -22.407 -17.779  0.00  0.00    -0.440 OA
ATOM     12  O   UNL     1      32.609 -22.644 -18.012  0.00  0.00    -0.245 OA
ATOM     13  C   UNL     1      34.805 -19.299 -21.172  0.00  0.00    -0.002 C 
ATOM     14  C   UNL     1      35.718 -19.914 -20.310  0.00  0.00    -0.024 C 
ATOM     15  C   UNL     1      35.238 -20.843 -19.404  0.00  0.00    +0.023 C 
ATOM     16  C   UNL     1      33.437 -19.618 -21.117  0.00  0.00    -0.002 C 
ATOM     17  C   UNL     1      33.893 -21.147 -19.361  0.00  0.00    +0.075 C 
ATOM     18  C   UNL     1      32.965 -20.557 -20.200  0.00  0.00    +0.006 C 
ATOM     19  C   UNL     1      35.961 -21.633 -18.391  0.00  0.00    +0.235 C 
ATOM     20  C   UNL     1      37.171 -19.585 -20.358  0.00  0.00    +0.031 C 
ATOM     21  C   UNL     1      33.671 -22.145 -18.326  0.00  0.00    +0.341 C 
ENDBRANCH  10  13
BRANCH  10  22
ATOM     22  O   UNL     1      34.238 -18.107 -23.156  0.00  0.00    -0.382 OA
ATOM     23  H   UNL     1      33.401 -17.913 -22.709  0.00  0.00    +0.211 HD
ENDBRANCH  10  22
ENDBRANCH   9  10
ENDBRANCH   1   9
BRANCH   2  24
ATOM     24  C   UNL     1      32.932 -12.165 -22.975  0.00  0.00    -0.043 C 
BRANCH  24  25
ATOM     25  C   UNL     1      32.271 -11.530 -21.745  0.00  0.00    +0.112 C 
BRANCH  25  28
ATOM     26  O   UNL     1      32.293  -5.626 -20.412  0.00  0.00    -0.440 OA
ATOM     27  O   UNL     1      32.828  -5.004 -22.576  0.00  0.00    -0.245 OA
ATOM     28  C   UNL     1      32.366 -10.020 -21.783  0.00  0.00    -0.002 C 
ATOM     29  C   UNL     1      32.140  -9.262 -20.630  0.00  0.00    -0.024 C 
ATOM     30  C   UNL     1      32.239  -7.886 -20.721  0.00  0.00    +0.023 C 
ATOM     31  C   UNL     1      32.683  -9.394 -23.003  0.00  0.00    -0.002 C 
ATOM     32  C   UNL     1      32.551  -7.285 -21.923  0.00  0.00    +0.075 C 
ATOM     33  C   UNL     1      32.778  -8.005 -23.081  0.00  0.00    +0.006 C 
ATOM     34  C   UNL     1      32.056  -6.857 -19.683  0.00  0.00    +0.235 C 
ATOM     35  C   UNL     1      31.802  -9.912 -19.331  0.00  0.00    +0.031 C 
ATOM     36  C   UNL     1      32.586  -5.844 -21.733  0.00  0.00    +0.341 C 
ENDBRANCH  25  28
BRANCH  25  37
ATOM     37  O   UNL     1      30.890 -11.888 -21.686  0.00  0.00    -0.382 OA
ATOM     38  H   UNL     1      30.707 -12.577 -22.343  0.00  0.00    +0.211 HD
ENDBRANCH  25  37
ENDBRANCH  24  25
ENDBRANCH   2  24
TORSDOF 8
ENDMDL
MODEL 3
REMARK VINA RESULT:     -11.5      2.852      5.033
REMARK  Name = 59568713
REMARK  8 active torsions:
REMARK  status: ('A' for Active; 'I' for Inactive)
REMARK    1  A    between atoms: N_1  and  C_9
REMARK    2  A    between atoms: N_2  and  C_24
REMARK    3  A    between atoms: C_9  and  C_10
REMARK    4  A    between atoms: C_10  and  C_13
REMARK    5  A    between atoms: C_10  and  O_22
REMARK    6  A    between atoms: C_24  and  C_25
REMARK    7  A    between atoms: C_25  and  C_28
REMARK    8  A    between atoms: C_25  and  O_37
REMARK                            x       y       z     vdW  Elec       q    Type
REMARK                         _______ _______ _______ _____ _____    ______ ____
ROOT
ATOM      1  N   UNL     1      31.665  -9.368 -20.658  0.00  0.00    +0.386 N 
ATOM      2  N   UNL     1      32.588 -11.843 -21.833  0.00  0.00    +0.386 N 
ATOM      3  C   UNL     1      31.569 -11.834 -20.776  0.00  0.00    -0.101 C 
ATOM      4  C   UNL     1      32.523 -10.606 -22.618  0.00  0.00    -0.101 C 
ATOM      5  C   UNL     1      31.730 -10.606 -19.873  0.00  0.00    -0.101 C 
ATOM      6  C   UNL     1      32.683  -9.377 -21.715  0.00  0.00    -0.101 C 
ATOM      7  H   UNL     1      30.747  -9.314 -21.098  0.00  0.00    -0.080 HD
ATOM      8  H   UNL     1      33.507 -11.896 -21.392  0.00  0.00    -0.080 HD
ENDROOT
BRANCH   1   9
ATOM      9  C   UNL     1      31.823  -8.198 -19.796  0.00  0.00    -0.043 C 
BRANCH   9  10
ATOM     10  C   UNL     1      33.003  -7.334 -20.259  0.00  0.00    +0.112 C 
BRANCH  10  13
ATOM     11  O   UNL     1      32.417  -3.344 -24.771  0.00  0.00    -0.440 OA
ATOM     12  O   UNL     1      30.515  -2.392 -23.860  0.00  0.00    -0.245 OA
ATOM     13  C   UNL     1      32.550  -6.227 -21.185  0.00  0.00    -0.002 C 
ATOM     14  C   UNL     1      33.260  -5.942 -22.356  0.00  0.00    -0.024 C 
ATOM     15  C   UNL     1      32.802  -4.918 -23.166  0.00  0.00    +0.023 C 
ATOM     16  C   UNL     1      31.402  -5.492 -20.845  0.00  0.00    -0.002 C 
ATOM     17  C   UNL     1      31.673  -4.204 -22.819  0.00  0.00    +0.075 C 
ATOM     18  C   UNL     1      30.949  -4.461 -21.669  0.00  0.00    +0.006 C 
ATOM     19  C   UNL     1      33.344  -4.408 -24.438  0.00  0.00    +0.235 C 
ATOM     20  C   UNL     1      34.480  -6.713 -22.729  0.00  0.00    +0.031 C 
ATOM     21  C   UNL     1      31.423  -3.198 -23.840  0.00  0.00    +0.341 C 
ENDBRANCH  10  13
BRANCH  10  22
ATOM     22  O   UNL     1      33.651  -6.739 -19.135  0.00  0.00    -0.382 OA
ATOM     23  H   UNL     1      34.081  -7.429 -18.607  0.00  0.00    +0.211 HD
ENDBRANCH  10  22
ENDBRANCH   9  10
ENDBRANCH   1   9
BRANCH   2  24
ATOM     24  C   UNL     1      32.433 -13.013 -22.694  0.00  0.00    -0.043 C 
BRANCH  24  25
ATOM     25  C   UNL     1      33.732 -13.306 -23.456  0.00  0.00    +0.112 C 
BRANCH  25  28
ATOM     26  O   UNL     1      35.657 -18.677 -21.437  0.00  0.00    -0.440 OA
ATOM     27  O   UNL     1      35.375 -19.700 -23.494  0.00  0.00    -0.245 OA
ATOM     28  C   UNL     1      34.143 -14.756 -23.313  0.00  0.00    -0.002 C 
ATOM     29  C   UNL     1      34.598 -15.250 -22.086  0.00  0.00    -0.024 C 
ATOM     30  C   UNL     1      34.962 -16.582 -22.012  0.00  0.00    +0.023 C 
ATOM     31  C   UNL     1      34.060 -15.594 -24.439  0.00  0.00    -0.002 C 
ATOM     32  C   UNL     1      34.876 -17.394 -23.124  0.00  0.00    +0.075 C 
ATOM     33  C   UNL     1      34.431 -16.936 -24.350  0.00  0.00    +0.006 C 
ATOM     34  C   UNL     1      35.467 -17.358 -20.866  0.00  0.00    +0.235 C 
ATOM     35  C   UNL     1      34.691 -14.372 -20.885  0.00  0.00    +0.031 C 
ATOM     36  C   UNL     1      35.318 -18.732 -22.764  0.00  0.00    +0.341 C 
ENDBRANCH  25  28
BRANCH  25  37
ATOM     37  O   UNL     1      33.564 -13.026 -24.845  0.00  0.00    -0.382 OA
ATOM     38  H   UNL     1      32.648 -12.754 -25.011  0.00  0.00    +0.211 HD
ENDBRANCH  25  37
ENDBRANCH  24  25
ENDBRANCH   2  24
TORSDOF 8
ENDMDL
MODEL 4
REMARK VINA RESULT:     -11.4      2.840     12.011
REMARK  Name = 59568713
REMARK  8 active torsions:
REMARK  status: ('A' for Active; 'I' for Inactive)
REMARK    1  A    between atoms: N_1  and  C_9
REMARK    2  A    between atoms: N_2  and  C_24
REMARK    3  A    between atoms: C_9  and  C_10
REMARK    4  A    between atoms: C_10  and  C_13
REMARK    5  A    between atoms: C_10  and  O_22
REMARK    6  A    between atoms: C_24  and  C_25
REMARK    7  A    between atoms: C_25  and  C_28
REMARK    8  A    between atoms: C_25  and  O_37
REMARK                            x       y       z     vdW  Elec       q    Type
REMARK                         _______ _______ _______ _____ _____    ______ ____
ROOT
ATOM      1  N   UNL     1      32.588 -11.849 -21.777  0.00  0.00    +0.386 N 
ATOM      2  N   UNL     1      31.660  -9.365 -20.624  0.00  0.00    +0.386 N 
ATOM      3  C   UNL     1      31.727 -10.597 -19.829  0.00  0.00    -0.101 C 
ATOM      4  C   UNL     1      32.680  -9.381 -21.680  0.00  0.00    -0.101 C 
ATOM      5  C   UNL     1      31.568 -11.832 -20.721  0.00  0.00    -0.101 C 
ATOM      6  C   UNL     1      32.522 -10.617 -22.572  0.00  0.00    -0.101 C 
ATOM      7  H   UNL     1      33.506 -11.898 -21.336  0.00  0.00    -0.080 HD
ATOM      8  H   UNL     1      30.742  -9.317 -21.067  0.00  0.00    -0.080 HD
ENDROOT
BRANCH   1   9
ATOM      9  C   UNL     1      32.433 -13.026 -22.629  0.00  0.00    -0.043 C 
BRANCH   9  10
ATOM     10  C   UNL     1      33.726 -13.313 -23.404  0.00  0.00    +0.112 C 
BRANCH  10  13
ATOM     11  O   UNL     1      35.648 -18.707 -21.446  0.00  0.00    -0.440 OA
ATOM     12  O   UNL     1      35.368 -19.706 -23.516  0.00  0.00    -0.245 OA
ATOM     13  C   UNL     1      34.137 -14.764 -23.277  0.00  0.00    -0.002 C 
ATOM     14  C   UNL     1      34.589 -15.272 -22.056  0.00  0.00    -0.024 C 
ATOM     15  C   UNL     1      34.953 -16.605 -21.997  0.00  0.00    +0.023 C 
ATOM     16  C   UNL     1      34.055 -15.588 -24.412  0.00  0.00    -0.002 C 
ATOM     17  C   UNL     1      34.869 -17.404 -23.119  0.00  0.00    +0.075 C 
ATOM     18  C   UNL     1      34.426 -16.931 -24.341  0.00  0.00    +0.006 C 
ATOM     19  C   UNL     1      35.457 -17.396 -20.859  0.00  0.00    +0.235 C 
ATOM     20  C   UNL     1      34.681 -14.409 -20.844  0.00  0.00    +0.031 C 
ATOM     21  C   UNL     1      35.311 -18.746 -22.774  0.00  0.00    +0.341 C 
ENDBRANCH  10  13
BRANCH  10  22
ATOM     22  O   UNL     1      33.548 -13.018 -24.789  0.00  0.00    -0.382 OA
ATOM     23  H   UNL     1      32.772 -13.492 -25.124  0.00  0.00    +0.211 HD
ENDBRANCH  10  22
ENDBRANCH   9  10
ENDBRANCH   1   9
BRANCH   2  24
ATOM     24  C   UNL     1      31.813  -8.188 -19.773  0.00  0.00    -0.043 C 
BRANCH  24  25
ATOM     25  C   UNL     1      32.995  -7.327 -20.238  0.00  0.00    +0.112 C 
BRANCH  25  28
ATOM     26  O   UNL     1      32.416  -3.350 -24.763  0.00  0.00    -0.440 OA
ATOM     27  O   UNL     1      30.518  -2.389 -23.852  0.00  0.00    -0.245 OA
ATOM     28  C   UNL     1      32.543  -6.222 -21.168  0.00  0.00    -0.002 C 
ATOM     29  C   UNL     1      33.253  -5.942 -22.340  0.00  0.00    -0.024 C 
ATOM     30  C   UNL     1      32.797  -4.920 -23.153  0.00  0.00    +0.023 C 
ATOM     31  C   UNL     1      31.398  -5.480 -20.827  0.00  0.00    -0.002 C 
ATOM     32  C   UNL     1      31.672  -4.201 -22.807  0.00  0.00    +0.075 C 
ATOM     33  C   UNL     1      30.949  -4.451 -21.655  0.00  0.00    +0.006 C 
ATOM     34  C   UNL     1      33.338  -4.416 -24.427  0.00  0.00    +0.235 C 
ATOM     35  C   UNL     1      34.469  -6.719 -22.712  0.00  0.00    +0.031 C 
ATOM     36  C   UNL     1      31.423  -3.197 -23.830  0.00  0.00    +0.341 C 
ENDBRANCH  25  28
BRANCH  25  37
ATOM     37  O   UNL     1      33.643  -6.729 -19.115  0.00  0.00    -0.382 OA
ATOM     38  H   UNL     1      34.490  -7.174 -18.957  0.00  0.00    +0.211 HD
ENDBRANCH  25  37
ENDBRANCH  24  25
ENDBRANCH   2  24
TORSDOF 8
ENDMDL
MODEL 5
REMARK VINA RESULT:     -11.1      1.917      2.958
REMARK  Name = 59568713
REMARK  8 active torsions:
REMARK  status: ('A' for Active; 'I' for Inactive)
REMARK    1  A    between atoms: N_1  and  C_9
REMARK    2  A    between atoms: N_2  and  C_24
REMARK    3  A    between atoms: C_9  and  C_10
REMARK    4  A    between atoms: C_10  and  C_13
REMARK    5  A    between atoms: C_10  and  O_22
REMARK    6  A    between atoms: C_24  and  C_25
REMARK    7  A    between atoms: C_25  and  C_28
REMARK    8  A    between atoms: C_25  and  O_37
REMARK                            x       y       z     vdW  Elec       q    Type
REMARK                         _______ _______ _______ _____ _____    ______ ____
ROOT
ATOM      1  N   UNL     1      34.469 -15.781 -22.884  0.00  0.00    +0.386 N 
ATOM      2  N   UNL     1      35.373 -18.458 -22.269  0.00  0.00    +0.386 N 
ATOM      3  C   UNL     1      35.090 -17.485 -21.206  0.00  0.00    -0.101 C 
ATOM      4  C   UNL     1      34.539 -18.187 -23.446  0.00  0.00    -0.101 C 
ATOM      5  C   UNL     1      35.303 -16.053 -21.707  0.00  0.00    -0.101 C 
ATOM      6  C   UNL     1      34.751 -16.754 -23.947  0.00  0.00    -0.101 C 
ATOM      7  H   UNL     1      33.491 -15.875 -22.614  0.00  0.00    -0.080 HD
ATOM      8  H   UNL     1      36.352 -18.362 -22.541  0.00  0.00    -0.080 HD
ENDROOT
BRANCH   1   9
ATOM      9  C   UNL     1      34.677 -14.416 -23.363  0.00  0.00    -0.043 C 
BRANCH   9  10
ATOM     10  C   UNL     1      33.340 -13.757 -23.728  0.00  0.00    +0.112 C 
BRANCH  10  13
ATOM     11  O   UNL     1      32.705  -8.022 -21.904  0.00  0.00    -0.440 OA
ATOM     12  O   UNL     1      34.007  -7.190 -23.628  0.00  0.00    -0.245 OA
ATOM     13  C   UNL     1      33.404 -12.253 -23.576  0.00  0.00    -0.002 C 
ATOM     14  C   UNL     1      32.738 -11.614 -22.525  0.00  0.00    -0.024 C 
ATOM     15  C   UNL     1      32.829 -10.237 -22.434  0.00  0.00    +0.023 C 
ATOM     16  C   UNL     1      34.144 -11.513 -24.513  0.00  0.00    -0.002 C 
ATOM     17  C   UNL     1      33.559  -9.522 -23.362  0.00  0.00    +0.075 C 
ATOM     18  C   UNL     1      34.228 -10.123 -24.412  0.00  0.00    +0.006 C 
ATOM     19  C   UNL     1      32.240  -9.316 -21.446  0.00  0.00    +0.235 C 
ATOM     20  C   UNL     1      31.949 -12.387 -21.524  0.00  0.00    +0.031 C 
ATOM     21  C   UNL     1      33.484  -8.108 -23.028  0.00  0.00    +0.341 C 
ENDBRANCH  10  13
BRANCH  10  22
ATOM     22  O   UNL     1      32.995 -14.055 -25.080  0.00  0.00    -0.382 OA
ATOM     23  H   UNL     1      33.035 -15.013 -25.220  0.00  0.00    +0.211 HD
ENDBRANCH  10  22
ENDBRANCH   9  10
ENDBRANCH   1   9
BRANCH   2  24
ATOM     24  C   UNL     1      35.168 -19.823 -21.792  0.00  0.00    -0.043 C 
BRANCH  24  25
ATOM     25  C   UNL     1      35.731 -19.996 -20.375  0.00  0.00    +0.112 C 
BRANCH  25  28
ATOM     26  O   UNL     1      33.167 -23.410 -16.086  0.00  0.00    -0.440 OA
ATOM     27  O   UNL     1      31.027 -23.045 -16.888  0.00  0.00    -0.245 OA
ATOM     28  C   UNL     1      34.767 -20.749 -19.484  0.00  0.00    -0.002 C 
ATOM     29  C   UNL     1      35.236 -21.497 -18.399  0.00  0.00    -0.024 C 
ATOM     30  C   UNL     1      34.311 -22.166 -17.618  0.00  0.00    +0.023 C 
ATOM     31  C   UNL     1      33.392 -20.682 -19.770  0.00  0.00    -0.002 C 
ATOM     32  C   UNL     1      32.965 -22.092 -17.910  0.00  0.00    +0.075 C 
ATOM     33  C   UNL     1      32.470 -21.362 -18.974  0.00  0.00    +0.006 C 
ATOM     34  C   UNL     1      34.518 -23.015 -16.432  0.00  0.00    +0.235 C 
ATOM     35  C   UNL     1      36.691 -21.577 -18.086  0.00  0.00    +0.031 C 
ATOM     36  C   UNL     1      32.230 -22.884 -16.936  0.00  0.00    +0.341 C 
ENDBRANCH  25  28
BRANCH  25  37
ATOM     37  O   UNL     1      36.960 -20.722 -20.416  0.00  0.00    -0.382 OA
ATOM     38  H   UNL     1      36.773 -21.673 -20.427  0.00  0.00    +0.211 HD
ENDBRANCH  25  37
ENDBRANCH  24  25
ENDBRANCH   2  24
TORSDOF 8
ENDMDL
MODEL 6
REMARK VINA RESULT:     -10.9      7.438     15.256
REMARK  Name = 59568713
REMARK  8 active torsions:
REMARK  status: ('A' for Active; 'I' for Inactive)
REMARK    1  A    between atoms: N_1  and  C_9
REMARK    2  A    between atoms: N_2  and  C_24
REMARK    3  A    between atoms: C_9  and  C_10
REMARK    4  A    between atoms: C_10  and  C_13
REMARK    5  A    between atoms: C_10  and  O_22
REMARK    6  A    between atoms: C_24  and  C_25
REMARK    7  A    between atoms: C_25  and  C_28
REMARK    8  A    between atoms: C_25  and  O_37
REMARK                            x       y       z     vdW  Elec       q    Type
REMARK                         _______ _______ _______ _____ _____    ______ ____
ROOT
ATOM      1  N   UNL     1      36.440 -24.072 -14.191  0.00  0.00    +0.386 N 
ATOM      2  N   UNL     1      34.672 -23.184 -16.299  0.00  0.00    +0.386 N 
ATOM      3  C   UNL     1      34.188 -24.037 -15.207  0.00  0.00    -0.101 C 
ATOM      4  C   UNL     1      35.791 -22.351 -15.842  0.00  0.00    -0.101 C 
ATOM      5  C   UNL     1      35.321 -24.905 -14.649  0.00  0.00    -0.101 C 
ATOM      6  C   UNL     1      36.924 -23.218 -15.283  0.00  0.00    -0.101 C 
ATOM      7  H   UNL     1      36.107 -23.472 -13.438  0.00  0.00    -0.080 HD
ATOM      8  H   UNL     1      35.007 -23.785 -17.053  0.00  0.00    -0.080 HD
ENDROOT
BRANCH   1   9
ATOM      9  C   UNL     1      37.521 -24.902 -13.663  0.00  0.00    -0.043 C 
BRANCH   9  10
ATOM     10  C   UNL     1      37.239 -26.389 -13.911  0.00  0.00    +0.112 C 
BRANCH  10  13
ATOM     11  O   UNL     1      40.925 -29.855 -17.231  0.00  0.00    -0.440 OA
ATOM     12  O   UNL     1      42.831 -29.061 -16.184  0.00  0.00    -0.245 OA
ATOM     13  C   UNL     1      38.431 -27.084 -14.531  0.00  0.00    -0.002 C 
ATOM     14  C   UNL     1      38.257 -28.024 -15.552  0.00  0.00    -0.024 C 
ATOM     15  C   UNL     1      39.382 -28.630 -16.083  0.00  0.00    +0.023 C 
ATOM     16  C   UNL     1      39.716 -26.766 -14.059  0.00  0.00    -0.002 C 
ATOM     17  C   UNL     1      40.638 -28.308 -15.609  0.00  0.00    +0.075 C 
ATOM     18  C   UNL     1      40.843 -27.385 -14.601  0.00  0.00    +0.006 C 
ATOM     19  C   UNL     1      39.494 -29.639 -17.150  0.00  0.00    +0.235 C 
ATOM     20  C   UNL     1      36.900 -28.371 -16.062  0.00  0.00    +0.031 C 
ATOM     21  C   UNL     1      41.626 -29.088 -16.338  0.00  0.00    +0.341 C 
ENDBRANCH  10  13
BRANCH  10  22
ATOM     22  O   UNL     1      36.929 -27.045 -12.682  0.00  0.00    -0.382 OA
ATOM     23  H   UNL     1      36.102 -26.689 -12.325  0.00  0.00    +0.211 HD
ENDBRANCH  10  22
ENDBRANCH   9  10
ENDBRANCH   1   9
BRANCH   2  24
ATOM     24  C   UNL     1      33.592 -22.356 -16.830  0.00  0.00    -0.043 C 
BRANCH  24  25
ATOM     25  C   UNL     1      33.480 -22.514 -18.352  0.00  0.00    +0.112 C 
BRANCH  25  28
ATOM     26  O   UNL     1      35.785 -18.133 -21.834  0.00  0.00    -0.440 OA
ATOM     27  O   UNL     1      37.963 -18.599 -21.207  0.00  0.00    -0.245 OA
ATOM     28  C   UNL     1      34.388 -21.545 -19.078  0.00  0.00    -0.002 C 
ATOM     29  C   UNL     1      33.859 -20.588 -19.949  0.00  0.00    -0.024 C 
ATOM     30  C   UNL     1      34.734 -19.728 -20.587  0.00  0.00    +0.023 C 
ATOM     31  C   UNL     1      35.775 -21.629 -18.860  0.00  0.00    -0.002 C 
ATOM     32  C   UNL     1      36.092 -19.821 -20.364  0.00  0.00    +0.075 C 
ATOM     33  C   UNL     1      36.648 -20.756 -19.510  0.00  0.00    +0.006 C 
ATOM     34  C   UNL     1      34.459 -18.641 -21.542  0.00  0.00    +0.235 C 
ATOM     35  C   UNL     1      32.391 -20.490 -20.190  0.00  0.00    +0.031 C 
ATOM     36  C   UNL     1      36.768 -18.806 -21.157  0.00  0.00    +0.341 C 
ENDBRANCH  25  28
BRANCH  25  37
ATOM     37  O   UNL     1      33.842 -23.840 -18.739  0.00  0.00    -0.382 OA
ATOM     38  H   UNL     1      34.571 -24.151 -18.181  0.00  0.00    +0.211 HD
ENDBRANCH  25  37
ENDBRANCH  24  25
ENDBRANCH   2  24
TORSDOF 8
ENDMDL
MODEL 7
REMARK VINA RESULT:     -10.8      1.791     11.287
REMARK  Name = 59568713
REMARK  8 active torsions:
REMARK  status: ('A' for Active; 'I' for Inactive)
REMARK    1  A    between atoms: N_1  and  C_9
REMARK    2  A    between atoms: N_2  and  C_24
REMARK    3  A    between atoms: C_9  and  C_10
REMARK    4  A    between atoms: C_10  and  C_13
REMARK    5  A    between atoms: C_10  and  O_22
REMARK    6  A    between atoms: C_24  and  C_25
REMARK    7  A    between atoms: C_25  and  C_28
REMARK    8  A    between atoms: C_25  and  O_37
REMARK                            x       y       z     vdW  Elec       q    Type
REMARK                         _______ _______ _______ _____ _____    ______ ____
ROOT
ATOM      1  N   UNL     1      34.584 -18.294 -22.412  0.00  0.00    +0.386 N 
ATOM      2  N   UNL     1      35.290 -15.643 -23.327  0.00  0.00    +0.386 N 
ATOM      3  C   UNL     1      34.590 -16.591 -24.202  0.00  0.00    -0.101 C 
ATOM      4  C   UNL     1      34.953 -15.899 -21.922  0.00  0.00    -0.101 C 
ATOM      5  C   UNL     1      34.921 -18.037 -23.817  0.00  0.00    -0.101 C 
ATOM      6  C   UNL     1      35.283 -17.346 -21.536  0.00  0.00    -0.101 C 
ATOM      7  H   UNL     1      33.581 -18.161 -22.293  0.00  0.00    -0.080 HD
ATOM      8  H   UNL     1      36.294 -15.778 -23.445  0.00  0.00    -0.080 HD
ENDROOT
BRANCH   1   9
ATOM      9  C   UNL     1      34.904 -19.672 -22.045  0.00  0.00    -0.043 C 
BRANCH   9  10
ATOM     10  C   UNL     1      35.500 -19.737 -20.633  0.00  0.00    +0.112 C 
BRANCH  10  13
ATOM     11  O   UNL     1      33.370 -23.388 -16.303  0.00  0.00    -0.440 OA
ATOM     12  O   UNL     1      31.164 -23.049 -16.917  0.00  0.00    -0.245 OA
ATOM     13  C   UNL     1      34.629 -20.550 -19.701  0.00  0.00    -0.002 C 
ATOM     14  C   UNL     1      35.201 -21.328 -18.689  0.00  0.00    -0.024 C 
ATOM     15  C   UNL     1      34.358 -22.053 -17.866  0.00  0.00    +0.023 C 
ATOM     16  C   UNL     1      33.235 -20.509 -19.874  0.00  0.00    -0.002 C 
ATOM     17  C   UNL     1      32.991 -22.004 -18.048  0.00  0.00    +0.075 C 
ATOM     18  C   UNL     1      32.395 -21.246 -19.039  0.00  0.00    +0.006 C 
ATOM     19  C   UNL     1      34.679 -22.943 -16.736  0.00  0.00    +0.235 C 
ATOM     20  C   UNL     1      36.678 -21.381 -18.494  0.00  0.00    +0.031 C 
ATOM     21  C   UNL     1      32.355 -22.854 -17.053  0.00  0.00    +0.341 C 
ENDBRANCH  10  13
BRANCH  10  22
ATOM     22  O   UNL     1      36.795 -20.335 -20.670  0.00  0.00    -0.382 OA
ATOM     23  H   UNL     1      36.800 -21.058 -21.315  0.00  0.00    +0.211 HD
ENDBRANCH  10  22
ENDBRANCH   9  10
ENDBRANCH   1   9
BRANCH   2  24
ATOM     24  C   UNL     1      34.973 -14.265 -23.694  0.00  0.00    -0.043 C 
BRANCH  24  25
ATOM     25  C   UNL     1      33.480 -13.976 -23.489  0.00  0.00    +0.112 C 
BRANCH  25  28
ATOM     26  O   UNL     1      31.846  -8.657 -21.108  0.00  0.00    -0.440 OA
ATOM     27  O   UNL     1      32.705  -7.448 -22.885  0.00  0.00    -0.245 OA
ATOM     28  C   UNL     1      33.233 -12.508 -23.213  0.00  0.00    -0.002 C 
ATOM     29  C   UNL     1      32.583 -12.102 -22.044  0.00  0.00    -0.024 C 
ATOM     30  C   UNL     1      32.382 -10.749 -21.843  0.00  0.00    +0.023 C 
ATOM     31  C   UNL     1      33.669 -11.562 -24.158  0.00  0.00    -0.002 C 
ATOM     32  C   UNL     1      32.815  -9.831 -22.777  0.00  0.00    +0.075 C 
ATOM     33  C   UNL     1      33.460 -10.200 -23.943  0.00  0.00    +0.006 C 
ATOM     34  C   UNL     1      31.737 -10.049 -20.719  0.00  0.00    +0.235 C 
ATOM     35  C   UNL     1      32.115 -13.095 -21.035  0.00  0.00    +0.031 C 
ATOM     36  C   UNL     1      32.475  -8.495 -22.315  0.00  0.00    +0.341 C 
ENDBRANCH  25  28
BRANCH  25  37
ATOM     37  O   UNL     1      32.741 -14.341 -24.655  0.00  0.00    -0.382 OA
ATOM     38  H   UNL     1      32.327 -15.207 -24.516  0.00  0.00    +0.211 HD
ENDBRANCH  25  37
ENDBRANCH  24  25
ENDBRANCH   2  24
TORSDOF 8
ENDMDL
MODEL 8
REMARK VINA RESULT:     -10.8      2.092     11.418
REMARK  Name = 59568713
REMARK  8 active torsions:
REMARK  status: ('A' for Active; 'I' for Inactive)
REMARK    1  A    between atoms: N_1  and  C_9
REMARK    2  A    between atoms: N_2  and  C_24
REMARK    3  A    between atoms: C_9  and  C_10
REMARK    4  A    between atoms: C_10  and  C_13
REMARK    5  A    between atoms: C_10  and  O_22
REMARK    6  A    between atoms: C_24  and  C_25
REMARK    7  A    between atoms: C_25  and  C_28
REMARK    8  A    between atoms: C_25  and  O_37
REMARK                            x       y       z     vdW  Elec       q    Type
REMARK                         _______ _______ _______ _____ _____    ______ ____
ROOT
ATOM      1  N   UNL     1      34.943 -18.923 -21.689  0.00  0.00    +0.386 N 
ATOM      2  N   UNL     1      35.564 -16.345 -22.842  0.00  0.00    +0.386 N 
ATOM      3  C   UNL     1      34.806 -17.354 -23.593  0.00  0.00    -0.101 C 
ATOM      4  C   UNL     1      35.334 -16.500 -21.401  0.00  0.00    -0.101 C 
ATOM      5  C   UNL     1      35.173 -18.768 -23.131  0.00  0.00    -0.101 C 
ATOM      6  C   UNL     1      35.700 -17.915 -20.938  0.00  0.00    -0.101 C 
ATOM      7  H   UNL     1      33.951 -18.783 -21.505  0.00  0.00    -0.080 HD
ATOM      8  H   UNL     1      36.557 -16.487 -23.025  0.00  0.00    -0.080 HD
ENDROOT
BRANCH   1   9
ATOM      9  C   UNL     1      35.298 -20.271 -21.250  0.00  0.00    -0.043 C 
BRANCH   9  10
ATOM     10  C   UNL     1      34.274 -20.803 -20.239  0.00  0.00    +0.112 C 
BRANCH  10  13
ATOM     11  O   UNL     1      35.564 -23.374 -14.915  0.00  0.00    -0.440 OA
ATOM     12  O   UNL     1      37.784 -22.724 -14.989  0.00  0.00    -0.245 OA
ATOM     13  C   UNL     1      34.947 -21.310 -18.982  0.00  0.00    -0.002 C 
ATOM     14  C   UNL     1      34.224 -22.032 -18.028  0.00  0.00    -0.024 C 
ATOM     15  C   UNL     1      34.888 -22.471 -16.898  0.00  0.00    +0.023 C 
ATOM     16  C   UNL     1      36.313 -21.039 -18.794  0.00  0.00    -0.002 C 
ATOM     17  C   UNL     1      36.230 -22.197 -16.725  0.00  0.00    +0.075 C 
ATOM     18  C   UNL     1      36.973 -21.486 -17.649  0.00  0.00    +0.006 C 
ATOM     19  C   UNL     1      34.385 -23.243 -15.747  0.00  0.00    +0.235 C 
ATOM     20  C   UNL     1      32.774 -22.327 -18.215  0.00  0.00    +0.031 C 
ATOM     21  C   UNL     1      36.666 -22.771 -15.462  0.00  0.00    +0.341 C 
ENDBRANCH  10  13
BRANCH  10  22
ATOM     22  O   UNL     1      33.361 -19.769 -19.870  0.00  0.00    -0.382 OA
ATOM     23  H   UNL     1      32.456 -20.116 -19.886  0.00  0.00    +0.211 HD
ENDBRANCH  10  22
ENDBRANCH   9  10
ENDBRANCH   1   9
BRANCH   2  24
ATOM     24  C   UNL     1      35.212 -14.997 -23.281  0.00  0.00    -0.043 C 
BRANCH  24  25
ATOM     25  C   UNL     1      33.701 -14.762 -23.166  0.00  0.00    +0.112 C 
BRANCH  25  28
ATOM     26  O   UNL     1      31.851  -9.285 -21.375  0.00  0.00    -0.440 OA
ATOM     27  O   UNL     1      32.549  -8.264 -23.331  0.00  0.00    -0.245 OA
ATOM     28  C   UNL     1      33.376 -13.288 -23.060  0.00  0.00    -0.002 C 
ATOM     29  C   UNL     1      32.757 -12.774 -21.916  0.00  0.00    -0.024 C 
ATOM     30  C   UNL     1      32.482 -11.420 -21.873  0.00  0.00    +0.023 C 
ATOM     31  C   UNL     1      33.707 -12.446 -24.137  0.00  0.00    -0.002 C 
ATOM     32  C   UNL     1      32.812 -10.605 -22.936  0.00  0.00    +0.075 C 
ATOM     33  C   UNL     1      33.423 -11.081 -24.081  0.00  0.00    +0.006 C 
ATOM     34  C   UNL     1      31.847 -10.620 -20.811  0.00  0.00    +0.235 C 
ATOM     35  C   UNL     1      32.399 -13.656 -20.769  0.00  0.00    +0.031 C 
ATOM     36  C   UNL     1      32.412  -9.242 -22.625  0.00  0.00    +0.341 C 
ENDBRANCH  25  28
BRANCH  25  37
ATOM     37  O   UNL     1      33.030 -15.285 -24.312  0.00  0.00    -0.382 OA
ATOM     38  H   UNL     1      33.626 -15.883 -24.790  0.00  0.00    +0.211 HD
ENDBRANCH  25  37
ENDBRANCH  24  25
ENDBRANCH   2  24
TORSDOF 8
ENDMDL
MODEL 9
REMARK VINA RESULT:     -10.8      2.098      3.786
REMARK  Name = 59568713
REMARK  8 active torsions:
REMARK  status: ('A' for Active; 'I' for Inactive)
REMARK    1  A    between atoms: N_1  and  C_9
REMARK    2  A    between atoms: N_2  and  C_24
REMARK    3  A    between atoms: C_9  and  C_10
REMARK    4  A    between atoms: C_10  and  C_13
REMARK    5  A    between atoms: C_10  and  O_22
REMARK    6  A    between atoms: C_24  and  C_25
REMARK    7  A    between atoms: C_25  and  C_28
REMARK    8  A    between atoms: C_25  and  O_37
REMARK                            x       y       z     vdW  Elec       q    Type
REMARK                         _______ _______ _______ _____ _____    ______ ____
ROOT
ATOM      1  N   UNL     1      35.575 -16.347 -22.863  0.00  0.00    +0.386 N 
ATOM      2  N   UNL     1      34.921 -18.928 -21.735  0.00  0.00    +0.386 N 
ATOM      3  C   UNL     1      35.215 -18.773 -23.165  0.00  0.00    -0.101 C 
ATOM      4  C   UNL     1      35.636 -17.914 -20.952  0.00  0.00    -0.101 C 
ATOM      5  C   UNL     1      34.860 -17.363 -23.646  0.00  0.00    -0.101 C 
ATOM      6  C   UNL     1      35.282 -16.502 -21.433  0.00  0.00    -0.101 C 
ATOM      7  H   UNL     1      36.576 -16.481 -23.002  0.00  0.00    -0.080 HD
ATOM      8  H   UNL     1      33.919 -18.792 -21.596  0.00  0.00    -0.080 HD
ENDROOT
BRANCH   1   9
ATOM      9  C   UNL     1      35.231 -15.003 -23.321  0.00  0.00    -0.043 C 
BRANCH   9  10
ATOM     10  C   UNL     1      33.721 -14.756 -23.204  0.00  0.00    +0.112 C 
BRANCH  10  13
ATOM     11  O   UNL     1      31.905  -9.256 -21.453  0.00  0.00    -0.440 OA
ATOM     12  O   UNL     1      32.619  -8.251 -23.411  0.00  0.00    -0.245 OA
ATOM     13  C   UNL     1      33.407 -13.279 -23.109  0.00  0.00    -0.002 C 
ATOM     14  C   UNL     1      32.787 -12.755 -21.970  0.00  0.00    -0.024 C 
ATOM     15  C   UNL     1      32.522 -11.398 -21.935  0.00  0.00    +0.023 C 
ATOM     16  C   UNL     1      33.749 -12.447 -24.187  0.00  0.00    -0.002 C 
ATOM     17  C   UNL     1      32.863 -10.592 -23.003  0.00  0.00    +0.075 C 
ATOM     18  C   UNL     1      33.476 -11.079 -24.142  0.00  0.00    +0.006 C 
ATOM     19  C   UNL     1      31.888 -10.587 -20.880  0.00  0.00    +0.235 C 
ATOM     20  C   UNL     1      32.418 -13.627 -20.818  0.00  0.00    +0.031 C 
ATOM     21  C   UNL     1      32.472  -9.224 -22.699  0.00  0.00    +0.341 C 
ENDBRANCH  10  13
BRANCH  10  22
ATOM     22  O   UNL     1      33.045 -15.283 -24.345  0.00  0.00    -0.382 OA
ATOM     23  H   UNL     1      33.645 -15.282 -25.106  0.00  0.00    +0.211 HD
ENDBRANCH  10  22
ENDBRANCH   9  10
ENDBRANCH   1   9
BRANCH   2  24
ATOM     24  C   UNL     1      35.262 -20.273 -21.277  0.00  0.00    -0.043 C 
BRANCH  24  25
ATOM     25  C   UNL     1      34.240 -20.774 -20.249  0.00  0.00    +0.112 C 
BRANCH  25  28
ATOM     26  O   UNL     1      35.553 -23.386 -14.949  0.00  0.00    -0.440 OA
ATOM     27  O   UNL     1      37.774 -22.740 -15.031  0.00  0.00    -0.245 OA
ATOM     28  C   UNL     1      34.919 -21.292 -18.999  0.00  0.00    -0.002 C 
ATOM     29  C   UNL     1      34.199 -22.019 -18.046  0.00  0.00    -0.024 C 
ATOM     30  C   UNL     1      34.869 -22.467 -16.922  0.00  0.00    +0.023 C 
ATOM     31  C   UNL     1      36.287 -21.025 -18.816  0.00  0.00    -0.002 C 
ATOM     32  C   UNL     1      36.211 -22.198 -16.755  0.00  0.00    +0.075 C 
ATOM     33  C   UNL     1      36.951 -21.482 -17.677  0.00  0.00    +0.006 C 
ATOM     34  C   UNL     1      34.369 -23.244 -15.774  0.00  0.00    +0.235 C 
ATOM     35  C   UNL     1      32.748 -22.308 -18.227  0.00  0.00    +0.031 C 
ATOM     36  C   UNL     1      36.654 -22.781 -15.498  0.00  0.00    +0.341 C 
ENDBRANCH  25  28
BRANCH  25  37
ATOM     37  O   UNL     1      33.358 -19.717 -19.872  0.00  0.00    -0.382 OA
ATOM     38  H   UNL     1      33.770 -19.188 -19.171  0.00  0.00    +0.211 HD
ENDBRANCH  25  37
ENDBRANCH  24  25
ENDBRANCH   2  24
TORSDOF 8
ENDMDL
