MODEL 1
REMARK VINA RESULT:     -11.1      0.000      0.000
REMARK  Name = 44177328
REMARK  2 active torsions:
REMARK  status: ('A' for Active; 'I' for Inactive)
REMARK    1  A    between atoms: N_1  and  C_15
REMARK    2  A    between atoms: C_6  and  C_23
REMARK                            x       y       z     vdW  Elec       q    Type
REMARK                         _______ _______ _______ _____ _____    ______ ____
ROOT
ATOM      1  N   UNL     1      32.372 -22.547 -17.759  0.00  0.00    -0.286 N 
ATOM      2  N   UNL     1      33.373 -23.396 -15.789  0.00  0.00    -0.386 NA
ATOM      3  N   UNL     1      30.849 -23.488 -14.570  0.00  0.00    -0.246 NA
ATOM      4  N   UNL     1      29.874 -22.638 -16.559  0.00  0.00    -0.340 N 
ATOM      5  C   UNL     1      32.255 -23.009 -16.434  0.00  0.00    +0.214 C 
ATOM      6  C   UNL     1      33.208 -23.830 -14.524  0.00  0.00    +0.135 C 
ATOM      7  C   UNL     1      31.015 -23.055 -15.837  0.00  0.00    +0.166 C 
ATOM      8  C   UNL     1      31.967 -23.875 -13.926  0.00  0.00    +0.185 C 
ATOM      9  H   UNL     1      31.575 -22.722 -18.310  0.00  0.00    +0.155 HD
ATOM     10  H   UNL     1      28.985 -22.668 -16.136  0.00  0.00    +0.144 HD
ATOM     11  H   UNL     1      29.968 -22.316 -17.485  0.00  0.00    +0.144 HD
ENDROOT
BRANCH   1  15
ATOM     12  N   UNL     1      36.254 -19.827 -20.610  0.00  0.00    -0.312 N 
ATOM     13  C   UNL     1      34.127 -20.334 -20.170  0.00  0.00    +0.016 C 
ATOM     14  C   UNL     1      35.448 -20.588 -19.794  0.00  0.00    +0.048 C 
ATOM     15  C   UNL     1      33.408 -21.882 -18.451  0.00  0.00    +0.050 C 
ATOM     16  C   UNL     1      33.088 -20.995 -19.484  0.00  0.00    +0.016 C 
ATOM     17  C   UNL     1      35.782 -21.472 -18.763  0.00  0.00    +0.016 C 
ATOM     18  C   UNL     1      34.735 -22.116 -18.097  0.00  0.00    +0.016 C 
ATOM     19  C   UNL     1      34.169 -19.395 -21.239  0.00  0.00    +0.017 C 
ATOM     20  C   UNL     1      35.491 -19.103 -21.486  0.00  0.00    +0.062 C 
ATOM     21  H   UNL     1      37.238 -19.807 -20.570  0.00  0.00    +0.152 HD
ENDBRANCH   1  15
BRANCH   6  23
ATOM     22  N   UNL     1      36.729 -25.034 -12.501  0.00  0.00    -0.242 NA
ATOM     23  C   UNL     1      34.405 -24.239 -13.836  0.00  0.00    +0.031 C 
ATOM     24  C   UNL     1      34.486 -24.133 -12.452  0.00  0.00    +0.023 C 
ATOM     25  C   UNL     1      35.484 -24.744 -14.553  0.00  0.00    +0.023 C 
ATOM     26  C   UNL     1      35.659 -24.540 -11.838  0.00  0.00    +0.099 C 
ATOM     27  C   UNL     1      36.613 -25.124 -13.845  0.00  0.00    +0.099 C 
ENDBRANCH   6  23
TORSDOF 2
ENDMDL
MODEL 2
REMARK VINA RESULT:     -10.9      1.283      1.974
REMARK  Name = 44177328
REMARK  2 active torsions:
REMARK  status: ('A' for Active; 'I' for Inactive)
REMARK    1  A    between atoms: N_1  and  C_15
REMARK    2  A    between atoms: C_6  and  C_23
REMARK                            x       y       z     vdW  Elec       q    Type
REMARK                         _______ _______ _______ _____ _____    ______ ____
ROOT
ATOM      1  N   UNL     1      32.563 -22.259 -18.260  0.00  0.00    -0.286 N 
ATOM      2  N   UNL     1      34.104 -23.019 -16.631  0.00  0.00    -0.386 NA
ATOM      3  N   UNL     1      31.966 -23.594 -14.908  0.00  0.00    -0.246 NA
ATOM      4  N   UNL     1      30.447 -22.827 -16.561  0.00  0.00    -0.340 N 
ATOM      5  C   UNL     1      32.822 -22.796 -16.985  0.00  0.00    +0.214 C 
ATOM      6  C   UNL     1      34.298 -23.534 -15.401  0.00  0.00    +0.135 C 
ATOM      7  C   UNL     1      31.772 -23.079 -16.140  0.00  0.00    +0.166 C 
ATOM      8  C   UNL     1      33.247 -23.816 -14.555  0.00  0.00    +0.185 C 
ATOM      9  H   UNL     1      31.699 -22.540 -18.639  0.00  0.00    +0.155 HD
ATOM     10  H   UNL     1      29.692 -23.026 -15.961  0.00  0.00    +0.144 HD
ATOM     11  H   UNL     1      30.278 -22.451 -17.456  0.00  0.00    +0.144 HD
ENDROOT
BRANCH   1  15
ATOM     12  N   UNL     1      35.664 -18.960 -21.439  0.00  0.00    -0.312 N 
ATOM     13  C   UNL     1      35.421 -20.461 -19.806  0.00  0.00    +0.016 C 
ATOM     14  C   UNL     1      34.729 -19.707 -20.757  0.00  0.00    +0.048 C 
ATOM     15  C   UNL     1      33.301 -21.397 -19.102  0.00  0.00    +0.050 C 
ATOM     16  C   UNL     1      34.691 -21.322 -18.963  0.00  0.00    +0.016 C 
ATOM     17  C   UNL     1      33.340 -19.773 -20.907  0.00  0.00    +0.016 C 
ATOM     18  C   UNL     1      32.637 -20.633 -20.059  0.00  0.00    +0.016 C 
ATOM     19  C   UNL     1      36.801 -20.141 -19.942  0.00  0.00    +0.017 C 
ATOM     20  C   UNL     1      36.918 -19.215 -20.954  0.00  0.00    +0.062 C 
ATOM     21  H   UNL     1      35.459 -18.333 -22.170  0.00  0.00    +0.152 HD
ENDBRANCH   1  15
BRANCH   6  23
ATOM     22  N   UNL     1      38.328 -24.219 -14.292  0.00  0.00    -0.242 NA
ATOM     23  C   UNL     1      35.668 -23.768 -15.024  0.00  0.00    +0.031 C 
ATOM     24  C   UNL     1      36.001 -24.874 -14.251  0.00  0.00    +0.023 C 
ATOM     25  C   UNL     1      36.664 -22.887 -15.432  0.00  0.00    +0.023 C 
ATOM     26  C   UNL     1      37.333 -25.054 -13.915  0.00  0.00    +0.099 C 
ATOM     27  C   UNL     1      37.967 -23.155 -15.043  0.00  0.00    +0.099 C 
ENDBRANCH   6  23
TORSDOF 2
ENDMDL
MODEL 3
REMARK VINA RESULT:     -10.7      0.936      1.367
REMARK  Name = 44177328
REMARK  2 active torsions:
REMARK  status: ('A' for Active; 'I' for Inactive)
REMARK    1  A    between atoms: N_1  and  C_15
REMARK    2  A    between atoms: C_6  and  C_23
REMARK                            x       y       z     vdW  Elec       q    Type
REMARK                         _______ _______ _______ _____ _____    ______ ____
ROOT
ATOM      1  N   UNL     1      33.048 -22.579 -17.940  0.00  0.00    -0.286 N 
ATOM      2  N   UNL     1      34.283 -23.240 -16.032  0.00  0.00    -0.386 NA
ATOM      3  N   UNL     1      31.880 -23.669 -14.651  0.00  0.00    -0.246 NA
ATOM      4  N   UNL     1      30.670 -23.003 -16.579  0.00  0.00    -0.340 N 
ATOM      5  C   UNL     1      33.083 -23.029 -16.607  0.00  0.00    +0.214 C 
ATOM      6  C   UNL     1      34.262 -23.670 -14.755  0.00  0.00    +0.135 C 
ATOM      7  C   UNL     1      31.902 -23.240 -15.929  0.00  0.00    +0.166 C 
ATOM      8  C   UNL     1      33.081 -23.881 -14.077  0.00  0.00    +0.185 C 
ATOM      9  H   UNL     1      32.251 -22.876 -18.437  0.00  0.00    +0.155 HD
ATOM     10  H   UNL     1      29.823 -23.152 -16.099  0.00  0.00    +0.144 HD
ATOM     11  H   UNL     1      30.658 -22.689 -17.512  0.00  0.00    +0.144 HD
ENDROOT
BRANCH   1  15
ATOM     12  N   UNL     1      36.311 -19.377 -21.055  0.00  0.00    -0.312 N 
ATOM     13  C   UNL     1      34.306 -20.143 -20.445  0.00  0.00    +0.016 C 
ATOM     14  C   UNL     1      35.676 -20.240 -20.190  0.00  0.00    +0.048 C 
ATOM     15  C   UNL     1      33.932 -21.786 -18.704  0.00  0.00    +0.050 C 
ATOM     16  C   UNL     1      33.418 -20.932 -19.686  0.00  0.00    +0.016 C 
ATOM     17  C   UNL     1      36.204 -21.088 -19.210  0.00  0.00    +0.016 C 
ATOM     18  C   UNL     1      35.304 -21.862 -18.472  0.00  0.00    +0.016 C 
ATOM     19  C   UNL     1      34.142 -19.194 -21.492  0.00  0.00    +0.017 C 
ATOM     20  C   UNL     1      35.392 -18.741 -21.846  0.00  0.00    +0.062 C 
ATOM     21  H   UNL     1      37.284 -19.239 -21.099  0.00  0.00    +0.152 HD
ENDBRANCH   1  15
BRANCH   6  23
ATOM     22  N   UNL     1      38.039 -24.323 -12.952  0.00  0.00    -0.242 NA
ATOM     23  C   UNL     1      35.547 -23.892 -14.142  0.00  0.00    +0.031 C 
ATOM     24  C   UNL     1      36.706 -23.822 -14.906  0.00  0.00    +0.023 C 
ATOM     25  C   UNL     1      35.632 -24.176 -12.784  0.00  0.00    +0.023 C 
ATOM     26  C   UNL     1      37.916 -24.043 -14.270  0.00  0.00    +0.099 C 
ATOM     27  C   UNL     1      36.891 -24.382 -12.242  0.00  0.00    +0.099 C 
ENDBRANCH   6  23
TORSDOF 2
ENDMDL
MODEL 4
REMARK VINA RESULT:     -10.1      1.774      7.075
REMARK  Name = 44177328
REMARK  2 active torsions:
REMARK  status: ('A' for Active; 'I' for Inactive)
REMARK    1  A    between atoms: N_1  and  C_15
REMARK    2  A    between atoms: C_6  and  C_23
REMARK                            x       y       z     vdW  Elec       q    Type
REMARK                         _______ _______ _______ _____ _____    ______ ____
ROOT
ATOM      1  N   UNL     1      34.428 -23.956 -15.085  0.00  0.00    -0.286 N 
ATOM      2  N   UNL     1      34.743 -22.562 -16.972  0.00  0.00    -0.386 NA
ATOM      3  N   UNL     1      37.422 -22.195 -16.228  0.00  0.00    -0.246 NA
ATOM      4  N   UNL     1      37.076 -23.597 -14.346  0.00  0.00    -0.340 N 
ATOM      5  C   UNL     1      35.264 -23.143 -15.873  0.00  0.00    +0.214 C 
ATOM      6  C   UNL     1      35.585 -21.795 -17.692  0.00  0.00    +0.135 C 
ATOM      7  C   UNL     1      36.580 -22.964 -15.507  0.00  0.00    +0.166 C 
ATOM      8  C   UNL     1      36.901 -21.615 -17.326  0.00  0.00    +0.185 C 
ATOM      9  H   UNL     1      34.905 -24.682 -14.622  0.00  0.00    +0.155 HD
ATOM     10  H   UNL     1      38.016 -23.472 -14.079  0.00  0.00    +0.144 HD
ATOM     11  H   UNL     1      36.482 -24.163 -13.802  0.00  0.00    +0.144 HD
ENDROOT
BRANCH   1  15
ATOM     12  N   UNL     1      28.956 -23.740 -14.297  0.00  0.00    -0.312 N 
ATOM     13  C   UNL     1      30.796 -23.288 -15.477  0.00  0.00    +0.016 C 
ATOM     14  C   UNL     1      30.324 -23.898 -14.311  0.00  0.00    +0.048 C 
ATOM     15  C   UNL     1      33.039 -23.933 -14.828  0.00  0.00    +0.050 C 
ATOM     16  C   UNL     1      32.181 -23.307 -15.738  0.00  0.00    +0.016 C 
ATOM     17  C   UNL     1      31.171 -24.528 -13.393  0.00  0.00    +0.016 C 
ATOM     18  C   UNL     1      32.541 -24.533 -13.674  0.00  0.00    +0.016 C 
ATOM     19  C   UNL     1      29.665 -22.759 -16.159  0.00  0.00    +0.017 C 
ATOM     20  C   UNL     1      28.549 -23.053 -15.409  0.00  0.00    +0.062 C 
ATOM     21  H   UNL     1      28.359 -24.071 -13.589  0.00  0.00    +0.152 HD
ENDBRANCH   1  15
BRANCH   6  23
ATOM     22  N   UNL     1      33.934 -19.964 -21.137  0.00  0.00    -0.242 NA
ATOM     23  C   UNL     1      35.024 -21.172 -18.864  0.00  0.00    +0.031 C 
ATOM     24  C   UNL     1      35.853 -20.542 -19.785  0.00  0.00    +0.023 C 
ATOM     25  C   UNL     1      33.650 -21.200 -19.079  0.00  0.00    +0.023 C 
ATOM     26  C   UNL     1      35.265 -19.958 -20.895  0.00  0.00    +0.099 C 
ATOM     27  C   UNL     1      33.160 -20.586 -20.221  0.00  0.00    +0.099 C 
ENDBRANCH   6  23
TORSDOF 2
ENDMDL
MODEL 5
REMARK VINA RESULT:      -9.8      1.775      6.759
REMARK  Name = 44177328
REMARK  2 active torsions:
REMARK  status: ('A' for Active; 'I' for Inactive)
REMARK    1  A    between atoms: N_1  and  C_15
REMARK    2  A    between atoms: C_6  and  C_23
REMARK                            x       y       z     vdW  Elec       q    Type
REMARK                         _______ _______ _______ _____ _____    ______ ____
ROOT
ATOM      1  N   UNL     1      34.065 -24.388 -13.911  0.00  0.00    -0.286 N 
ATOM      2  N   UNL     1      34.934 -23.137 -15.724  0.00  0.00    -0.386 NA
ATOM      3  N   UNL     1      37.321 -22.770 -14.298  0.00  0.00    -0.246 NA
ATOM      4  N   UNL     1      36.423 -24.029 -12.499  0.00  0.00    -0.340 N 
ATOM      5  C   UNL     1      35.114 -23.649 -14.490  0.00  0.00    +0.214 C 
ATOM      6  C   UNL     1      35.968 -22.439 -16.232  0.00  0.00    +0.135 C 
ATOM      7  C   UNL     1      36.286 -23.470 -13.789  0.00  0.00    +0.166 C 
ATOM      8  C   UNL     1      37.140 -22.259 -15.531  0.00  0.00    +0.185 C 
ATOM      9  H   UNL     1      34.369 -25.089 -13.291  0.00  0.00    +0.155 HD
ATOM     10  H   UNL     1      37.259 -23.903 -11.993  0.00  0.00    +0.144 HD
ATOM     11  H   UNL     1      35.682 -24.544 -12.104  0.00  0.00    +0.144 HD
ENDROOT
BRANCH   1  15
ATOM     12  N   UNL     1      28.597 -23.967 -14.641  0.00  0.00    -0.312 N 
ATOM     13  C   UNL     1      30.701 -23.466 -15.188  0.00  0.00    +0.016 C 
ATOM     14  C   UNL     1      29.911 -24.200 -14.300  0.00  0.00    +0.048 C 
ATOM     15  C   UNL     1      32.660 -24.320 -14.047  0.00  0.00    +0.050 C 
ATOM     16  C   UNL     1      32.103 -23.529 -15.058  0.00  0.00    +0.016 C 
ATOM     17  C   UNL     1      30.454 -24.996 -13.286  0.00  0.00    +0.016 C 
ATOM     18  C   UNL     1      31.847 -25.041 -13.176  0.00  0.00    +0.016 C 
ATOM     19  C   UNL     1      29.817 -22.786 -16.072  0.00  0.00    +0.017 C 
ATOM     20  C   UNL     1      28.530 -23.113 -15.710  0.00  0.00    +0.062 C 
ATOM     21  H   UNL     1      27.819 -24.356 -14.181  0.00  0.00    +0.152 HD
ENDBRANCH   1  15
BRANCH   6  23
ATOM     22  N   UNL     1      35.391 -20.825 -20.106  0.00  0.00    -0.242 NA
ATOM     23  C   UNL     1      35.771 -21.890 -17.549  0.00  0.00    +0.031 C 
ATOM     24  C   UNL     1      34.535 -22.003 -18.176  0.00  0.00    +0.023 C 
ATOM     25  C   UNL     1      36.818 -21.245 -18.200  0.00  0.00    +0.023 C 
ATOM     26  C   UNL     1      34.397 -21.458 -19.442  0.00  0.00    +0.099 C 
ATOM     27  C   UNL     1      36.578 -20.734 -19.466  0.00  0.00    +0.099 C 
ENDBRANCH   6  23
TORSDOF 2
ENDMDL
MODEL 6
REMARK VINA RESULT:      -9.7      2.075      6.850
REMARK  Name = 44177328
REMARK  2 active torsions:
REMARK  status: ('A' for Active; 'I' for Inactive)
REMARK    1  A    between atoms: N_1  and  C_15
REMARK    2  A    between atoms: C_6  and  C_23
REMARK                            x       y       z     vdW  Elec       q    Type
REMARK                         _______ _______ _______ _____ _____    ______ ____
ROOT
ATOM      1  N   UNL     1      35.146 -24.766 -13.562  0.00  0.00    -0.286 N 
ATOM      2  N   UNL     1      34.678 -23.543 -15.533  0.00  0.00    -0.386 NA
ATOM      3  N   UNL     1      31.933 -23.828 -15.033  0.00  0.00    -0.246 NA
ATOM      4  N   UNL     1      32.434 -25.050 -13.063  0.00  0.00    -0.340 N 
ATOM      5  C   UNL     1      34.214 -24.206 -14.455  0.00  0.00    +0.214 C 
ATOM      6  C   UNL     1      33.746 -23.025 -16.357  0.00  0.00    +0.135 C 
ATOM      7  C   UNL     1      32.866 -24.346 -14.209  0.00  0.00    +0.166 C 
ATOM      8  C   UNL     1      32.397 -23.165 -16.111  0.00  0.00    +0.185 C 
ATOM      9  H   UNL     1      34.826 -24.809 -12.632  0.00  0.00    +0.155 HD
ATOM     10  H   UNL     1      31.471 -25.154 -12.882  0.00  0.00    +0.144 HD
ATOM     11  H   UNL     1      33.095 -25.438 -12.445  0.00  0.00    +0.144 HD
ENDROOT
BRANCH   1  15
ATOM     12  N   UNL     1      40.157 -26.949 -14.416  0.00  0.00    -0.312 N 
ATOM     13  C   UNL     1      37.954 -26.880 -14.762  0.00  0.00    +0.016 C 
ATOM     14  C   UNL     1      39.008 -26.271 -14.075  0.00  0.00    +0.048 C 
ATOM     15  C   UNL     1      36.450 -25.280 -13.739  0.00  0.00    +0.050 C 
ATOM     16  C   UNL     1      36.651 -26.373 -14.589  0.00  0.00    +0.016 C 
ATOM     17  C   UNL     1      38.822 -25.178 -13.224  0.00  0.00    +0.016 C 
ATOM     18  C   UNL     1      37.520 -24.693 -13.067  0.00  0.00    +0.016 C 
ATOM     19  C   UNL     1      38.511 -27.945 -15.524  0.00  0.00    +0.017 C 
ATOM     20  C   UNL     1      39.867 -27.962 -15.290  0.00  0.00    +0.062 C 
ATOM     21  H   UNL     1      41.057 -26.737 -14.077  0.00  0.00    +0.152 HD
ENDBRANCH   1  15
BRANCH   6  23
ATOM     22  N   UNL     1      35.210 -20.951 -19.748  0.00  0.00    -0.242 NA
ATOM     23  C   UNL     1      34.244 -22.320 -17.510  0.00  0.00    +0.031 C 
ATOM     24  C   UNL     1      35.607 -22.083 -17.649  0.00  0.00    +0.023 C 
ATOM     25  C   UNL     1      33.363 -21.874 -18.490  0.00  0.00    +0.023 C 
ATOM     26  C   UNL     1      36.036 -21.401 -18.776  0.00  0.00    +0.099 C 
ATOM     27  C   UNL     1      33.892 -21.200 -19.579  0.00  0.00    +0.099 C 
ENDBRANCH   6  23
TORSDOF 2
ENDMDL
MODEL 7
REMARK VINA RESULT:      -9.7      2.659      5.564
REMARK  Name = 44177328
REMARK  2 active torsions:
REMARK  status: ('A' for Active; 'I' for Inactive)
REMARK    1  A    between atoms: N_1  and  C_15
REMARK    2  A    between atoms: C_6  and  C_23
REMARK                            x       y       z     vdW  Elec       q    Type
REMARK                         _______ _______ _______ _____ _____    ______ ____
ROOT
ATOM      1  N   UNL     1      35.468 -23.442 -13.571  0.00  0.00    -0.286 N 
ATOM      2  N   UNL     1      37.005 -25.137 -14.177  0.00  0.00    -0.386 NA
ATOM      3  N   UNL     1      38.707 -24.303 -12.110  0.00  0.00    -0.246 NA
ATOM      4  N   UNL     1      37.146 -22.615 -11.525  0.00  0.00    -0.340 N 
ATOM      5  C   UNL     1      36.690 -24.109 -13.365  0.00  0.00    +0.214 C 
ATOM      6  C   UNL     1      38.186 -25.741 -13.938  0.00  0.00    +0.135 C 
ATOM      7  C   UNL     1      37.525 -23.699 -12.349  0.00  0.00    +0.166 C 
ATOM      8  C   UNL     1      39.022 -25.331 -12.922  0.00  0.00    +0.185 C 
ATOM      9  H   UNL     1      35.080 -23.064 -12.749  0.00  0.00    +0.155 HD
ATOM     10  H   UNL     1      37.739 -22.317 -10.798  0.00  0.00    +0.144 HD
ATOM     11  H   UNL     1      36.288 -22.156 -11.679  0.00  0.00    +0.144 HD
ENDROOT
BRANCH   1  15
ATOM     12  N   UNL     1      32.628 -22.465 -18.217  0.00  0.00    -0.312 N 
ATOM     13  C   UNL     1      34.523 -22.511 -17.039  0.00  0.00    +0.016 C 
ATOM     14  C   UNL     1      33.150 -22.765 -16.979  0.00  0.00    +0.048 C 
ATOM     15  C   UNL     1      34.688 -23.211 -14.726  0.00  0.00    +0.050 C 
ATOM     16  C   UNL     1      35.305 -22.739 -15.890  0.00  0.00    +0.016 C 
ATOM     17  C   UNL     1      32.521 -23.239 -15.823  0.00  0.00    +0.016 C 
ATOM     18  C   UNL     1      33.318 -23.457 -14.695  0.00  0.00    +0.016 C 
ATOM     19  C   UNL     1      34.804 -22.047 -18.355  0.00  0.00    +0.017 C 
ATOM     20  C   UNL     1      33.619 -22.030 -19.055  0.00  0.00    +0.062 C 
ATOM     21  H   UNL     1      31.679 -22.550 -18.463  0.00  0.00    +0.152 HD
ENDBRANCH   1  15
BRANCH   6  23
ATOM     22  N   UNL     1      39.175 -28.965 -16.501  0.00  0.00    -0.242 NA
ATOM     23  C   UNL     1      38.522 -26.837 -14.810  0.00  0.00    +0.031 C 
ATOM     24  C   UNL     1      37.524 -27.676 -15.294  0.00  0.00    +0.023 C 
ATOM     25  C   UNL     1      39.846 -27.061 -15.171  0.00  0.00    +0.023 C 
ATOM     26  C   UNL     1      37.899 -28.715 -16.129  0.00  0.00    +0.099 C 
ATOM     27  C   UNL     1      40.118 -28.129 -16.011  0.00  0.00    +0.099 C 
ENDBRANCH   6  23
TORSDOF 2
ENDMDL
MODEL 8
REMARK VINA RESULT:      -9.6      3.234      6.207
REMARK  Name = 44177328
REMARK  2 active torsions:
REMARK  status: ('A' for Active; 'I' for Inactive)
REMARK    1  A    between atoms: N_1  and  C_15
REMARK    2  A    between atoms: C_6  and  C_23
REMARK                            x       y       z     vdW  Elec       q    Type
REMARK                         _______ _______ _______ _____ _____    ______ ____
ROOT
ATOM      1  N   UNL     1      35.257 -23.592 -12.977  0.00  0.00    -0.286 N 
ATOM      2  N   UNL     1      36.822 -25.159 -13.811  0.00  0.00    -0.386 NA
ATOM      3  N   UNL     1      38.719 -24.211 -11.975  0.00  0.00    -0.246 NA
ATOM      4  N   UNL     1      37.127 -22.651 -11.159  0.00  0.00    -0.340 N 
ATOM      5  C   UNL     1      36.542 -24.164 -12.947  0.00  0.00    +0.214 C 
ATOM      6  C   UNL     1      38.066 -25.673 -13.741  0.00  0.00    +0.135 C 
ATOM      7  C   UNL     1      37.473 -23.698 -12.044  0.00  0.00    +0.166 C 
ATOM      8  C   UNL     1      38.997 -25.206 -12.840  0.00  0.00    +0.185 C 
ATOM      9  H   UNL     1      34.955 -23.250 -12.104  0.00  0.00    +0.155 HD
ATOM     10  H   UNL     1      37.789 -22.314 -10.513  0.00  0.00    +0.144 HD
ATOM     11  H   UNL     1      36.225 -22.259 -11.190  0.00  0.00    +0.144 HD
ENDROOT
BRANCH   1  15
ATOM     12  N   UNL     1      31.382 -22.902 -16.864  0.00  0.00    -0.312 N 
ATOM     13  C   UNL     1      32.015 -23.202 -14.746  0.00  0.00    +0.016 C 
ATOM     14  C   UNL     1      32.484 -23.062 -16.055  0.00  0.00    +0.048 C 
ATOM     15  C   UNL     1      34.314 -23.413 -14.014  0.00  0.00    +0.050 C 
ATOM     16  C   UNL     1      32.950 -23.381 -13.707  0.00  0.00    +0.016 C 
ATOM     17  C   UNL     1      33.845 -23.091 -16.376  0.00  0.00    +0.016 C 
ATOM     18  C   UNL     1      34.753 -23.271 -15.328  0.00  0.00    +0.016 C 
ATOM     19  C   UNL     1      30.595 -23.121 -14.800  0.00  0.00    +0.017 C 
ATOM     20  C   UNL     1      30.236 -22.938 -16.116  0.00  0.00    +0.062 C 
ATOM     21  H   UNL     1      31.414 -22.782 -17.841  0.00  0.00    +0.152 HD
ENDBRANCH   1  15
BRANCH   6  23
ATOM     22  N   UNL     1      38.939 -28.794 -16.469  0.00  0.00    -0.242 NA
ATOM     23  C   UNL     1      38.363 -26.734 -14.669  0.00  0.00    +0.031 C 
ATOM     24  C   UNL     1      39.681 -27.008 -15.018  0.00  0.00    +0.023 C 
ATOM     25  C   UNL     1      37.333 -27.489 -15.218  0.00  0.00    +0.023 C 
ATOM     26  C   UNL     1      39.914 -28.039 -15.913  0.00  0.00    +0.099 C 
ATOM     27  C   UNL     1      37.670 -28.498 -16.106  0.00  0.00    +0.099 C 
ENDBRANCH   6  23
TORSDOF 2
ENDMDL
MODEL 9
REMARK VINA RESULT:      -9.5      2.748      4.958
REMARK  Name = 44177328
REMARK  2 active torsions:
REMARK  status: ('A' for Active; 'I' for Inactive)
REMARK    1  A    between atoms: N_1  and  C_15
REMARK    2  A    between atoms: C_6  and  C_23
REMARK                            x       y       z     vdW  Elec       q    Type
REMARK                         _______ _______ _______ _____ _____    ______ ____
ROOT
ATOM      1  N   UNL     1      35.426 -23.580 -13.997  0.00  0.00    -0.286 N 
ATOM      2  N   UNL     1      37.037 -25.294 -13.737  0.00  0.00    -0.386 NA
ATOM      3  N   UNL     1      36.491 -25.362 -10.987  0.00  0.00    -0.246 NA
ATOM      4  N   UNL     1      34.881 -23.644 -11.279  0.00  0.00    -0.340 N 
ATOM      5  C   UNL     1      36.122 -24.483 -13.172  0.00  0.00    +0.214 C 
ATOM      6  C   UNL     1      37.675 -26.140 -12.904  0.00  0.00    +0.135 C 
ATOM      7  C   UNL     1      35.852 -24.516 -11.821  0.00  0.00    +0.166 C 
ATOM      8  C   UNL     1      37.407 -26.173 -11.553  0.00  0.00    +0.185 C 
ATOM      9  H   UNL     1      34.517 -23.373 -13.679  0.00  0.00    +0.155 HD
ATOM     10  H   UNL     1      34.685 -23.663 -10.314  0.00  0.00    +0.144 HD
ATOM     11  H   UNL     1      34.401 -23.017 -11.866  0.00  0.00    +0.144 HD
ENDROOT
BRANCH   1  15
ATOM     12  N   UNL     1      36.571 -21.022 -18.767  0.00  0.00    -0.312 N 
ATOM     13  C   UNL     1      35.217 -22.195 -17.437  0.00  0.00    +0.016 C 
ATOM     14  C   UNL     1      36.478 -21.599 -17.520  0.00  0.00    +0.048 C 
ATOM     15  C   UNL     1      35.777 -22.912 -15.191  0.00  0.00    +0.050 C 
ATOM     16  C   UNL     1      34.861 -22.864 -16.248  0.00  0.00    +0.016 C 
ATOM     17  C   UNL     1      37.402 -21.637 -16.471  0.00  0.00    +0.016 C 
ATOM     18  C   UNL     1      37.027 -22.307 -15.302  0.00  0.00    +0.016 C 
ATOM     19  C   UNL     1      34.559 -21.956 -18.675  0.00  0.00    +0.017 C 
ATOM     20  C   UNL     1      35.417 -21.233 -19.472  0.00  0.00    +0.062 C 
ATOM     21  H   UNL     1      37.355 -20.530 -19.102  0.00  0.00    +0.152 HD
ENDBRANCH   1  15
BRANCH   6  23
ATOM     22  N   UNL     1      40.560 -28.676 -14.689  0.00  0.00    -0.242 NA
ATOM     23  C   UNL     1      38.656 -27.003 -13.511  0.00  0.00    +0.031 C 
ATOM     24  C   UNL     1      38.518 -28.384 -13.428  0.00  0.00    +0.023 C 
ATOM     25  C   UNL     1      39.745 -26.457 -14.184  0.00  0.00    +0.023 C 
ATOM     26  C   UNL     1      39.488 -29.170 -14.028  0.00  0.00    +0.099 C 
ATOM     27  C   UNL     1      40.661 -27.330 -14.750  0.00  0.00    +0.099 C 
ENDBRANCH   6  23
TORSDOF 2
ENDMDL
