MODEL 1
REMARK VINA RESULT:     -12.3      0.000      0.000
REMARK  Name = 5288710
REMARK  3 active torsions:
REMARK  status: ('A' for Active; 'I' for Inactive)
REMARK    1  A    between atoms: C_6  and  N_18
REMARK    2  A    between atoms: C_9  and  C_15
REMARK    3  A    between atoms: N_18  and  C_29
REMARK                            x       y       z     vdW  Elec       q    Type
REMARK                         _______ _______ _______ _____ _____    ______ ____
ROOT
ATOM      1  O   UNL     1      35.039 -23.874 -15.663  0.00  0.00    -0.270 OA
ATOM      2  N   UNL     1      33.086 -24.045 -14.346  0.00  0.00    -0.280 N 
ATOM      3  C   UNL     1      31.545 -23.116 -15.779  0.00  0.00    +0.019 C 
ATOM      4  C   UNL     1      32.857 -23.106 -16.420  0.00  0.00    +0.069 C 
ATOM      5  C   UNL     1      31.742 -23.697 -14.523  0.00  0.00    +0.051 C 
ATOM      6  C   UNL     1      33.188 -22.650 -17.631  0.00  0.00    +0.066 C 
ATOM      7  C   UNL     1      33.848 -23.714 -15.471  0.00  0.00    +0.251 C 
ATOM      8  C   UNL     1      30.290 -22.693 -16.174  0.00  0.00    +0.005 C 
ATOM      9  C   UNL     1      29.231 -22.866 -15.276  0.00  0.00    +0.036 C 
ATOM     10  C   UNL     1      30.710 -23.878 -13.622  0.00  0.00    +0.015 C 
ATOM     11  C   UNL     1      29.439 -23.452 -14.013  0.00  0.00    +0.004 C 
ATOM     12  H   UNL     1      33.447 -24.468 -13.534  0.00  0.00    +0.155 HD
ENDROOT
BRANCH   9  15
ATOM     13  O   UNL     1      27.757 -22.004 -16.928  0.00  0.00    -0.431 OA
ATOM     14  N   UNL     1      25.756 -21.857 -15.884  0.00  0.00    -0.203 NA
ATOM     15  C   UNL     1      27.905 -22.436 -15.649  0.00  0.00    +0.166 C 
ATOM     16  C   UNL     1      26.699 -22.349 -15.017  0.00  0.00    +0.140 C 
ATOM     17  C   UNL     1      26.437 -21.674 -16.991  0.00  0.00    +0.285 C 
ENDBRANCH   9  15
BRANCH   6  18
ATOM     18  N   UNL     1      34.408 -22.647 -18.210  0.00  0.00    -0.311 N 
ATOM     19  H   UNL     1      34.935 -23.471 -18.100  0.00  0.00    +0.152 HD
BRANCH  18  29
ATOM     20  S   UNL     1      35.487 -18.039 -22.307  0.00  0.00    -0.002 S 
ATOM     21  O   UNL     1      35.767 -18.577 -23.624  0.00  0.00    -0.172 OA
ATOM     22  O   UNL     1      35.185 -16.636 -22.107  0.00  0.00    -0.172 OA
ATOM     23  C   UNL     1      34.173 -19.007 -21.580  0.00  0.00    +0.177 C 
ATOM     24  C   UNL     1      36.839 -18.484 -21.228  0.00  0.00    +0.177 C 
ATOM     25  C   UNL     1      34.898 -19.861 -20.597  0.00  0.00    +0.000 C 
ATOM     26  C   UNL     1      36.261 -19.594 -20.417  0.00  0.00    -0.001 C 
ATOM     27  C   UNL     1      34.279 -20.872 -19.865  0.00  0.00    +0.012 C 
ATOM     28  C   UNL     1      37.006 -20.338 -19.504  0.00  0.00    -0.002 C 
ATOM     29  C   UNL     1      35.027 -21.619 -18.954  0.00  0.00    +0.048 C 
ATOM     30  C   UNL     1      36.386 -21.352 -18.774  0.00  0.00    +0.014 C 
ENDBRANCH  18  29
ENDBRANCH   6  18
TORSDOF 3
ENDMDL
MODEL 2
REMARK VINA RESULT:     -11.8      3.485      8.942
REMARK  Name = 5288710
REMARK  3 active torsions:
REMARK  status: ('A' for Active; 'I' for Inactive)
REMARK    1  A    between atoms: C_6  and  N_18
REMARK    2  A    between atoms: C_9  and  C_15
REMARK    3  A    between atoms: N_18  and  C_29
REMARK                            x       y       z     vdW  Elec       q    Type
REMARK                         _______ _______ _______ _____ _____    ______ ____
ROOT
ATOM      1  O   UNL     1      36.113 -22.313 -17.447  0.00  0.00    -0.270 OA
ATOM      2  N   UNL     1      37.009 -20.545 -18.732  0.00  0.00    -0.280 N 
ATOM      3  C   UNL     1      35.304 -20.235 -20.244  0.00  0.00    +0.019 C 
ATOM      4  C   UNL     1      34.940 -21.315 -19.332  0.00  0.00    +0.069 C 
ATOM      5  C   UNL     1      36.569 -19.804 -19.834  0.00  0.00    +0.051 C 
ATOM      6  C   UNL     1      33.825 -22.050 -19.315  0.00  0.00    +0.066 C 
ATOM      7  C   UNL     1      36.064 -21.504 -18.355  0.00  0.00    +0.251 C 
ATOM      8  C   UNL     1      34.669 -19.642 -21.319  0.00  0.00    +0.005 C 
ATOM      9  C   UNL     1      35.334 -18.603 -21.977  0.00  0.00    +0.036 C 
ATOM     10  C   UNL     1      37.243 -18.779 -20.470  0.00  0.00    +0.015 C 
ATOM     11  C   UNL     1      36.608 -18.175 -21.558  0.00  0.00    +0.004 C 
ATOM     12  H   UNL     1      37.874 -20.409 -18.281  0.00  0.00    +0.155 HD
ENDROOT
BRANCH   9  15
ATOM     13  O   UNL     1      34.937 -16.627 -23.235  0.00  0.00    -0.431 OA
ATOM     14  N   UNL     1      33.601 -17.293 -24.935  0.00  0.00    -0.203 NA
ATOM     15  C   UNL     1      34.706 -17.959 -23.106  0.00  0.00    +0.166 C 
ATOM     16  C   UNL     1      33.900 -18.363 -24.131  0.00  0.00    +0.140 C 
ATOM     17  C   UNL     1      34.240 -16.301 -24.358  0.00  0.00    +0.285 C 
ENDBRANCH   9  15
BRANCH   6  18
ATOM     18  N   UNL     1      33.502 -23.048 -18.464  0.00  0.00    -0.311 N 
ATOM     19  H   UNL     1      33.845 -23.939 -18.702  0.00  0.00    +0.152 HD
BRANCH  18  29
ATOM     20  S   UNL     1      31.617 -23.593 -12.521  0.00  0.00    -0.002 S 
ATOM     21  O   UNL     1      31.122 -24.931 -12.259  0.00  0.00    -0.172 OA
ATOM     22  O   UNL     1      31.917 -22.670 -11.446  0.00  0.00    -0.172 OA
ATOM     23  C   UNL     1      33.059 -23.730 -13.566  0.00  0.00    +0.177 C 
ATOM     24  C   UNL     1      30.486 -22.795 -13.650  0.00  0.00    +0.177 C 
ATOM     25  C   UNL     1      32.537 -23.326 -14.902  0.00  0.00    +0.000 C 
ATOM     26  C   UNL     1      31.222 -22.848 -14.946  0.00  0.00    -0.001 C 
ATOM     27  C   UNL     1      33.298 -23.392 -16.068  0.00  0.00    +0.012 C 
ATOM     28  C   UNL     1      30.666 -22.435 -16.155  0.00  0.00    -0.002 C 
ATOM     29  C   UNL     1      32.739 -22.982 -17.279  0.00  0.00    +0.048 C 
ATOM     30  C   UNL     1      31.427 -22.505 -17.322  0.00  0.00    +0.014 C 
ENDBRANCH  18  29
ENDBRANCH   6  18
TORSDOF 3
ENDMDL
MODEL 3
REMARK VINA RESULT:     -11.2      1.891      2.780
REMARK  Name = 5288710
REMARK  3 active torsions:
REMARK  status: ('A' for Active; 'I' for Inactive)
REMARK    1  A    between atoms: C_6  and  N_18
REMARK    2  A    between atoms: C_9  and  C_15
REMARK    3  A    between atoms: N_18  and  C_29
REMARK                            x       y       z     vdW  Elec       q    Type
REMARK                         _______ _______ _______ _____ _____    ______ ____
ROOT
ATOM      1  O   UNL     1      36.810 -21.784 -18.009  0.00  0.00    -0.270 OA
ATOM      2  N   UNL     1      35.543 -22.637 -16.207  0.00  0.00    -0.280 N 
ATOM      3  C   UNL     1      33.427 -22.510 -17.100  0.00  0.00    +0.019 C 
ATOM      4  C   UNL     1      34.387 -22.016 -18.081  0.00  0.00    +0.069 C 
ATOM      5  C   UNL     1      34.182 -22.874 -15.981  0.00  0.00    +0.051 C 
ATOM      6  C   UNL     1      34.156 -21.549 -19.311  0.00  0.00    +0.066 C 
ATOM      7  C   UNL     1      35.760 -22.106 -17.481  0.00  0.00    +0.251 C 
ATOM      8  C   UNL     1      32.053 -22.658 -17.103  0.00  0.00    +0.005 C 
ATOM      9  C   UNL     1      31.450 -23.180 -15.955  0.00  0.00    +0.036 C 
ATOM     10  C   UNL     1      33.607 -23.393 -14.837  0.00  0.00    +0.015 C 
ATOM     11  C   UNL     1      32.218 -23.544 -14.833  0.00  0.00    +0.004 C 
ATOM     12  H   UNL     1      36.254 -22.822 -15.552  0.00  0.00    +0.155 HD
ENDROOT
BRANCH   9  15
ATOM     13  O   UNL     1      29.292 -22.437 -16.617  0.00  0.00    -0.431 OA
ATOM     14  N   UNL     1      27.864 -23.901 -15.649  0.00  0.00    -0.203 NA
ATOM     15  C   UNL     1      30.016 -23.348 -15.918  0.00  0.00    +0.166 C 
ATOM     16  C   UNL     1      29.157 -24.233 -15.333  0.00  0.00    +0.140 C 
ATOM     17  C   UNL     1      28.008 -22.838 -16.407  0.00  0.00    +0.285 C 
ENDBRANCH   9  15
BRANCH   6  18
ATOM     18  N   UNL     1      35.056 -21.095 -20.209  0.00  0.00    -0.311 N 
ATOM     19  H   UNL     1      35.759 -21.733 -20.469  0.00  0.00    +0.152 HD
BRANCH  18  29
ATOM     20  S   UNL     1      34.412 -16.364 -24.256  0.00  0.00    -0.002 S 
ATOM     21  O   UNL     1      35.396 -16.457 -25.317  0.00  0.00    -0.172 OA
ATOM     22  O   UNL     1      33.268 -15.480 -24.355  0.00  0.00    -0.172 OA
ATOM     23  C   UNL     1      33.822 -18.012 -23.901  0.00  0.00    +0.177 C 
ATOM     24  C   UNL     1      35.272 -16.003 -22.733  0.00  0.00    +0.177 C 
ATOM     25  C   UNL     1      34.521 -18.345 -22.627  0.00  0.00    +0.000 C 
ATOM     26  C   UNL     1      35.263 -17.319 -22.030  0.00  0.00    -0.001 C 
ATOM     27  C   UNL     1      34.448 -19.599 -22.025  0.00  0.00    +0.012 C 
ATOM     28  C   UNL     1      35.933 -17.545 -20.829  0.00  0.00    -0.002 C 
ATOM     29  C   UNL     1      35.122 -19.827 -20.824  0.00  0.00    +0.048 C 
ATOM     30  C   UNL     1      35.863 -18.802 -20.229  0.00  0.00    +0.014 C 
ENDBRANCH  18  29
ENDBRANCH   6  18
TORSDOF 3
ENDMDL
MODEL 4
REMARK VINA RESULT:     -11.1      3.241      8.668
REMARK  Name = 5288710
REMARK  3 active torsions:
REMARK  status: ('A' for Active; 'I' for Inactive)
REMARK    1  A    between atoms: C_6  and  N_18
REMARK    2  A    between atoms: C_9  and  C_15
REMARK    3  A    between atoms: N_18  and  C_29
REMARK                            x       y       z     vdW  Elec       q    Type
REMARK                         _______ _______ _______ _____ _____    ______ ____
ROOT
ATOM      1  O   UNL     1      36.742 -22.011 -17.269  0.00  0.00    -0.270 OA
ATOM      2  N   UNL     1      37.337 -20.255 -18.732  0.00  0.00    -0.280 N 
ATOM      3  C   UNL     1      35.545 -20.300 -20.173  0.00  0.00    +0.019 C 
ATOM      4  C   UNL     1      35.368 -21.338 -19.163  0.00  0.00    +0.069 C 
ATOM      5  C   UNL     1      36.755 -19.672 -19.864  0.00  0.00    +0.051 C 
ATOM      6  C   UNL     1      34.364 -22.209 -19.030  0.00  0.00    +0.066 C 
ATOM      7  C   UNL     1      36.546 -21.294 -18.233  0.00  0.00    +0.251 C 
ATOM      8  C   UNL     1      34.792 -19.888 -21.256  0.00  0.00    +0.005 C 
ATOM      9  C   UNL     1      35.282 -18.829 -22.027  0.00  0.00    +0.036 C 
ATOM     10  C   UNL     1      37.257 -18.625 -20.611  0.00  0.00    +0.015 C 
ATOM     11  C   UNL     1      36.503 -18.203 -21.708  0.00  0.00    +0.004 C 
ATOM     12  H   UNL     1      38.193 -19.969 -18.338  0.00  0.00    +0.155 HD
ENDROOT
BRANCH   9  15
ATOM     13  O   UNL     1      33.527 -19.187 -23.587  0.00  0.00    -0.431 OA
ATOM     14  N   UNL     1      33.576 -17.365 -24.927  0.00  0.00    -0.203 NA
ATOM     15  C   UNL     1      34.527 -18.370 -23.168  0.00  0.00    +0.166 C 
ATOM     16  C   UNL     1      34.558 -17.269 -23.974  0.00  0.00    +0.140 C 
ATOM     17  C   UNL     1      33.003 -18.513 -24.648  0.00  0.00    +0.285 C 
ENDBRANCH   9  15
BRANCH   6  18
ATOM     18  N   UNL     1      34.215 -23.166 -18.089  0.00  0.00    -0.311 N 
ATOM     19  H   UNL     1      34.800 -23.952 -18.183  0.00  0.00    +0.152 HD
BRANCH  18  29
ATOM     20  S   UNL     1      29.051 -23.074 -14.554  0.00  0.00    -0.002 S 
ATOM     21  O   UNL     1      28.590 -21.714 -14.352  0.00  0.00    -0.172 OA
ATOM     22  O   UNL     1      28.213 -24.215 -14.244  0.00  0.00    -0.172 OA
ATOM     23  C   UNL     1      29.605 -23.226 -16.246  0.00  0.00    +0.177 C 
ATOM     24  C   UNL     1      30.605 -23.266 -13.696  0.00  0.00    +0.177 C 
ATOM     25  C   UNL     1      31.089 -23.209 -16.109  0.00  0.00    +0.000 C 
ATOM     26  C   UNL     1      31.601 -23.229 -14.806  0.00  0.00    -0.001 C 
ATOM     27  C   UNL     1      31.953 -23.190 -17.202  0.00  0.00    +0.012 C 
ATOM     28  C   UNL     1      32.978 -23.231 -14.594  0.00  0.00    -0.002 C 
ATOM     29  C   UNL     1      33.332 -23.188 -16.988  0.00  0.00    +0.048 C 
ATOM     30  C   UNL     1      33.843 -23.208 -15.688  0.00  0.00    +0.014 C 
ENDBRANCH  18  29
ENDBRANCH   6  18
TORSDOF 3
ENDMDL
MODEL 5
REMARK VINA RESULT:     -11.0      3.334      5.674
REMARK  Name = 5288710
REMARK  3 active torsions:
REMARK  status: ('A' for Active; 'I' for Inactive)
REMARK    1  A    between atoms: C_6  and  N_18
REMARK    2  A    between atoms: C_9  and  C_15
REMARK    3  A    between atoms: N_18  and  C_29
REMARK                            x       y       z     vdW  Elec       q    Type
REMARK                         _______ _______ _______ _____ _____    ______ ____
ROOT
ATOM      1  O   UNL     1      32.540 -21.637 -19.904  0.00  0.00    -0.270 OA
ATOM      2  N   UNL     1      32.344 -22.418 -17.684  0.00  0.00    -0.280 N 
ATOM      3  C   UNL     1      34.560 -22.466 -17.072  0.00  0.00    +0.019 C 
ATOM      4  C   UNL     1      34.459 -21.998 -18.450  0.00  0.00    +0.069 C 
ATOM      5  C   UNL     1      33.248 -22.706 -16.655  0.00  0.00    +0.051 C 
ATOM      6  C   UNL     1      35.440 -21.640 -19.283  0.00  0.00    +0.066 C 
ATOM      7  C   UNL     1      33.007 -21.974 -18.832  0.00  0.00    +0.251 C 
ATOM      8  C   UNL     1      35.624 -22.681 -16.216  0.00  0.00    +0.005 C 
ATOM      9  C   UNL     1      35.342 -23.146 -14.927  0.00  0.00    +0.036 C 
ATOM     10  C   UNL     1      32.947 -23.164 -15.387  0.00  0.00    +0.015 C 
ATOM     11  C   UNL     1      34.016 -23.386 -14.516  0.00  0.00    +0.004 C 
ATOM     12  H   UNL     1      31.367 -22.516 -17.608  0.00  0.00    +0.155 HD
ENDROOT
BRANCH   9  15
ATOM     13  O   UNL     1      36.181 -23.069 -12.706  0.00  0.00    -0.431 OA
ATOM     14  N   UNL     1      38.287 -23.880 -12.865  0.00  0.00    -0.203 NA
ATOM     15  C   UNL     1      36.425 -23.386 -14.004  0.00  0.00    +0.166 C 
ATOM     16  C   UNL     1      37.694 -23.876 -14.102  0.00  0.00    +0.140 C 
ATOM     17  C   UNL     1      37.348 -23.395 -12.085  0.00  0.00    +0.285 C 
ENDBRANCH   9  15
BRANCH   6  18
ATOM     18  N   UNL     1      35.330 -21.209 -20.557  0.00  0.00    -0.311 N 
ATOM     19  H   UNL     1      35.273 -21.913 -21.243  0.00  0.00    +0.152 HD
BRANCH  18  29
ATOM     20  S   UNL     1      34.420 -16.175 -24.165  0.00  0.00    -0.002 S 
ATOM     21  O   UNL     1      35.489 -16.038 -25.134  0.00  0.00    -0.172 OA
ATOM     22  O   UNL     1      33.186 -15.426 -24.283  0.00  0.00    -0.172 OA
ATOM     23  C   UNL     1      34.016 -17.910 -24.029  0.00  0.00    +0.177 C 
ATOM     24  C   UNL     1      35.103 -15.884 -22.541  0.00  0.00    +0.177 C 
ATOM     25  C   UNL     1      34.647 -18.295 -22.735  0.00  0.00    +0.000 C 
ATOM     26  C   UNL     1      35.203 -17.259 -21.974  0.00  0.00    -0.001 C 
ATOM     27  C   UNL     1      34.685 -19.607 -22.267  0.00  0.00    +0.012 C 
ATOM     28  C   UNL     1      35.798 -17.534 -20.744  0.00  0.00    -0.002 C 
ATOM     29  C   UNL     1      35.284 -19.882 -21.037  0.00  0.00    +0.048 C 
ATOM     30  C   UNL     1      35.839 -18.849 -20.278  0.00  0.00    +0.014 C 
ENDBRANCH  18  29
ENDBRANCH   6  18
TORSDOF 3
ENDMDL
MODEL 6
REMARK VINA RESULT:     -10.6      5.793      9.676
REMARK  Name = 5288710
REMARK  3 active torsions:
REMARK  status: ('A' for Active; 'I' for Inactive)
REMARK    1  A    between atoms: C_6  and  N_18
REMARK    2  A    between atoms: C_9  and  C_15
REMARK    3  A    between atoms: N_18  and  C_29
REMARK                            x       y       z     vdW  Elec       q    Type
REMARK                         _______ _______ _______ _____ _____    ______ ____
ROOT
ATOM      1  O   UNL     1      36.161 -22.785 -11.869  0.00  0.00    -0.270 OA
ATOM      2  N   UNL     1      38.159 -23.993 -12.230  0.00  0.00    -0.280 N 
ATOM      3  C   UNL     1      37.457 -25.466 -13.851  0.00  0.00    +0.019 C 
ATOM      4  C   UNL     1      36.341 -24.604 -13.477  0.00  0.00    +0.069 C 
ATOM      5  C   UNL     1      38.536 -25.051 -13.064  0.00  0.00    +0.051 C 
ATOM      6  C   UNL     1      35.091 -24.608 -13.949  0.00  0.00    +0.066 C 
ATOM      7  C   UNL     1      36.817 -23.651 -12.419  0.00  0.00    +0.251 C 
ATOM      8  C   UNL     1      37.599 -26.502 -14.755  0.00  0.00    +0.005 C 
ATOM      9  C   UNL     1      38.851 -27.117 -14.851  0.00  0.00    +0.036 C 
ATOM     10  C   UNL     1      39.781 -25.645 -13.144  0.00  0.00    +0.015 C 
ATOM     11  C   UNL     1      39.932 -26.693 -14.055  0.00  0.00    +0.004 C 
ATOM     12  H   UNL     1      38.762 -23.547 -11.592  0.00  0.00    +0.155 HD
ENDROOT
BRANCH   9  15
ATOM     13  O   UNL     1      40.328 -28.522 -16.073  0.00  0.00    -0.431 OA
ATOM     14  N   UNL     1      38.966 -29.909 -17.230  0.00  0.00    -0.203 NA
ATOM     15  C   UNL     1      39.040 -28.205 -15.782  0.00  0.00    +0.166 C 
ATOM     16  C   UNL     1      38.216 -29.041 -16.478  0.00  0.00    +0.140 C 
ATOM     17  C   UNL     1      40.200 -29.556 -16.949  0.00  0.00    +0.285 C 
ENDBRANCH   9  15
BRANCH   6  18
ATOM     18  N   UNL     1      34.067 -23.803 -13.592  0.00  0.00    -0.311 N 
ATOM     19  H   UNL     1      34.311 -23.013 -13.059  0.00  0.00    +0.152 HD
BRANCH  18  29
ATOM     20  S   UNL     1      28.359 -23.048 -16.045  0.00  0.00    -0.002 S 
ATOM     21  O   UNL     1      27.675 -21.931 -15.423  0.00  0.00    -0.172 OA
ATOM     22  O   UNL     1      27.875 -23.646 -17.273  0.00  0.00    -0.172 OA
ATOM     23  C   UNL     1      30.070 -22.591 -16.277  0.00  0.00    +0.177 C 
ATOM     24  C   UNL     1      28.541 -24.337 -14.823  0.00  0.00    +0.177 C 
ATOM     25  C   UNL     1      30.761 -23.340 -15.190  0.00  0.00    +0.000 C 
ATOM     26  C   UNL     1      29.980 -24.233 -14.446  0.00  0.00    -0.001 C 
ATOM     27  C   UNL     1      32.119 -23.196 -14.911  0.00  0.00    +0.012 C 
ATOM     28  C   UNL     1      30.555 -24.983 -13.423  0.00  0.00    -0.002 C 
ATOM     29  C   UNL     1      32.694 -23.945 -13.883  0.00  0.00    +0.048 C 
ATOM     30  C   UNL     1      31.914 -24.836 -13.141  0.00  0.00    +0.014 C 
ENDBRANCH  18  29
ENDBRANCH   6  18
TORSDOF 3
ENDMDL
MODEL 7
REMARK VINA RESULT:     -10.6      4.350      7.171
REMARK  Name = 5288710
REMARK  3 active torsions:
REMARK  status: ('A' for Active; 'I' for Inactive)
REMARK    1  A    between atoms: C_6  and  N_18
REMARK    2  A    between atoms: C_9  and  C_15
REMARK    3  A    between atoms: N_18  and  C_29
REMARK                            x       y       z     vdW  Elec       q    Type
REMARK                         _______ _______ _______ _____ _____    ______ ____
ROOT
ATOM      1  O   UNL     1      33.417 -19.201 -22.544  0.00  0.00    -0.270 OA
ATOM      2  N   UNL     1      32.920 -20.548 -20.668  0.00  0.00    -0.280 N 
ATOM      3  C   UNL     1      34.997 -20.664 -19.688  0.00  0.00    +0.019 C 
ATOM      4  C   UNL     1      35.088 -19.854 -20.899  0.00  0.00    +0.069 C 
ATOM      5  C   UNL     1      33.660 -21.059 -19.596  0.00  0.00    +0.051 C 
ATOM      6  C   UNL     1      36.160 -19.249 -21.418  0.00  0.00    +0.066 C 
ATOM      7  C   UNL     1      33.725 -19.790 -21.524  0.00  0.00    +0.251 C 
ATOM      8  C   UNL     1      35.917 -21.054 -18.733  0.00  0.00    +0.005 C 
ATOM      9  C   UNL     1      35.464 -21.853 -17.679  0.00  0.00    +0.036 C 
ATOM     10  C   UNL     1      33.191 -21.847 -18.563  0.00  0.00    +0.015 C 
ATOM     11  C   UNL     1      34.115 -22.246 -17.594  0.00  0.00    +0.004 C 
ATOM     12  H   UNL     1      31.957 -20.702 -20.801  0.00  0.00    +0.155 HD
ENDROOT
BRANCH   9  15
ATOM     13  O   UNL     1      35.964 -23.282 -15.848  0.00  0.00    -0.431 OA
ATOM     14  N   UNL     1      38.059 -22.698 -15.225  0.00  0.00    -0.203 NA
ATOM     15  C   UNL     1      36.393 -22.284 -16.661  0.00  0.00    +0.166 C 
ATOM     16  C   UNL     1      37.657 -21.929 -16.288  0.00  0.00    +0.140 C 
ATOM     17  C   UNL     1      37.021 -23.475 -15.012  0.00  0.00    +0.285 C 
ENDBRANCH   9  15
BRANCH   6  18
ATOM     18  N   UNL     1      36.228 -18.502 -22.541  0.00  0.00    -0.311 N 
ATOM     19  H   UNL     1      36.883 -18.800 -23.212  0.00  0.00    +0.152 HD
BRANCH  18  29
ATOM     20  S   UNL     1      33.318 -12.967 -22.289  0.00  0.00    -0.002 S 
ATOM     21  O   UNL     1      32.023 -13.095 -21.649  0.00  0.00    -0.172 OA
ATOM     22  O   UNL     1      33.931 -11.673 -22.511  0.00  0.00    -0.172 OA
ATOM     23  C   UNL     1      34.478 -13.996 -21.404  0.00  0.00    +0.177 C 
ATOM     24  C   UNL     1      33.254 -13.835 -23.849  0.00  0.00    +0.177 C 
ATOM     25  C   UNL     1      34.635 -15.170 -22.309  0.00  0.00    +0.000 C 
ATOM     26  C   UNL     1      34.010 -15.088 -23.559  0.00  0.00    -0.001 C 
ATOM     27  C   UNL     1      35.374 -16.301 -21.968  0.00  0.00    +0.012 C 
ATOM     28  C   UNL     1      34.122 -16.136 -24.470  0.00  0.00    -0.002 C 
ATOM     29  C   UNL     1      35.483 -17.352 -22.879  0.00  0.00    +0.048 C 
ATOM     30  C   UNL     1      34.859 -17.270 -24.126  0.00  0.00    +0.014 C 
ENDBRANCH  18  29
ENDBRANCH   6  18
TORSDOF 3
ENDMDL
MODEL 8
REMARK VINA RESULT:     -10.5      3.419      6.794
REMARK  Name = 5288710
REMARK  3 active torsions:
REMARK  status: ('A' for Active; 'I' for Inactive)
REMARK    1  A    between atoms: C_6  and  N_18
REMARK    2  A    between atoms: C_9  and  C_15
REMARK    3  A    between atoms: N_18  and  C_29
REMARK                            x       y       z     vdW  Elec       q    Type
REMARK                         _______ _______ _______ _____ _____    ______ ____
ROOT
ATOM      1  O   UNL     1      32.209 -22.697 -14.812  0.00  0.00    -0.270 OA
ATOM      2  N   UNL     1      33.636 -23.622 -13.173  0.00  0.00    -0.280 N 
ATOM      3  C   UNL     1      35.469 -24.127 -14.468  0.00  0.00    +0.019 C 
ATOM      4  C   UNL     1      34.441 -23.528 -15.313  0.00  0.00    +0.069 C 
ATOM      5  C   UNL     1      34.929 -24.159 -13.179  0.00  0.00    +0.051 C 
ATOM      6  C   UNL     1      34.480 -23.283 -16.626  0.00  0.00    +0.066 C 
ATOM      7  C   UNL     1      33.254 -23.207 -14.452  0.00  0.00    +0.251 C 
ATOM      8  C   UNL     1      36.741 -24.608 -14.713  0.00  0.00    +0.005 C 
ATOM      9  C   UNL     1      37.463 -25.125 -13.633  0.00  0.00    +0.036 C 
ATOM     10  C   UNL     1      35.624 -24.665 -12.098  0.00  0.00    +0.015 C 
ATOM     11  C   UNL     1      36.911 -25.154 -12.338  0.00  0.00    +0.004 C 
ATOM     12  H   UNL     1      33.070 -23.547 -12.371  0.00  0.00    +0.155 HD
ENDROOT
BRANCH   9  15
ATOM     13  O   UNL     1      38.885 -26.761 -14.606  0.00  0.00    -0.431 OA
ATOM     14  N   UNL     1      40.970 -26.151 -13.976  0.00  0.00    -0.203 NA
ATOM     15  C   UNL     1      38.795 -25.639 -13.847  0.00  0.00    +0.166 C 
ATOM     16  C   UNL     1      40.051 -25.268 -13.465  0.00  0.00    +0.140 C 
ATOM     17  C   UNL     1      40.224 -27.005 -14.638  0.00  0.00    +0.285 C 
ENDBRANCH   9  15
BRANCH   6  18
ATOM     18  N   UNL     1      33.519 -22.728 -17.395  0.00  0.00    -0.311 N 
ATOM     19  H   UNL     1      32.596 -22.995 -17.183  0.00  0.00    +0.152 HD
BRANCH  18  29
ATOM     20  S   UNL     1      35.909 -18.691 -21.538  0.00  0.00    -0.002 S 
ATOM     21  O   UNL     1      36.038 -17.371 -20.953  0.00  0.00    -0.172 OA
ATOM     22  O   UNL     1      36.562 -19.038 -22.784  0.00  0.00    -0.172 OA
ATOM     23  C   UNL     1      36.377 -19.892 -20.302  0.00  0.00    +0.177 C 
ATOM     24  C   UNL     1      34.168 -19.060 -21.692  0.00  0.00    +0.177 C 
ATOM     25  C   UNL     1      35.063 -20.439 -19.859  0.00  0.00    +0.000 C 
ATOM     26  C   UNL     1      33.933 -20.014 -20.569  0.00  0.00    -0.001 C 
ATOM     27  C   UNL     1      34.929 -21.342 -18.806  0.00  0.00    +0.012 C 
ATOM     28  C   UNL     1      32.670 -20.491 -20.228  0.00  0.00    -0.002 C 
ATOM     29  C   UNL     1      33.663 -21.816 -18.462  0.00  0.00    +0.048 C 
ATOM     30  C   UNL     1      32.537 -21.391 -19.171  0.00  0.00    +0.014 C 
ENDBRANCH  18  29
ENDBRANCH   6  18
TORSDOF 3
ENDMDL
MODEL 9
REMARK VINA RESULT:     -10.4      2.490      5.216
REMARK  Name = 5288710
REMARK  3 active torsions:
REMARK  status: ('A' for Active; 'I' for Inactive)
REMARK    1  A    between atoms: C_6  and  N_18
REMARK    2  A    between atoms: C_9  and  C_15
REMARK    3  A    between atoms: N_18  and  C_29
REMARK                            x       y       z     vdW  Elec       q    Type
REMARK                         _______ _______ _______ _____ _____    ______ ____
ROOT
ATOM      1  O   UNL     1      31.429 -22.429 -17.390  0.00  0.00    -0.270 OA
ATOM      2  N   UNL     1      31.389 -23.064 -15.115  0.00  0.00    -0.280 N 
ATOM      3  C   UNL     1      33.626 -23.473 -14.767  0.00  0.00    +0.019 C 
ATOM      4  C   UNL     1      33.429 -23.056 -16.152  0.00  0.00    +0.069 C 
ATOM      5  C   UNL     1      32.356 -23.459 -14.183  0.00  0.00    +0.051 C 
ATOM      6  C   UNL     1      34.342 -22.914 -17.116  0.00  0.00    +0.066 C 
ATOM      7  C   UNL     1      31.966 -22.795 -16.360  0.00  0.00    +0.251 C 
ATOM      8  C   UNL     1      34.738 -23.833 -14.030  0.00  0.00    +0.005 C 
ATOM      9  C   UNL     1      34.548 -24.183 -12.690  0.00  0.00    +0.036 C 
ATOM     10  C   UNL     1      32.145 -23.801 -12.861  0.00  0.00    +0.015 C 
ATOM     11  C   UNL     1      33.265 -24.167 -12.110  0.00  0.00    +0.004 C 
ATOM     12  H   UNL     1      30.428 -22.985 -14.919  0.00  0.00    +0.155 HD
ENDROOT
BRANCH   9  15
ATOM     13  O   UNL     1      36.518 -25.486 -12.437  0.00  0.00    -0.431 OA
ATOM     14  N   UNL     1      37.313 -24.926 -10.394  0.00  0.00    -0.203 NA
ATOM     15  C   UNL     1      35.684 -24.568 -11.886  0.00  0.00    +0.166 C 
ATOM     16  C   UNL     1      36.161 -24.227 -10.654  0.00  0.00    +0.140 C 
ATOM     17  C   UNL     1      37.473 -25.649 -11.479  0.00  0.00    +0.285 C 
ENDBRANCH   9  15
BRANCH   6  18
ATOM     18  N   UNL     1      34.145 -22.527 -18.395  0.00  0.00    -0.311 N 
ATOM     19  H   UNL     1      33.444 -23.015 -18.884  0.00  0.00    +0.152 HD
BRANCH  18  29
ATOM     20  S   UNL     1      35.418 -17.876 -22.384  0.00  0.00    -0.002 S 
ATOM     21  O   UNL     1      35.645 -18.392 -23.721  0.00  0.00    -0.172 OA
ATOM     22  O   UNL     1      35.201 -16.465 -22.142  0.00  0.00    -0.172 OA
ATOM     23  C   UNL     1      34.064 -18.788 -21.661  0.00  0.00    +0.177 C 
ATOM     24  C   UNL     1      36.760 -18.428 -21.343  0.00  0.00    +0.177 C 
ATOM     25  C   UNL     1      34.755 -19.709 -20.714  0.00  0.00    +0.000 C 
ATOM     26  C   UNL     1      36.133 -19.525 -20.551  0.00  0.00    -0.001 C 
ATOM     27  C   UNL     1      34.090 -20.703 -19.998  0.00  0.00    +0.012 C 
ATOM     28  C   UNL     1      36.849 -20.335 -19.673  0.00  0.00    -0.002 C 
ATOM     29  C   UNL     1      34.809 -21.516 -19.121  0.00  0.00    +0.048 C 
ATOM     30  C   UNL     1      36.185 -21.333 -18.959  0.00  0.00    +0.014 C 
ENDBRANCH  18  29
ENDBRANCH   6  18
TORSDOF 3
ENDMDL
