MODEL 1
REMARK VINA RESULT:     -11.3      0.000      0.000
REMARK  Name = 5326868
REMARK  6 active torsions:
REMARK  status: ('A' for Active; 'I' for Inactive)
REMARK    1  A    between atoms: C_2  and  C_28
REMARK    2  A    between atoms: C_7  and  N_12
REMARK    3  A    between atoms: C_13  and  C_18
REMARK    4  A    between atoms: C_16  and  N_23
REMARK    5  A    between atoms: C_28  and  C_29
REMARK    6  A    between atoms: C_29  and  C_31
REMARK                            x       y       z     vdW  Elec       q    Type
REMARK                         _______ _______ _______ _____ _____    ______ ____
ROOT
ATOM      1  N   UNL     1      34.933 -16.655 -24.367  0.00  0.00    -0.312 N 
ATOM      2  C   UNL     1      34.890 -15.670 -22.378  0.00  0.00    -0.006 C 
ATOM      3  C   UNL     1      34.875 -17.079 -22.178  0.00  0.00    +0.012 C 
ATOM      4  C   UNL     1      34.902 -17.673 -23.441  0.00  0.00    +0.048 C 
ATOM      5  C   UNL     1      34.926 -15.441 -23.734  0.00  0.00    +0.058 C 
ATOM      6  C   UNL     1      34.838 -17.909 -21.039  0.00  0.00    +0.016 C 
ATOM      7  C   UNL     1      34.832 -19.298 -21.206  0.00  0.00    +0.051 C 
ATOM      8  C   UNL     1      34.895 -19.061 -23.624  0.00  0.00    +0.016 C 
ATOM      9  C   UNL     1      34.861 -19.864 -22.480  0.00  0.00    +0.016 C 
ATOM     10  H   UNL     1      34.957 -16.782 -25.343  0.00  0.00    +0.152 HD
ENDROOT
BRANCH   7  12
ATOM     11  O   UNL     1      32.616 -21.006 -20.131  0.00  0.00    -0.270 OA
ATOM     12  N   UNL     1      34.796 -20.127 -20.083  0.00  0.00    -0.280 N 
ATOM     13  C   UNL     1      33.728 -20.907 -19.623  0.00  0.00    +0.250 C 
ATOM     14  H   UNL     1      35.622 -20.167 -19.549  0.00  0.00    +0.155 HD
BRANCH  13  18
ATOM     15  F   UNL     1      36.794 -22.725 -16.354  0.00  0.00    -0.204 F 
ATOM     16  C   UNL     1      33.162 -22.887 -16.492  0.00  0.00    +0.050 C 
ATOM     17  C   UNL     1      32.917 -22.175 -17.667  0.00  0.00    +0.019 C 
ATOM     18  C   UNL     1      33.988 -21.667 -18.372  0.00  0.00    +0.057 C 
ATOM     19  C   UNL     1      34.471 -23.072 -16.049  0.00  0.00    +0.044 C 
ATOM     20  C   UNL     1      35.292 -21.836 -17.955  0.00  0.00    +0.034 C 
ATOM     21  C   UNL     1      35.537 -22.547 -16.781  0.00  0.00    +0.142 C 
BRANCH  16  23
ATOM     22  O   UNL     1      29.954 -24.236 -14.131  0.00  0.00    -0.350 OA
ATOM     23  N   UNL     1      32.094 -23.413 -15.757  0.00  0.00    -0.303 N 
ATOM     24  C   UNL     1      30.716 -23.047 -16.105  0.00  0.00    +0.123 C 
ATOM     25  C   UNL     1      32.318 -23.733 -14.341  0.00  0.00    +0.123 C 
ATOM     26  C   UNL     1      29.750 -24.080 -15.535  0.00  0.00    +0.164 C 
ATOM     27  C   UNL     1      31.268 -24.731 -13.867  0.00  0.00    +0.164 C 
ENDBRANCH  16  23
ENDBRANCH  13  18
ENDBRANCH   7  12
BRANCH   2  28
ATOM     28  C   UNL     1      34.872 -14.633 -21.327  0.00  0.00    +0.032 C 
BRANCH  28  29
ATOM     29  C   UNL     1      33.468 -14.310 -20.770  0.00  0.00    +0.031 C 
BRANCH  29  31
ATOM     30  N   UNL     1      31.938 -10.542 -22.123  0.00  0.00    -0.242 NA
ATOM     31  C   UNL     1      32.929 -12.984 -21.246  0.00  0.00    -0.019 C 
ATOM     32  C   UNL     1      33.435 -12.420 -22.401  0.00  0.00    +0.016 C 
ATOM     33  C   UNL     1      31.939 -12.352 -20.520  0.00  0.00    +0.016 C 
ATOM     34  C   UNL     1      32.907 -11.202 -22.797  0.00  0.00    +0.099 C 
ATOM     35  C   UNL     1      31.477 -11.136 -20.999  0.00  0.00    +0.099 C 
ENDBRANCH  29  31
ENDBRANCH  28  29
ENDBRANCH   2  28
TORSDOF 6
ENDMDL
MODEL 2
REMARK VINA RESULT:     -11.3      4.929     12.127
REMARK  Name = 5326868
REMARK  6 active torsions:
REMARK  status: ('A' for Active; 'I' for Inactive)
REMARK    1  A    between atoms: C_2  and  C_28
REMARK    2  A    between atoms: C_7  and  N_12
REMARK    3  A    between atoms: C_13  and  C_18
REMARK    4  A    between atoms: C_16  and  N_23
REMARK    5  A    between atoms: C_28  and  C_29
REMARK    6  A    between atoms: C_29  and  C_31
REMARK                            x       y       z     vdW  Elec       q    Type
REMARK                         _______ _______ _______ _____ _____    ______ ____
ROOT
ATOM      1  N   UNL     1      34.619 -17.203 -24.644  0.00  0.00    -0.312 N 
ATOM      2  C   UNL     1      35.087 -16.935 -22.490  0.00  0.00    -0.006 C 
ATOM      3  C   UNL     1      34.547 -15.714 -22.984  0.00  0.00    +0.012 C 
ATOM      4  C   UNL     1      34.263 -15.910 -24.338  0.00  0.00    +0.048 C 
ATOM      5  C   UNL     1      35.118 -17.831 -23.534  0.00  0.00    +0.058 C 
ATOM      6  C   UNL     1      34.274 -14.457 -22.408  0.00  0.00    +0.016 C 
ATOM      7  C   UNL     1      33.726 -13.446 -23.205  0.00  0.00    +0.051 C 
ATOM      8  C   UNL     1      33.716 -14.907 -25.147  0.00  0.00    +0.016 C 
ATOM      9  C   UNL     1      33.452 -13.669 -24.554  0.00  0.00    +0.016 C 
ATOM     10  H   UNL     1      34.529 -17.617 -25.532  0.00  0.00    +0.152 HD
ENDROOT
BRANCH   7  12
ATOM     11  O   UNL     1      31.368 -12.519 -21.602  0.00  0.00    -0.270 OA
ATOM     12  N   UNL     1      33.452 -12.197 -22.643  0.00  0.00    -0.280 N 
ATOM     13  C   UNL     1      32.329 -11.816 -21.898  0.00  0.00    +0.250 C 
ATOM     14  H   UNL     1      34.132 -11.500 -22.787  0.00  0.00    +0.155 HD
BRANCH  13  18
ATOM     15  F   UNL     1      31.563  -8.476 -18.486  0.00  0.00    -0.204 F 
ATOM     16  C   UNL     1      32.657  -8.084 -21.934  0.00  0.00    +0.050 C 
ATOM     17  C   UNL     1      32.672  -9.415 -22.352  0.00  0.00    +0.019 C 
ATOM     18  C   UNL     1      32.311 -10.397 -21.454  0.00  0.00    +0.057 C 
ATOM     19  C   UNL     1      32.282  -7.767 -20.628  0.00  0.00    +0.044 C 
ATOM     20  C   UNL     1      31.938 -10.111 -20.158  0.00  0.00    +0.034 C 
ATOM     21  C   UNL     1      31.922  -8.781 -19.740  0.00  0.00    +0.142 C 
BRANCH  16  23
ATOM     22  O   UNL     1      33.718  -4.846 -24.399  0.00  0.00    -0.350 OA
ATOM     23  N   UNL     1      33.019  -7.067 -22.824  0.00  0.00    -0.303 N 
ATOM     24  C   UNL     1      34.414  -6.619 -22.895  0.00  0.00    +0.123 C 
ATOM     25  C   UNL     1      32.017  -6.044 -23.152  0.00  0.00    +0.123 C 
ATOM     26  C   UNL     1      34.659  -5.905 -24.219  0.00  0.00    +0.164 C 
ATOM     27  C   UNL     1      32.388  -5.362 -24.464  0.00  0.00    +0.164 C 
ENDBRANCH  16  23
ENDBRANCH  13  18
ENDBRANCH   7  12
BRANCH   2  28
ATOM     28  C   UNL     1      35.534 -17.202 -21.109  0.00  0.00    +0.032 C 
BRANCH  28  29
ATOM     29  C   UNL     1      36.362 -18.496 -20.942  0.00  0.00    +0.031 C 
BRANCH  29  31
ATOM     30  N   UNL     1      34.143 -21.704 -19.167  0.00  0.00    -0.242 NA
ATOM     31  C   UNL     1      35.581 -19.625 -20.317  0.00  0.00    -0.019 C 
ATOM     32  C   UNL     1      34.209 -19.669 -20.471  0.00  0.00    +0.016 C 
ATOM     33  C   UNL     1      36.249 -20.598 -19.599  0.00  0.00    +0.016 C 
ATOM     34  C   UNL     1      33.538 -20.727 -19.878  0.00  0.00    +0.099 C 
ATOM     35  C   UNL     1      35.487 -21.614 -19.045  0.00  0.00    +0.099 C 
ENDBRANCH  29  31
ENDBRANCH  28  29
ENDBRANCH   2  28
TORSDOF 6
ENDMDL
MODEL 3
REMARK VINA RESULT:     -11.3      3.178     10.274
REMARK  Name = 5326868
REMARK  6 active torsions:
REMARK  status: ('A' for Active; 'I' for Inactive)
REMARK    1  A    between atoms: C_2  and  C_28
REMARK    2  A    between atoms: C_7  and  N_12
REMARK    3  A    between atoms: C_13  and  C_18
REMARK    4  A    between atoms: C_16  and  N_23
REMARK    5  A    between atoms: C_28  and  C_29
REMARK    6  A    between atoms: C_29  and  C_31
REMARK                            x       y       z     vdW  Elec       q    Type
REMARK                         _______ _______ _______ _____ _____    ______ ____
ROOT
ATOM      1  N   UNL     1      36.029 -23.162 -15.366  0.00  0.00    -0.312 N 
ATOM      2  C   UNL     1      33.937 -23.235 -16.105  0.00  0.00    -0.006 C 
ATOM      3  C   UNL     1      34.707 -22.471 -17.025  0.00  0.00    +0.012 C 
ATOM      4  C   UNL     1      36.015 -22.440 -16.538  0.00  0.00    +0.048 C 
ATOM      5  C   UNL     1      34.777 -23.646 -15.096  0.00  0.00    +0.058 C 
ATOM      6  C   UNL     1      34.416 -21.799 -18.229  0.00  0.00    +0.016 C 
ATOM      7  C   UNL     1      35.442 -21.125 -18.900  0.00  0.00    +0.051 C 
ATOM      8  C   UNL     1      37.052 -21.769 -17.198  0.00  0.00    +0.016 C 
ATOM      9  C   UNL     1      36.739 -21.111 -18.391  0.00  0.00    +0.016 C 
ATOM     10  H   UNL     1      36.823 -23.308 -14.804  0.00  0.00    +0.152 HD
ENDROOT
BRANCH   7  12
ATOM     11  O   UNL     1      36.755 -18.728 -20.132  0.00  0.00    -0.270 OA
ATOM     12  N   UNL     1      35.161 -20.456 -20.094  0.00  0.00    -0.280 N 
ATOM     13  C   UNL     1      35.810 -19.334 -20.625  0.00  0.00    +0.250 C 
ATOM     14  H   UNL     1      34.416 -20.817 -20.626  0.00  0.00    +0.155 HD
BRANCH  13  18
ATOM     15  F   UNL     1      34.261 -20.110 -25.140  0.00  0.00    -0.204 F 
ATOM     16  C   UNL     1      34.482 -17.010 -23.248  0.00  0.00    +0.050 C 
ATOM     17  C   UNL     1      35.001 -17.482 -22.041  0.00  0.00    +0.019 C 
ATOM     18  C   UNL     1      35.258 -18.830 -21.911  0.00  0.00    +0.057 C 
ATOM     19  C   UNL     1      34.232 -17.898 -24.294  0.00  0.00    +0.044 C 
ATOM     20  C   UNL     1      35.020 -19.729 -22.929  0.00  0.00    +0.034 C 
ATOM     21  C   UNL     1      34.502 -19.258 -24.135  0.00  0.00    +0.142 C 
BRANCH  16  23
ATOM     22  O   UNL     1      33.941 -12.868 -23.731  0.00  0.00    -0.350 OA
ATOM     23  N   UNL     1      34.211 -15.647 -23.408  0.00  0.00    -0.303 N 
ATOM     24  C   UNL     1      34.200 -15.056 -24.750  0.00  0.00    +0.123 C 
ATOM     25  C   UNL     1      34.596 -14.732 -22.324  0.00  0.00    +0.123 C 
ATOM     26  C   UNL     1      33.420 -13.746 -24.729  0.00  0.00    +0.164 C 
ATOM     27  C   UNL     1      33.793 -13.441 -22.432  0.00  0.00    +0.164 C 
ENDBRANCH  16  23
ENDBRANCH  13  18
ENDBRANCH   7  12
BRANCH   2  28
ATOM     28  C   UNL     1      32.495 -23.538 -16.205  0.00  0.00    +0.032 C 
BRANCH  28  29
ATOM     29  C   UNL     1      31.662 -23.104 -14.978  0.00  0.00    +0.031 C 
BRANCH  29  31
ATOM     30  N   UNL     1      27.434 -23.299 -15.651  0.00  0.00    -0.242 NA
ATOM     31  C   UNL     1      30.174 -23.173 -15.215  0.00  0.00    -0.019 C 
ATOM     32  C   UNL     1      29.352 -22.211 -14.661  0.00  0.00    +0.016 C 
ATOM     33  C   UNL     1      29.654 -24.197 -15.982  0.00  0.00    +0.016 C 
ATOM     34  C   UNL     1      27.993 -22.318 -14.908  0.00  0.00    +0.099 C 
ATOM     35  C   UNL     1      28.281 -24.216 -16.171  0.00  0.00    +0.099 C 
ENDBRANCH  29  31
ENDBRANCH  28  29
ENDBRANCH   2  28
TORSDOF 6
ENDMDL
MODEL 4
REMARK VINA RESULT:     -11.2      4.406      6.987
REMARK  Name = 5326868
REMARK  6 active torsions:
REMARK  status: ('A' for Active; 'I' for Inactive)
REMARK    1  A    between atoms: C_2  and  C_28
REMARK    2  A    between atoms: C_7  and  N_12
REMARK    3  A    between atoms: C_13  and  C_18
REMARK    4  A    between atoms: C_16  and  N_23
REMARK    5  A    between atoms: C_28  and  C_29
REMARK    6  A    between atoms: C_29  and  C_31
REMARK                            x       y       z     vdW  Elec       q    Type
REMARK                         _______ _______ _______ _____ _____    ______ ____
ROOT
ATOM      1  N   UNL     1      32.325 -20.886 -19.605  0.00  0.00    -0.312 N 
ATOM      2  C   UNL     1      34.483 -20.508 -19.966  0.00  0.00    -0.006 C 
ATOM      3  C   UNL     1      34.363 -21.349 -18.824  0.00  0.00    +0.012 C 
ATOM      4  C   UNL     1      33.000 -21.569 -18.618  0.00  0.00    +0.048 C 
ATOM      5  C   UNL     1      33.213 -20.241 -20.424  0.00  0.00    +0.058 C 
ATOM      6  C   UNL     1      35.288 -21.942 -17.941  0.00  0.00    +0.016 C 
ATOM      7  C   UNL     1      34.814 -22.735 -16.889  0.00  0.00    +0.051 C 
ATOM      8  C   UNL     1      32.512 -22.359 -17.571  0.00  0.00    +0.016 C 
ATOM      9  C   UNL     1      33.448 -22.940 -16.709  0.00  0.00    +0.016 C 
ATOM     10  H   UNL     1      31.347 -20.864 -19.706  0.00  0.00    +0.152 HD
ENDROOT
BRANCH   7  12
ATOM     11  O   UNL     1      34.652 -23.147 -13.924  0.00  0.00    -0.270 OA
ATOM     12  N   UNL     1      35.724 -23.327 -16.010  0.00  0.00    -0.280 N 
ATOM     13  C   UNL     1      35.597 -23.494 -14.625  0.00  0.00    +0.250 C 
ATOM     14  H   UNL     1      36.554 -23.667 -16.412  0.00  0.00    +0.155 HD
BRANCH  13  18
ATOM     15  F   UNL     1      38.878 -23.626 -11.075  0.00  0.00    -0.204 F 
ATOM     16  C   UNL     1      38.359 -25.908 -13.860  0.00  0.00    +0.050 C 
ATOM     17  C   UNL     1      37.273 -25.301 -14.492  0.00  0.00    +0.019 C 
ATOM     18  C   UNL     1      36.756 -24.141 -13.954  0.00  0.00    +0.057 C 
ATOM     19  C   UNL     1      38.901 -25.342 -12.706  0.00  0.00    +0.044 C 
ATOM     20  C   UNL     1      37.272 -23.562 -12.814  0.00  0.00    +0.034 C 
ATOM     21  C   UNL     1      38.358 -24.168 -12.183  0.00  0.00    +0.142 C 
BRANCH  16  23
ATOM     22  O   UNL     1      40.212 -29.413 -15.263  0.00  0.00    -0.350 OA
ATOM     23  N   UNL     1      38.904 -27.086 -14.384  0.00  0.00    -0.303 N 
ATOM     24  C   UNL     1      38.690 -28.361 -13.691  0.00  0.00    +0.123 C 
ATOM     25  C   UNL     1      40.155 -26.991 -15.148  0.00  0.00    +0.123 C 
ATOM     26  C   UNL     1      38.923 -29.517 -14.659  0.00  0.00    +0.164 C 
ATOM     27  C   UNL     1      40.308 -28.219 -16.039  0.00  0.00    +0.164 C 
ENDBRANCH  16  23
ENDBRANCH  13  18
ENDBRANCH   7  12
BRANCH   2  28
ATOM     28  C   UNL     1      35.738 -20.008 -20.561  0.00  0.00    +0.032 C 
BRANCH  28  29
ATOM     29  C   UNL     1      35.765 -18.484 -20.813  0.00  0.00    +0.031 C 
BRANCH  29  31
ATOM     30  N   UNL     1      34.276 -17.381 -24.678  0.00  0.00    -0.242 NA
ATOM     31  C   UNL     1      35.240 -18.096 -22.173  0.00  0.00    -0.019 C 
ATOM     32  C   UNL     1      35.249 -16.767 -22.551  0.00  0.00    +0.016 C 
ATOM     33  C   UNL     1      34.760 -19.074 -23.021  0.00  0.00    +0.016 C 
ATOM     34  C   UNL     1      34.757 -16.462 -23.810  0.00  0.00    +0.099 C 
ATOM     35  C   UNL     1      34.290 -18.666 -24.260  0.00  0.00    +0.099 C 
ENDBRANCH  29  31
ENDBRANCH  28  29
ENDBRANCH   2  28
TORSDOF 6
ENDMDL
MODEL 5
REMARK VINA RESULT:     -11.0      5.090     12.212
REMARK  Name = 5326868
REMARK  6 active torsions:
REMARK  status: ('A' for Active; 'I' for Inactive)
REMARK    1  A    between atoms: C_2  and  C_28
REMARK    2  A    between atoms: C_7  and  N_12
REMARK    3  A    between atoms: C_13  and  C_18
REMARK    4  A    between atoms: C_16  and  N_23
REMARK    5  A    between atoms: C_28  and  C_29
REMARK    6  A    between atoms: C_29  and  C_31
REMARK                            x       y       z     vdW  Elec       q    Type
REMARK                         _______ _______ _______ _____ _____    ______ ____
ROOT
ATOM      1  N   UNL     1      34.851 -17.425 -24.562  0.00  0.00    -0.312 N 
ATOM      2  C   UNL     1      35.197 -17.171 -22.383  0.00  0.00    -0.006 C 
ATOM      3  C   UNL     1      34.580 -15.988 -22.877  0.00  0.00    +0.012 C 
ATOM      4  C   UNL     1      34.374 -16.173 -24.245  0.00  0.00    +0.048 C 
ATOM      5  C   UNL     1      35.351 -18.036 -23.443  0.00  0.00    +0.058 C 
ATOM      6  C   UNL     1      34.177 -14.772 -22.288  0.00  0.00    +0.016 C 
ATOM      7  C   UNL     1      33.582 -13.791 -23.088  0.00  0.00    +0.051 C 
ATOM      8  C   UNL     1      33.782 -15.199 -25.058  0.00  0.00    +0.016 C 
ATOM      9  C   UNL     1      33.388 -14.002 -24.452  0.00  0.00    +0.016 C 
ATOM     10  H   UNL     1      34.835 -17.822 -25.461  0.00  0.00    +0.152 HD
ENDROOT
BRANCH   7  12
ATOM     11  O   UNL     1      33.420 -11.040 -24.272  0.00  0.00    -0.270 OA
ATOM     12  N   UNL     1      33.180 -12.583 -22.513  0.00  0.00    -0.280 N 
ATOM     13  C   UNL     1      33.123 -11.320 -23.114  0.00  0.00    +0.250 C 
ATOM     14  H   UNL     1      32.904 -12.626 -21.570  0.00  0.00    +0.155 HD
BRANCH  13  18
ATOM     15  F   UNL     1      31.394  -9.745 -18.882  0.00  0.00    -0.204 F 
ATOM     16  C   UNL     1      32.300  -7.882 -21.873  0.00  0.00    +0.050 C 
ATOM     17  C   UNL     1      32.718  -8.920 -22.706  0.00  0.00    +0.019 C 
ATOM     18  C   UNL     1      32.677 -10.213 -22.228  0.00  0.00    +0.057 C 
ATOM     19  C   UNL     1      31.853  -8.161 -20.581  0.00  0.00    +0.044 C 
ATOM     20  C   UNL     1      32.240 -10.515 -20.955  0.00  0.00    +0.034 C 
ATOM     21  C   UNL     1      31.822  -9.478 -20.122  0.00  0.00    +0.142 C 
BRANCH  16  23
ATOM     22  O   UNL     1      32.213  -3.984 -23.449  0.00  0.00    -0.350 OA
ATOM     23  N   UNL     1      32.331  -6.561 -22.332  0.00  0.00    -0.303 N 
ATOM     24  C   UNL     1      31.309  -5.607 -21.886  0.00  0.00    +0.123 C 
ATOM     25  C   UNL     1      32.887  -6.304 -23.667  0.00  0.00    +0.123 C 
ATOM     26  C   UNL     1      31.810  -4.182 -22.094  0.00  0.00    +0.164 C 
ATOM     27  C   UNL     1      33.305  -4.842 -23.778  0.00  0.00    +0.164 C 
ENDBRANCH  16  23
ENDBRANCH  13  18
ENDBRANCH   7  12
BRANCH   2  28
ATOM     28  C   UNL     1      35.604 -17.435 -20.988  0.00  0.00    +0.032 C 
BRANCH  28  29
ATOM     29  C   UNL     1      36.366 -18.763 -20.783  0.00  0.00    +0.031 C 
BRANCH  29  31
ATOM     30  N   UNL     1      33.945 -21.850 -19.057  0.00  0.00    -0.242 NA
ATOM     31  C   UNL     1      35.513 -19.850 -20.176  0.00  0.00    -0.019 C 
ATOM     32  C   UNL     1      36.112 -20.842 -19.424  0.00  0.00    +0.016 C 
ATOM     33  C   UNL     1      34.147 -19.837 -20.380  0.00  0.00    +0.016 C 
ATOM     34  C   UNL     1      35.286 -21.817 -18.887  0.00  0.00    +0.099 C 
ATOM     35  C   UNL     1      33.409 -20.857 -19.801  0.00  0.00    +0.099 C 
ENDBRANCH  29  31
ENDBRANCH  28  29
ENDBRANCH   2  28
TORSDOF 6
ENDMDL
MODEL 6
REMARK VINA RESULT:     -10.2      4.830      9.294
REMARK  Name = 5326868
REMARK  6 active torsions:
REMARK  status: ('A' for Active; 'I' for Inactive)
REMARK    1  A    between atoms: C_2  and  C_28
REMARK    2  A    between atoms: C_7  and  N_12
REMARK    3  A    between atoms: C_13  and  C_18
REMARK    4  A    between atoms: C_16  and  N_23
REMARK    5  A    between atoms: C_28  and  C_29
REMARK    6  A    between atoms: C_29  and  C_31
REMARK                            x       y       z     vdW  Elec       q    Type
REMARK                         _______ _______ _______ _____ _____    ______ ____
ROOT
ATOM      1  N   UNL     1      29.375 -23.312 -14.908  0.00  0.00    -0.312 N 
ATOM      2  C   UNL     1      30.893 -22.640 -16.382  0.00  0.00    -0.006 C 
ATOM      3  C   UNL     1      31.567 -23.316 -15.326  0.00  0.00    +0.012 C 
ATOM      4  C   UNL     1      30.592 -23.727 -14.415  0.00  0.00    +0.048 C 
ATOM      5  C   UNL     1      29.548 -22.653 -16.096  0.00  0.00    +0.058 C 
ATOM      6  C   UNL     1      32.917 -23.617 -15.057  0.00  0.00    +0.016 C 
ATOM      7  C   UNL     1      33.240 -24.319 -13.890  0.00  0.00    +0.051 C 
ATOM      8  C   UNL     1      30.900 -24.428 -13.243  0.00  0.00    +0.016 C 
ATOM      9  C   UNL     1      32.246 -24.717 -12.998  0.00  0.00    +0.016 C 
ATOM     10  H   UNL     1      28.508 -23.465 -14.470  0.00  0.00    +0.152 HD
ENDROOT
BRANCH   7  12
ATOM     11  O   UNL     1      35.691 -23.975 -15.583  0.00  0.00    -0.270 OA
ATOM     12  N   UNL     1      34.576 -24.621 -13.616  0.00  0.00    -0.280 N 
ATOM     13  C   UNL     1      35.688 -24.439 -14.448  0.00  0.00    +0.250 C 
ATOM     14  H   UNL     1      34.757 -25.010 -12.730  0.00  0.00    +0.155 HD
BRANCH  13  18
ATOM     15  F   UNL     1      39.319 -23.912 -11.297  0.00  0.00    -0.204 F 
ATOM     16  C   UNL     1      38.810 -26.430 -13.874  0.00  0.00    +0.050 C 
ATOM     17  C   UNL     1      37.592 -26.009 -14.409  0.00  0.00    +0.019 C 
ATOM     18  C   UNL     1      36.987 -24.888 -13.880  0.00  0.00    +0.057 C 
ATOM     19  C   UNL     1      39.393 -25.721 -12.824  0.00  0.00    +0.044 C 
ATOM     20  C   UNL     1      37.541 -24.171 -12.841  0.00  0.00    +0.034 C 
ATOM     21  C   UNL     1      38.759 -24.591 -12.307  0.00  0.00    +0.142 C 
BRANCH  16  23
ATOM     22  O   UNL     1      40.480 -29.910 -15.541  0.00  0.00    -0.350 OA
ATOM     23  N   UNL     1      39.447 -27.563 -14.391  0.00  0.00    -0.303 N 
ATOM     24  C   UNL     1      39.967 -27.548 -15.763  0.00  0.00    +0.123 C 
ATOM     25  C   UNL     1      39.025 -28.881 -13.896  0.00  0.00    +0.123 C 
ATOM     26  C   UNL     1      41.014 -28.645 -15.927  0.00  0.00    +0.164 C 
ATOM     27  C   UNL     1      40.124 -29.905 -14.159  0.00  0.00    +0.164 C 
ENDBRANCH  16  23
ENDBRANCH  13  18
ENDBRANCH   7  12
BRANCH   2  28
ATOM     28  C   UNL     1      31.517 -22.030 -17.573  0.00  0.00    +0.032 C 
BRANCH  28  29
ATOM     29  C   UNL     1      32.933 -22.556 -17.896  0.00  0.00    +0.031 C 
BRANCH  29  31
ATOM     30  N   UNL     1      35.135 -19.985 -20.525  0.00  0.00    -0.242 NA
ATOM     31  C   UNL     1      33.708 -21.650 -18.821  0.00  0.00    -0.019 C 
ATOM     32  C   UNL     1      35.088 -21.708 -18.829  0.00  0.00    +0.016 C 
ATOM     33  C   UNL     1      33.027 -20.778 -19.647  0.00  0.00    +0.016 C 
ATOM     34  C   UNL     1      35.753 -20.857 -19.697  0.00  0.00    +0.099 C 
ATOM     35  C   UNL     1      33.784 -19.968 -20.478  0.00  0.00    +0.099 C 
ENDBRANCH  29  31
ENDBRANCH  28  29
ENDBRANCH   2  28
TORSDOF 6
ENDMDL
MODEL 7
REMARK VINA RESULT:     -10.0      7.785     15.251
REMARK  Name = 5326868
REMARK  6 active torsions:
REMARK  status: ('A' for Active; 'I' for Inactive)
REMARK    1  A    between atoms: C_2  and  C_28
REMARK    2  A    between atoms: C_7  and  N_12
REMARK    3  A    between atoms: C_13  and  C_18
REMARK    4  A    between atoms: C_16  and  N_23
REMARK    5  A    between atoms: C_28  and  C_29
REMARK    6  A    between atoms: C_29  and  C_31
REMARK                            x       y       z     vdW  Elec       q    Type
REMARK                         _______ _______ _______ _____ _____    ______ ____
ROOT
ATOM      1  N   UNL     1      31.885 -12.444 -19.929  0.00  0.00    -0.312 N 
ATOM      2  C   UNL     1      32.647 -12.712 -21.997  0.00  0.00    -0.006 C 
ATOM      3  C   UNL     1      32.476 -11.319 -21.762  0.00  0.00    +0.012 C 
ATOM      4  C   UNL     1      31.997 -11.178 -20.458  0.00  0.00    +0.048 C 
ATOM      5  C   UNL     1      32.276 -13.377 -20.851  0.00  0.00    +0.058 C 
ATOM      6  C   UNL     1      32.682 -10.160 -22.538  0.00  0.00    +0.016 C 
ATOM      7  C   UNL     1      32.404  -8.907 -21.981  0.00  0.00    +0.051 C 
ATOM      8  C   UNL     1      31.713  -9.931 -19.888  0.00  0.00    +0.016 C 
ATOM      9  C   UNL     1      31.927  -8.796 -20.676  0.00  0.00    +0.016 C 
ATOM     10  H   UNL     1      31.570 -12.648 -19.019  0.00  0.00    +0.152 HD
ENDROOT
BRANCH   7  12
ATOM     11  O   UNL     1      34.923  -7.392 -22.572  0.00  0.00    -0.270 OA
ATOM     12  N   UNL     1      32.605  -7.755 -22.743  0.00  0.00    -0.280 N 
ATOM     13  C   UNL     1      33.810  -7.084 -22.988  0.00  0.00    +0.250 C 
ATOM     14  H   UNL     1      31.802  -7.366 -23.159  0.00  0.00    +0.155 HD
BRANCH  13  18
ATOM     15  F   UNL     1      31.794  -2.788 -23.919  0.00  0.00    -0.204 F 
ATOM     16  C   UNL     1      34.412  -4.575 -25.705  0.00  0.00    +0.050 C 
ATOM     17  C   UNL     1      34.517  -5.726 -24.924  0.00  0.00    +0.019 C 
ATOM     18  C   UNL     1      33.698  -5.858 -23.822  0.00  0.00    +0.057 C 
ATOM     19  C   UNL     1      33.492  -3.583 -25.365  0.00  0.00    +0.044 C 
ATOM     20  C   UNL     1      32.781  -4.892 -23.464  0.00  0.00    +0.034 C 
ATOM     21  C   UNL     1      32.676  -3.741 -24.245  0.00  0.00    +0.142 C 
BRANCH  16  23
ATOM     22  O   UNL     1      36.849  -3.819 -29.048  0.00  0.00    -0.350 OA
ATOM     23  N   UNL     1      35.231  -4.414 -26.828  0.00  0.00    -0.303 N 
ATOM     24  C   UNL     1      36.673  -4.206 -26.658  0.00  0.00    +0.123 C 
ATOM     25  C   UNL     1      34.647  -3.802 -28.029  0.00  0.00    +0.123 C 
ATOM     26  C   UNL     1      37.399  -4.552 -27.954  0.00  0.00    +0.164 C 
ATOM     27  C   UNL     1      35.480  -4.172 -29.252  0.00  0.00    +0.164 C 
ENDBRANCH  16  23
ENDBRANCH  13  18
ENDBRANCH   7  12
BRANCH   2  28
ATOM     28  C   UNL     1      33.135 -13.341 -23.241  0.00  0.00    +0.032 C 
BRANCH  28  29
ATOM     29  C   UNL     1      34.570 -13.904 -23.154  0.00  0.00    +0.031 C 
BRANCH  29  31
ATOM     30  N   UNL     1      34.729 -18.178 -23.437  0.00  0.00    -0.242 NA
ATOM     31  C   UNL     1      34.626 -15.408 -23.254  0.00  0.00    -0.019 C 
ATOM     32  C   UNL     1      35.158 -16.139 -22.209  0.00  0.00    +0.016 C 
ATOM     33  C   UNL     1      34.146 -16.033 -24.388  0.00  0.00    +0.016 C 
ATOM     34  C   UNL     1      35.186 -17.518 -22.349  0.00  0.00    +0.099 C 
ATOM     35  C   UNL     1      34.219 -17.416 -24.431  0.00  0.00    +0.099 C 
ENDBRANCH  29  31
ENDBRANCH  28  29
ENDBRANCH   2  28
TORSDOF 6
ENDMDL
MODEL 8
REMARK VINA RESULT:     -10.0      3.265     10.914
REMARK  Name = 5326868
REMARK  6 active torsions:
REMARK  status: ('A' for Active; 'I' for Inactive)
REMARK    1  A    between atoms: C_2  and  C_28
REMARK    2  A    between atoms: C_7  and  N_12
REMARK    3  A    between atoms: C_13  and  C_18
REMARK    4  A    between atoms: C_16  and  N_23
REMARK    5  A    between atoms: C_28  and  C_29
REMARK    6  A    between atoms: C_29  and  C_31
REMARK                            x       y       z     vdW  Elec       q    Type
REMARK                         _______ _______ _______ _____ _____    ______ ____
ROOT
ATOM      1  N   UNL     1      30.486 -24.665 -13.939  0.00  0.00    -0.312 N 
ATOM      2  C   UNL     1      32.616 -24.377 -13.385  0.00  0.00    -0.006 C 
ATOM      3  C   UNL     1      32.391 -23.739 -14.637  0.00  0.00    +0.012 C 
ATOM      4  C   UNL     1      31.048 -23.935 -14.962  0.00  0.00    +0.048 C 
ATOM      5  C   UNL     1      31.426 -24.937 -12.981  0.00  0.00    +0.058 C 
ATOM      6  C   UNL     1      33.206 -23.013 -15.528  0.00  0.00    +0.016 C 
ATOM      7  C   UNL     1      32.647 -22.509 -16.708  0.00  0.00    +0.051 C 
ATOM      8  C   UNL     1      30.475 -23.438 -16.138  0.00  0.00    +0.016 C 
ATOM      9  C   UNL     1      31.302 -22.719 -17.007  0.00  0.00    +0.016 C 
ATOM     10  H   UNL     1      29.545 -24.950 -13.902  0.00  0.00    +0.152 HD
ENDROOT
BRANCH   7  12
ATOM     11  O   UNL     1      32.324 -22.025 -19.649  0.00  0.00    -0.270 OA
ATOM     12  N   UNL     1      33.448 -21.788 -17.597  0.00  0.00    -0.280 N 
ATOM     13  C   UNL     1      33.249 -21.593 -18.970  0.00  0.00    +0.250 C 
ATOM     14  H   UNL     1      34.249 -21.367 -17.212  0.00  0.00    +0.155 HD
BRANCH  13  18
ATOM     15  F   UNL     1      37.823 -20.064 -19.328  0.00  0.00    -0.204 F 
ATOM     16  C   UNL     1      34.942 -19.322 -21.422  0.00  0.00    +0.050 C 
ATOM     17  C   UNL     1      33.956 -20.069 -20.777  0.00  0.00    +0.019 C 
ATOM     18  C   UNL     1      34.299 -20.795 -19.657  0.00  0.00    +0.057 C 
ATOM     19  C   UNL     1      36.248 -19.320 -20.933  0.00  0.00    +0.044 C 
ATOM     20  C   UNL     1      35.583 -20.811 -19.153  0.00  0.00    +0.034 C 
ATOM     21  C   UNL     1      36.568 -20.065 -19.797  0.00  0.00    +0.142 C 
BRANCH  16  23
ATOM     22  O   UNL     1      34.237 -17.123 -24.937  0.00  0.00    -0.350 OA
ATOM     23  N   UNL     1      34.621 -18.576 -22.562  0.00  0.00    -0.303 N 
ATOM     24  C   UNL     1      34.187 -19.259 -23.785  0.00  0.00    +0.123 C 
ATOM     25  C   UNL     1      35.316 -17.298 -22.772  0.00  0.00    +0.123 C 
ATOM     26  C   UNL     1      33.439 -18.279 -24.684  0.00  0.00    +0.164 C 
ATOM     27  C   UNL     1      34.507 -16.423 -23.722  0.00  0.00    +0.164 C 
ENDBRANCH  16  23
ENDBRANCH  13  18
ENDBRANCH   7  12
BRANCH   2  28
ATOM     28  C   UNL     1      33.892 -24.433 -12.643  0.00  0.00    +0.032 C 
BRANCH  28  29
ATOM     29  C   UNL     1      35.147 -24.556 -13.535  0.00  0.00    +0.031 C 
BRANCH  29  31
ATOM     30  N   UNL     1      38.788 -23.651 -11.463  0.00  0.00    -0.242 NA
ATOM     31  C   UNL     1      36.428 -24.237 -12.807  0.00  0.00    -0.019 C 
ATOM     32  C   UNL     1      36.473 -23.152 -11.953  0.00  0.00    +0.016 C 
ATOM     33  C   UNL     1      37.539 -25.035 -13.003  0.00  0.00    +0.016 C 
ATOM     34  C   UNL     1      37.673 -22.902 -11.307  0.00  0.00    +0.099 C 
ATOM     35  C   UNL     1      38.692 -24.701 -12.310  0.00  0.00    +0.099 C 
ENDBRANCH  29  31
ENDBRANCH  28  29
ENDBRANCH   2  28
TORSDOF 6
ENDMDL
MODEL 9
REMARK VINA RESULT:      -9.6      2.179      3.186
REMARK  Name = 5326868
REMARK  6 active torsions:
REMARK  status: ('A' for Active; 'I' for Inactive)
REMARK    1  A    between atoms: C_2  and  C_28
REMARK    2  A    between atoms: C_7  and  N_12
REMARK    3  A    between atoms: C_13  and  C_18
REMARK    4  A    between atoms: C_16  and  N_23
REMARK    5  A    between atoms: C_28  and  C_29
REMARK    6  A    between atoms: C_29  and  C_31
REMARK                            x       y       z     vdW  Elec       q    Type
REMARK                         _______ _______ _______ _____ _____    ______ ____
ROOT
ATOM      1  N   UNL     1      35.271 -17.027 -24.286  0.00  0.00    -0.312 N 
ATOM      2  C   UNL     1      34.772 -15.976 -22.395  0.00  0.00    -0.006 C 
ATOM      3  C   UNL     1      34.795 -17.376 -22.135  0.00  0.00    +0.012 C 
ATOM      4  C   UNL     1      35.110 -18.011 -23.337  0.00  0.00    +0.048 C 
ATOM      5  C   UNL     1      35.069 -15.794 -23.726  0.00  0.00    +0.058 C 
ATOM      6  C   UNL     1      34.575 -18.165 -20.988  0.00  0.00    +0.016 C 
ATOM      7  C   UNL     1      34.680 -19.556 -21.086  0.00  0.00    +0.051 C 
ATOM      8  C   UNL     1      35.218 -19.402 -23.451  0.00  0.00    +0.016 C 
ATOM      9  C   UNL     1      34.997 -20.164 -22.300  0.00  0.00    +0.016 C 
ATOM     10  H   UNL     1      35.499 -17.186 -25.230  0.00  0.00    +0.152 HD
ENDROOT
BRANCH   7  12
ATOM     11  O   UNL     1      32.250 -21.090 -20.230  0.00  0.00    -0.270 OA
ATOM     12  N   UNL     1      34.464 -20.345 -19.954  0.00  0.00    -0.280 N 
ATOM     13  C   UNL     1      33.302 -21.043 -19.601  0.00  0.00    +0.250 C 
ATOM     14  H   UNL     1      35.220 -20.419 -19.329  0.00  0.00    +0.155 HD
BRANCH  13  18
ATOM     15  F   UNL     1      31.127 -23.276 -15.904  0.00  0.00    -0.204 F 
ATOM     16  C   UNL     1      34.666 -22.724 -16.543  0.00  0.00    +0.050 C 
ATOM     17  C   UNL     1      34.605 -22.034 -17.753  0.00  0.00    +0.019 C 
ATOM     18  C   UNL     1      33.369 -21.778 -18.310  0.00  0.00    +0.057 C 
ATOM     19  C   UNL     1      33.492 -23.144 -15.918  0.00  0.00    +0.044 C 
ATOM     20  C   UNL     1      32.193 -22.182 -17.713  0.00  0.00    +0.034 C 
ATOM     21  C   UNL     1      32.255 -22.872 -16.504  0.00  0.00    +0.142 C 
BRANCH  16  23
ATOM     22  O   UNL     1      38.345 -23.340 -14.599  0.00  0.00    -0.350 OA
ATOM     23  N   UNL     1      35.907 -22.998 -15.956  0.00  0.00    -0.303 N 
ATOM     24  C   UNL     1      35.982 -23.865 -14.775  0.00  0.00    +0.123 C 
ATOM     25  C   UNL     1      36.958 -21.975 -16.048  0.00  0.00    +0.123 C 
ATOM     26  C   UNL     1      37.399 -24.408 -14.625  0.00  0.00    +0.164 C 
ATOM     27  C   UNL     1      38.323 -22.620 -15.833  0.00  0.00    +0.164 C 
ENDBRANCH  16  23
ENDBRANCH  13  18
ENDBRANCH   7  12
BRANCH   2  28
ATOM     28  C   UNL     1      34.484 -14.906 -21.419  0.00  0.00    +0.032 C 
BRANCH  28  29
ATOM     29  C   UNL     1      34.520 -13.478 -22.006  0.00  0.00    +0.031 C 
BRANCH  29  31
ATOM     30  N   UNL     1      31.115 -11.114 -20.915  0.00  0.00    -0.242 NA
ATOM     31  C   UNL     1      33.321 -12.646 -21.622  0.00  0.00    -0.019 C 
ATOM     32  C   UNL     1      32.953 -11.577 -22.416  0.00  0.00    +0.016 C 
ATOM     33  C   UNL     1      32.610 -12.964 -20.482  0.00  0.00    +0.016 C 
ATOM     34  C   UNL     1      31.846 -10.845 -22.021  0.00  0.00    +0.099 C 
ATOM     35  C   UNL     1      31.517 -12.170 -20.172  0.00  0.00    +0.099 C 
ENDBRANCH  29  31
ENDBRANCH  28  29
ENDBRANCH   2  28
TORSDOF 6
ENDMDL
