MODEL 1
REMARK VINA RESULT:     -11.7      0.000      0.000
REMARK  Name = 9799284
REMARK  5 active torsions:
REMARK  status: ('A' for Active; 'I' for Inactive)
REMARK    1  A    between atoms: N_1  and  C_19
REMARK    2  A    between atoms: C_2  and  C_8
REMARK    3  A    between atoms: C_8  and  N_10
REMARK    4  A    between atoms: C_19  and  C_21
REMARK    5  A    between atoms: C_21  and  C_23
REMARK                            x       y       z     vdW  Elec       q    Type
REMARK                         _______ _______ _______ _____ _____    ______ ____
ROOT
ATOM      1  N   UNL     1      34.028 -13.612 -23.043  0.00  0.00    +0.392 N 
ATOM      2  C   UNL     1      34.607 -16.482 -22.896  0.00  0.00    +0.016 C 
ATOM      3  C   UNL     1      34.429 -15.746 -24.228  0.00  0.00    -0.021 C 
ATOM      4  C   UNL     1      35.061 -15.495 -21.815  0.00  0.00    -0.021 C 
ATOM      5  C   UNL     1      33.518 -14.527 -24.073  0.00  0.00    -0.077 C 
ATOM      6  C   UNL     1      34.129 -14.284 -21.740  0.00  0.00    -0.077 C 
ATOM      7  H   UNL     1      34.965 -13.318 -23.319  0.00  0.00    -0.079 HD
ENDROOT
BRANCH   2   8
ATOM      8  C   UNL     1      35.594 -17.638 -23.034  0.00  0.00    +0.094 C 
BRANCH   8  10
ATOM      9  O   UNL     1      37.607 -18.851 -21.139  0.00  0.00    -0.270 OA
ATOM     10  N   UNL     1      35.412 -18.597 -21.986  0.00  0.00    -0.272 N 
ATOM     11  C   UNL     1      34.096 -19.161 -21.672  0.00  0.00    +0.121 C 
ATOM     12  C   UNL     1      36.417 -19.103 -21.153  0.00  0.00    +0.249 C 
ATOM     13  C   UNL     1      34.403 -20.082 -20.541  0.00  0.00    +0.002 C 
ATOM     14  C   UNL     1      35.764 -20.046 -20.238  0.00  0.00    +0.051 C 
ATOM     15  C   UNL     1      33.550 -20.898 -19.822  0.00  0.00    -0.002 C 
ATOM     16  C   UNL     1      36.324 -20.805 -19.229  0.00  0.00    +0.004 C 
ATOM     17  C   UNL     1      34.091 -21.677 -18.795  0.00  0.00    -0.000 C 
ATOM     18  C   UNL     1      35.466 -21.630 -18.500  0.00  0.00    +0.000 C 
ENDBRANCH   8  10
ENDBRANCH   2   8
BRANCH   1  19
ATOM     19  C   UNL     1      33.176 -12.428 -22.943  0.00  0.00    -0.006 C 
BRANCH  19  21
ATOM     20  O   UNL     1      34.219 -11.559 -24.938  0.00  0.00    -0.294 OA
ATOM     21  C   UNL     1      33.742 -11.333 -23.829  0.00  0.00    +0.152 C 
BRANCH  21  23
ATOM     22  F   UNL     1      33.641  -6.078 -21.944  0.00  0.00    -0.204 F 
ATOM     23  C   UNL     1      33.715  -9.927 -23.325  0.00  0.00    +0.033 C 
ATOM     24  C   UNL     1      32.677  -9.540 -22.509  0.00  0.00    +0.005 C 
ATOM     25  C   UNL     1      34.728  -9.074 -23.696  0.00  0.00    +0.005 C 
ATOM     26  C   UNL     1      32.652  -8.227 -22.037  0.00  0.00    +0.030 C 
ATOM     27  C   UNL     1      34.704  -7.762 -23.225  0.00  0.00    +0.030 C 
ATOM     28  C   UNL     1      33.666  -7.338 -22.396  0.00  0.00    +0.140 C 
ENDBRANCH  21  23
ENDBRANCH  19  21
ENDBRANCH   1  19
TORSDOF 5
ENDMDL
MODEL 2
REMARK VINA RESULT:     -11.4      3.724     10.074
REMARK  Name = 9799284
REMARK  5 active torsions:
REMARK  status: ('A' for Active; 'I' for Inactive)
REMARK    1  A    between atoms: N_1  and  C_19
REMARK    2  A    between atoms: C_2  and  C_8
REMARK    3  A    between atoms: C_8  and  N_10
REMARK    4  A    between atoms: C_19  and  C_21
REMARK    5  A    between atoms: C_21  and  C_23
REMARK                            x       y       z     vdW  Elec       q    Type
REMARK                         _______ _______ _______ _____ _____    ______ ____
ROOT
ATOM      1  N   UNL     1      34.189 -14.966 -22.705  0.00  0.00    +0.392 N 
ATOM      2  C   UNL     1      32.853 -12.597 -21.610  0.00  0.00    +0.016 C 
ATOM      3  C   UNL     1      32.657 -13.056 -23.059  0.00  0.00    -0.021 C 
ATOM      4  C   UNL     1      33.255 -13.791 -20.738  0.00  0.00    -0.021 C 
ATOM      5  C   UNL     1      33.879 -13.820 -23.571  0.00  0.00    -0.077 C 
ATOM      6  C   UNL     1      34.457 -14.531 -21.327  0.00  0.00    -0.077 C 
ATOM      7  H   UNL     1      33.374 -15.578 -22.689  0.00  0.00    -0.079 HD
ENDROOT
BRANCH   2   8
ATOM      8  C   UNL     1      31.594 -11.923 -21.072  0.00  0.00    +0.094 C 
BRANCH   8  10
ATOM      9  O   UNL     1      31.910 -10.139 -18.657  0.00  0.00    -0.270 OA
ATOM     10  N   UNL     1      31.765 -10.504 -20.991  0.00  0.00    -0.272 N 
ATOM     11  C   UNL     1      31.816  -9.659 -22.188  0.00  0.00    +0.121 C 
ATOM     12  C   UNL     1      31.905  -9.759 -19.814  0.00  0.00    +0.249 C 
ATOM     13  C   UNL     1      32.004  -8.297 -21.614  0.00  0.00    +0.002 C 
ATOM     14  C   UNL     1      32.056  -8.359 -20.221  0.00  0.00    +0.051 C 
ATOM     15  C   UNL     1      32.122  -7.083 -22.264  0.00  0.00    -0.002 C 
ATOM     16  C   UNL     1      32.224  -7.238 -19.431  0.00  0.00    +0.004 C 
ATOM     17  C   UNL     1      32.294  -5.933 -21.487  0.00  0.00    -0.000 C 
ATOM     18  C   UNL     1      32.344  -6.010 -20.083  0.00  0.00    +0.000 C 
ENDBRANCH   8  10
ENDBRANCH   2   8
BRANCH   1  19
ATOM     19  C   UNL     1      35.327 -15.716 -23.236  0.00  0.00    -0.006 C 
BRANCH  19  21
ATOM     20  O   UNL     1      34.345 -17.556 -24.450  0.00  0.00    -0.294 OA
ATOM     21  C   UNL     1      34.917 -17.164 -23.436  0.00  0.00    +0.152 C 
BRANCH  21  23
ATOM     22  F   UNL     1      36.067 -20.830 -19.385  0.00  0.00    -0.204 F 
ATOM     23  C   UNL     1      35.225 -18.145 -22.353  0.00  0.00    +0.033 C 
ATOM     24  C   UNL     1      36.437 -18.054 -21.707  0.00  0.00    +0.005 C 
ATOM     25  C   UNL     1      34.285 -19.100 -22.043  0.00  0.00    +0.005 C 
ATOM     26  C   UNL     1      36.724 -18.969 -20.694  0.00  0.00    +0.030 C 
ATOM     27  C   UNL     1      34.572 -20.016 -21.031  0.00  0.00    +0.030 C 
ATOM     28  C   UNL     1      35.791 -19.951 -20.357  0.00  0.00    +0.140 C 
ENDBRANCH  21  23
ENDBRANCH  19  21
ENDBRANCH   1  19
TORSDOF 5
ENDMDL
MODEL 3
REMARK VINA RESULT:     -11.3      4.618     10.745
REMARK  Name = 9799284
REMARK  5 active torsions:
REMARK  status: ('A' for Active; 'I' for Inactive)
REMARK    1  A    between atoms: N_1  and  C_19
REMARK    2  A    between atoms: C_2  and  C_8
REMARK    3  A    between atoms: C_8  and  N_10
REMARK    4  A    between atoms: C_19  and  C_21
REMARK    5  A    between atoms: C_21  and  C_23
REMARK                            x       y       z     vdW  Elec       q    Type
REMARK                         _______ _______ _______ _____ _____    ______ ____
ROOT
ATOM      1  N   UNL     1      35.300 -21.236 -19.466  0.00  0.00    +0.392 N 
ATOM      2  C   UNL     1      35.329 -19.009 -21.372  0.00  0.00    +0.016 C 
ATOM      3  C   UNL     1      36.604 -19.749 -20.953  0.00  0.00    -0.021 C 
ATOM      4  C   UNL     1      34.115 -19.929 -21.201  0.00  0.00    -0.021 C 
ATOM      5  C   UNL     1      36.465 -20.345 -19.551  0.00  0.00    -0.077 C 
ATOM      6  C   UNL     1      34.059 -20.519 -19.790  0.00  0.00    -0.077 C 
ATOM      7  H   UNL     1      35.422 -21.980 -20.153  0.00  0.00    -0.079 HD
ENDROOT
BRANCH   2   8
ATOM      8  C   UNL     1      35.435 -18.503 -22.809  0.00  0.00    +0.094 C 
BRANCH   8  10
ATOM      9  O   UNL     1      34.158 -17.037 -25.119  0.00  0.00    -0.270 OA
ATOM     10  N   UNL     1      34.995 -17.144 -22.908  0.00  0.00    -0.272 N 
ATOM     11  C   UNL     1      35.121 -16.204 -21.789  0.00  0.00    +0.121 C 
ATOM     12  C   UNL     1      34.409 -16.550 -24.032  0.00  0.00    +0.249 C 
ATOM     13  C   UNL     1      34.542 -14.953 -22.353  0.00  0.00    +0.002 C 
ATOM     14  C   UNL     1      34.125 -15.158 -23.669  0.00  0.00    +0.051 C 
ATOM     15  C   UNL     1      34.388 -13.715 -21.758  0.00  0.00    -0.002 C 
ATOM     16  C   UNL     1      33.549 -14.162 -24.433  0.00  0.00    +0.004 C 
ATOM     17  C   UNL     1      33.808 -12.688 -22.510  0.00  0.00    -0.000 C 
ATOM     18  C   UNL     1      33.392 -12.910 -23.836  0.00  0.00    +0.000 C 
ENDBRANCH   8  10
ENDBRANCH   2   8
BRANCH   1  19
ATOM     19  C   UNL     1      35.211 -21.837 -18.136  0.00  0.00    -0.006 C 
BRANCH  19  21
ATOM     20  O   UNL     1      33.742 -23.505 -19.078  0.00  0.00    -0.294 OA
ATOM     21  C   UNL     1      34.048 -22.813 -18.109  0.00  0.00    +0.152 C 
BRANCH  21  23
ATOM     22  F   UNL     1      31.060 -23.261 -13.415  0.00  0.00    -0.204 F 
ATOM     23  C   UNL     1      33.249 -22.932 -16.853  0.00  0.00    +0.033 C 
ATOM     24  C   UNL     1      31.888 -22.736 -16.918  0.00  0.00    +0.005 C 
ATOM     25  C   UNL     1      33.904 -23.233 -15.682  0.00  0.00    +0.005 C 
ATOM     26  C   UNL     1      31.141 -22.849 -15.745  0.00  0.00    +0.030 C 
ATOM     27  C   UNL     1      33.158 -23.346 -14.510  0.00  0.00    +0.030 C 
ATOM     28  C   UNL     1      31.777 -23.154 -14.541  0.00  0.00    +0.140 C 
ENDBRANCH  21  23
ENDBRANCH  19  21
ENDBRANCH   1  19
TORSDOF 5
ENDMDL
MODEL 4
REMARK VINA RESULT:     -11.3      3.471     10.191
REMARK  Name = 9799284
REMARK  5 active torsions:
REMARK  status: ('A' for Active; 'I' for Inactive)
REMARK    1  A    between atoms: N_1  and  C_19
REMARK    2  A    between atoms: C_2  and  C_8
REMARK    3  A    between atoms: C_8  and  N_10
REMARK    4  A    between atoms: C_19  and  C_21
REMARK    5  A    between atoms: C_21  and  C_23
REMARK                            x       y       z     vdW  Elec       q    Type
REMARK                         _______ _______ _______ _____ _____    ______ ____
ROOT
ATOM      1  N   UNL     1      34.291 -15.644 -23.221  0.00  0.00    +0.392 N 
ATOM      2  C   UNL     1      33.424 -12.898 -22.674  0.00  0.00    +0.016 C 
ATOM      3  C   UNL     1      33.010 -13.654 -23.942  0.00  0.00    -0.021 C 
ATOM      4  C   UNL     1      33.746 -13.896 -21.557  0.00  0.00    -0.021 C 
ATOM      5  C   UNL     1      34.052 -14.706 -24.326  0.00  0.00    -0.077 C 
ATOM      6  C   UNL     1      34.763 -14.941 -22.021  0.00  0.00    -0.077 C 
ATOM      7  H   UNL     1      33.404 -16.095 -22.993  0.00  0.00    -0.079 HD
ENDROOT
BRANCH   2   8
ATOM      8  C   UNL     1      32.336 -11.920 -22.239  0.00  0.00    +0.094 C 
BRANCH   8  10
ATOM      9  O   UNL     1      31.455  -9.385 -20.856  0.00  0.00    -0.270 OA
ATOM     10  N   UNL     1      32.751 -10.565 -22.446  0.00  0.00    -0.272 N 
ATOM     11  C   UNL     1      33.755 -10.206 -23.452  0.00  0.00    +0.121 C 
ATOM     12  C   UNL     1      32.280  -9.446 -21.748  0.00  0.00    +0.249 C 
ATOM     13  C   UNL     1      33.853  -8.728 -23.296  0.00  0.00    +0.002 C 
ATOM     14  C   UNL     1      32.987  -8.284 -22.296  0.00  0.00    +0.051 C 
ATOM     15  C   UNL     1      34.646  -7.827 -23.982  0.00  0.00    -0.002 C 
ATOM     16  C   UNL     1      32.875  -6.954 -21.943  0.00  0.00    +0.004 C 
ATOM     17  C   UNL     1      34.552  -6.474 -23.644  0.00  0.00    -0.000 C 
ATOM     18  C   UNL     1      33.674  -6.041 -22.633  0.00  0.00    +0.000 C 
ENDBRANCH   8  10
ENDBRANCH   2   8
BRANCH   1  19
ATOM     19  C   UNL     1      35.249 -16.674 -23.621  0.00  0.00    -0.006 C 
BRANCH  19  21
ATOM     20  O   UNL     1      33.799 -18.571 -23.972  0.00  0.00    -0.294 OA
ATOM     21  C   UNL     1      34.675 -18.041 -23.293  0.00  0.00    +0.152 C 
BRANCH  21  23
ATOM     22  F   UNL     1      36.641 -20.739 -18.818  0.00  0.00    -0.204 F 
ATOM     23  C   UNL     1      35.201 -18.763 -22.097  0.00  0.00    +0.033 C 
ATOM     24  C   UNL     1      36.510 -18.557 -21.727  0.00  0.00    +0.005 C 
ATOM     25  C   UNL     1      34.356 -19.605 -21.411  0.00  0.00    +0.005 C 
ATOM     26  C   UNL     1      37.002 -19.231 -20.608  0.00  0.00    +0.030 C 
ATOM     27  C   UNL     1      34.846 -20.278 -20.293  0.00  0.00    +0.030 C 
ATOM     28  C   UNL     1      36.169 -20.092 -19.892  0.00  0.00    +0.140 C 
ENDBRANCH  21  23
ENDBRANCH  19  21
ENDBRANCH   1  19
TORSDOF 5
ENDMDL
MODEL 5
REMARK VINA RESULT:     -11.1      3.469     10.147
REMARK  Name = 9799284
REMARK  5 active torsions:
REMARK  status: ('A' for Active; 'I' for Inactive)
REMARK    1  A    between atoms: N_1  and  C_19
REMARK    2  A    between atoms: C_2  and  C_8
REMARK    3  A    between atoms: C_8  and  N_10
REMARK    4  A    between atoms: C_19  and  C_21
REMARK    5  A    between atoms: C_21  and  C_23
REMARK                            x       y       z     vdW  Elec       q    Type
REMARK                         _______ _______ _______ _____ _____    ______ ____
ROOT
ATOM      1  N   UNL     1      34.689 -16.223 -22.362  0.00  0.00    +0.392 N 
ATOM      2  C   UNL     1      34.032 -13.601 -23.496  0.00  0.00    +0.016 C 
ATOM      3  C   UNL     1      34.121 -14.868 -24.353  0.00  0.00    -0.021 C 
ATOM      4  C   UNL     1      33.702 -13.977 -22.047  0.00  0.00    -0.021 C 
ATOM      5  C   UNL     1      35.081 -15.889 -23.738  0.00  0.00    -0.077 C 
ATOM      6  C   UNL     1      34.675 -15.027 -21.509  0.00  0.00    -0.077 C 
ATOM      7  H   UNL     1      33.742 -16.602 -22.387  0.00  0.00    -0.079 HD
ENDROOT
BRANCH   2   8
ATOM      8  C   UNL     1      32.999 -12.628 -24.059  0.00  0.00    +0.094 C 
BRANCH   8  10
ATOM      9  O   UNL     1      35.017 -10.608 -25.040  0.00  0.00    -0.270 OA
ATOM     10  N   UNL     1      33.256 -11.292 -23.614  0.00  0.00    -0.272 N 
ATOM     11  C   UNL     1      32.496 -10.679 -22.521  0.00  0.00    +0.121 C 
ATOM     12  C   UNL     1      34.222 -10.424 -24.137  0.00  0.00    +0.249 C 
ATOM     13  C   UNL     1      33.105  -9.322 -22.426  0.00  0.00    +0.002 C 
ATOM     14  C   UNL     1      34.118  -9.175 -23.374  0.00  0.00    +0.051 C 
ATOM     15  C   UNL     1      32.797  -8.284 -21.567  0.00  0.00    -0.002 C 
ATOM     16  C   UNL     1      34.852  -8.013 -23.507  0.00  0.00    +0.004 C 
ATOM     17  C   UNL     1      33.525  -7.096 -21.681  0.00  0.00    -0.000 C 
ATOM     18  C   UNL     1      34.544  -6.961 -22.643  0.00  0.00    +0.000 C 
ENDBRANCH   8  10
ENDBRANCH   2   8
BRANCH   1  19
ATOM     19  C   UNL     1      35.584 -17.237 -21.807  0.00  0.00    -0.006 C 
BRANCH  19  21
ATOM     20  O   UNL     1      34.515 -18.939 -23.143  0.00  0.00    -0.294 OA
ATOM     21  C   UNL     1      34.994 -18.613 -22.059  0.00  0.00    +0.152 C 
BRANCH  21  23
ATOM     22  F   UNL     1      35.008 -22.321 -17.885  0.00  0.00    -0.204 F 
ATOM     23  C   UNL     1      34.998 -19.604 -20.942  0.00  0.00    +0.033 C 
ATOM     24  C   UNL     1      33.792 -20.083 -20.483  0.00  0.00    +0.005 C 
ATOM     25  C   UNL     1      36.205 -19.999 -20.416  0.00  0.00    +0.005 C 
ATOM     26  C   UNL     1      33.795 -21.010 -19.441  0.00  0.00    +0.030 C 
ATOM     27  C   UNL     1      36.210 -20.926 -19.375  0.00  0.00    +0.030 C 
ATOM     28  C   UNL     1      35.004 -21.431 -18.886  0.00  0.00    +0.140 C 
ENDBRANCH  21  23
ENDBRANCH  19  21
ENDBRANCH   1  19
TORSDOF 5
ENDMDL
MODEL 6
REMARK VINA RESULT:     -10.9      0.910      1.725
REMARK  Name = 9799284
REMARK  5 active torsions:
REMARK  status: ('A' for Active; 'I' for Inactive)
REMARK    1  A    between atoms: N_1  and  C_19
REMARK    2  A    between atoms: C_2  and  C_8
REMARK    3  A    between atoms: C_8  and  N_10
REMARK    4  A    between atoms: C_19  and  C_21
REMARK    5  A    between atoms: C_21  and  C_23
REMARK                            x       y       z     vdW  Elec       q    Type
REMARK                         _______ _______ _______ _____ _____    ______ ____
ROOT
ATOM      1  N   UNL     1      34.078 -13.656 -23.100  0.00  0.00    +0.392 N 
ATOM      2  C   UNL     1      34.607 -16.539 -23.028  0.00  0.00    +0.016 C 
ATOM      3  C   UNL     1      34.380 -15.777 -24.338  0.00  0.00    -0.021 C 
ATOM      4  C   UNL     1      35.132 -15.579 -21.954  0.00  0.00    -0.021 C 
ATOM      5  C   UNL     1      33.502 -14.543 -24.119  0.00  0.00    -0.077 C 
ATOM      6  C   UNL     1      34.229 -14.352 -21.815  0.00  0.00    -0.077 C 
ATOM      7  H   UNL     1      35.007 -13.374 -23.416  0.00  0.00    -0.079 HD
ENDROOT
BRANCH   2   8
ATOM      8  C   UNL     1      35.565 -17.710 -23.232  0.00  0.00    +0.094 C 
BRANCH   8  10
ATOM      9  O   UNL     1      33.284 -19.452 -22.297  0.00  0.00    -0.270 OA
ATOM     10  N   UNL     1      35.496 -18.627 -22.134  0.00  0.00    -0.272 N 
ATOM     11  C   UNL     1      36.636 -18.857 -21.243  0.00  0.00    +0.121 C 
ATOM     12  C   UNL     1      34.383 -19.397 -21.777  0.00  0.00    +0.249 C 
ATOM     13  C   UNL     1      36.099 -19.865 -20.286  0.00  0.00    +0.002 C 
ATOM     14  C   UNL     1      34.777 -20.180 -20.601  0.00  0.00    +0.051 C 
ATOM     15  C   UNL     1      36.723 -20.467 -19.210  0.00  0.00    -0.002 C 
ATOM     16  C   UNL     1      34.034 -21.090 -19.875  0.00  0.00    +0.004 C 
ATOM     17  C   UNL     1      35.993 -21.393 -18.458  0.00  0.00    -0.000 C 
ATOM     18  C   UNL     1      34.660 -21.701 -18.788  0.00  0.00    +0.000 C 
ENDBRANCH   8  10
ENDBRANCH   2   8
BRANCH   1  19
ATOM     19  C   UNL     1      33.256 -12.458 -22.939  0.00  0.00    -0.006 C 
BRANCH  19  21
ATOM     20  O   UNL     1      34.270 -11.587 -24.949  0.00  0.00    -0.294 OA
ATOM     21  C   UNL     1      33.797 -11.360 -23.837  0.00  0.00    +0.152 C 
BRANCH  21  23
ATOM     22  F   UNL     1      33.619  -6.091 -21.999  0.00  0.00    -0.204 F 
ATOM     23  C   UNL     1      33.750  -9.951 -23.345  0.00  0.00    +0.033 C 
ATOM     24  C   UNL     1      34.758  -9.090 -23.714  0.00  0.00    +0.005 C 
ATOM     25  C   UNL     1      32.700  -9.568 -22.543  0.00  0.00    +0.005 C 
ATOM     26  C   UNL     1      34.713  -7.774 -23.256  0.00  0.00    +0.030 C 
ATOM     27  C   UNL     1      32.655  -8.253 -22.084  0.00  0.00    +0.030 C 
ATOM     28  C   UNL     1      33.662  -7.355 -22.440  0.00  0.00    +0.140 C 
ENDBRANCH  21  23
ENDBRANCH  19  21
ENDBRANCH   1  19
TORSDOF 5
ENDMDL
MODEL 7
REMARK VINA RESULT:     -10.7      3.544      9.753
REMARK  Name = 9799284
REMARK  5 active torsions:
REMARK  status: ('A' for Active; 'I' for Inactive)
REMARK    1  A    between atoms: N_1  and  C_19
REMARK    2  A    between atoms: C_2  and  C_8
REMARK    3  A    between atoms: C_8  and  N_10
REMARK    4  A    between atoms: C_19  and  C_21
REMARK    5  A    between atoms: C_21  and  C_23
REMARK                            x       y       z     vdW  Elec       q    Type
REMARK                         _______ _______ _______ _____ _____    ______ ____
ROOT
ATOM      1  N   UNL     1      35.127 -17.821 -23.181  0.00  0.00    +0.392 N 
ATOM      2  C   UNL     1      34.060 -15.128 -23.636  0.00  0.00    +0.016 C 
ATOM      3  C   UNL     1      35.065 -15.437 -22.521  0.00  0.00    -0.021 C 
ATOM      4  C   UNL     1      34.203 -16.157 -24.762  0.00  0.00    -0.021 C 
ATOM      5  C   UNL     1      34.952 -16.891 -22.058  0.00  0.00    -0.077 C 
ATOM      6  C   UNL     1      34.119 -17.587 -24.224  0.00  0.00    -0.077 C 
ATOM      7  H   UNL     1      36.046 -17.653 -23.589  0.00  0.00    -0.079 HD
ENDROOT
BRANCH   2   8
ATOM      8  C   UNL     1      34.244 -13.708 -24.163  0.00  0.00    +0.094 C 
BRANCH   8  10
ATOM      9  O   UNL     1      34.018 -10.708 -24.422  0.00  0.00    -0.270 OA
ATOM     10  N   UNL     1      33.580 -12.758 -23.322  0.00  0.00    -0.272 N 
ATOM     11  C   UNL     1      32.855 -13.164 -22.115  0.00  0.00    +0.121 C 
ATOM     12  C   UNL     1      33.530 -11.374 -23.527  0.00  0.00    +0.249 C 
ATOM     13  C   UNL     1      32.347 -11.865 -21.592  0.00  0.00    +0.002 C 
ATOM     14  C   UNL     1      32.744 -10.816 -22.422  0.00  0.00    +0.051 C 
ATOM     15  C   UNL     1      31.588 -11.613 -20.465  0.00  0.00    -0.002 C 
ATOM     16  C   UNL     1      32.410  -9.499 -22.172  0.00  0.00    +0.004 C 
ATOM     17  C   UNL     1      31.235 -10.288 -20.189  0.00  0.00    -0.000 C 
ATOM     18  C   UNL     1      31.643  -9.240 -21.035  0.00  0.00    +0.000 C 
ENDBRANCH   8  10
ENDBRANCH   2   8
BRANCH   1  19
ATOM     19  C   UNL     1      35.068 -19.205 -22.714  0.00  0.00    -0.006 C 
BRANCH  19  21
ATOM     20  O   UNL     1      36.741 -18.666 -21.061  0.00  0.00    -0.294 OA
ATOM     21  C   UNL     1      35.728 -19.297 -21.350  0.00  0.00    +0.152 C 
BRANCH  21  23
ATOM     22  F   UNL     1      33.438 -22.641 -17.510  0.00  0.00    -0.204 F 
ATOM     23  C   UNL     1      35.115 -20.193 -20.324  0.00  0.00    +0.033 C 
ATOM     24  C   UNL     1      35.947 -20.949 -19.530  0.00  0.00    +0.005 C 
ATOM     25  C   UNL     1      33.745 -20.225 -20.211  0.00  0.00    +0.005 C 
ATOM     26  C   UNL     1      35.375 -21.784 -18.569  0.00  0.00    +0.030 C 
ATOM     27  C   UNL     1      33.173 -21.059 -19.252  0.00  0.00    +0.030 C 
ATOM     28  C   UNL     1      33.987 -21.839 -18.431  0.00  0.00    +0.140 C 
ENDBRANCH  21  23
ENDBRANCH  19  21
ENDBRANCH   1  19
TORSDOF 5
ENDMDL
MODEL 8
REMARK VINA RESULT:     -10.5      2.500      3.985
REMARK  Name = 9799284
REMARK  5 active torsions:
REMARK  status: ('A' for Active; 'I' for Inactive)
REMARK    1  A    between atoms: N_1  and  C_19
REMARK    2  A    between atoms: C_2  and  C_8
REMARK    3  A    between atoms: C_8  and  N_10
REMARK    4  A    between atoms: C_19  and  C_21
REMARK    5  A    between atoms: C_21  and  C_23
REMARK                            x       y       z     vdW  Elec       q    Type
REMARK                         _______ _______ _______ _____ _____    ______ ____
ROOT
ATOM      1  N   UNL     1      32.772 -10.419 -22.813  0.00  0.00    +0.392 N 
ATOM      2  C   UNL     1      33.762 -13.078 -23.554  0.00  0.00    +0.016 C 
ATOM      3  C   UNL     1      32.519 -12.877 -22.680  0.00  0.00    -0.021 C 
ATOM      4  C   UNL     1      33.980 -11.844 -24.437  0.00  0.00    -0.021 C 
ATOM      5  C   UNL     1      32.591 -11.560 -21.905  0.00  0.00    -0.077 C 
ATOM      6  C   UNL     1      34.003 -10.561 -23.604  0.00  0.00    -0.077 C 
ATOM      7  H   UNL     1      31.983 -10.404 -23.460  0.00  0.00    -0.079 HD
ENDROOT
BRANCH   2   8
ATOM      8  C   UNL     1      33.640 -14.343 -24.401  0.00  0.00    +0.094 C 
BRANCH   8  10
ATOM      9  O   UNL     1      33.465 -17.278 -25.085  0.00  0.00    -0.270 OA
ATOM     10  N   UNL     1      34.127 -15.485 -23.689  0.00  0.00    -0.272 N 
ATOM     11  C   UNL     1      34.843 -15.359 -22.416  0.00  0.00    +0.121 C 
ATOM     12  C   UNL     1      33.996 -16.820 -24.090  0.00  0.00    +0.249 C 
ATOM     13  C   UNL     1      35.144 -16.778 -22.073  0.00  0.00    +0.002 C 
ATOM     14  C   UNL     1      34.645 -17.633 -23.056  0.00  0.00    +0.051 C 
ATOM     15  C   UNL     1      35.807 -17.289 -20.974  0.00  0.00    -0.002 C 
ATOM     16  C   UNL     1      34.784 -19.005 -22.991  0.00  0.00    +0.004 C 
ATOM     17  C   UNL     1      35.961 -18.676 -20.883  0.00  0.00    -0.000 C 
ATOM     18  C   UNL     1      35.454 -19.527 -21.883  0.00  0.00    +0.000 C 
ENDBRANCH   8  10
ENDBRANCH   2   8
BRANCH   1  19
ATOM     19  C   UNL     1      32.787  -9.164 -22.063  0.00  0.00    -0.006 C 
BRANCH  19  21
ATOM     20  O   UNL     1      30.733  -8.181 -22.863  0.00  0.00    -0.294 OA
ATOM     21  C   UNL     1      31.960  -8.132 -22.807  0.00  0.00    +0.152 C 
BRANCH  21  23
ATOM     22  F   UNL     1      34.619  -3.949 -25.379  0.00  0.00    -0.204 F 
ATOM     23  C   UNL     1      32.671  -7.013 -23.496  0.00  0.00    +0.033 C 
ATOM     24  C   UNL     1      31.930  -6.109 -24.221  0.00  0.00    +0.005 C 
ATOM     25  C   UNL     1      34.039  -6.930 -23.377  0.00  0.00    +0.005 C 
ATOM     26  C   UNL     1      32.594  -5.064 -24.863  0.00  0.00    +0.030 C 
ATOM     27  C   UNL     1      34.703  -5.886 -24.018  0.00  0.00    +0.030 C 
ATOM     28  C   UNL     1      33.981  -4.953 -24.762  0.00  0.00    +0.140 C 
ENDBRANCH  21  23
ENDBRANCH  19  21
ENDBRANCH   1  19
TORSDOF 5
ENDMDL
MODEL 9
REMARK VINA RESULT:     -10.5      8.029     11.709
REMARK  Name = 9799284
REMARK  5 active torsions:
REMARK  status: ('A' for Active; 'I' for Inactive)
REMARK    1  A    between atoms: N_1  and  C_19
REMARK    2  A    between atoms: C_2  and  C_8
REMARK    3  A    between atoms: C_8  and  N_10
REMARK    4  A    between atoms: C_19  and  C_21
REMARK    5  A    between atoms: C_21  and  C_23
REMARK                            x       y       z     vdW  Elec       q    Type
REMARK                         _______ _______ _______ _____ _____    ______ ____
ROOT
ATOM      1  N   UNL     1      33.546 -23.418 -15.748  0.00  0.00    +0.392 N 
ATOM      2  C   UNL     1      34.877 -23.711 -13.152  0.00  0.00    +0.016 C 
ATOM      3  C   UNL     1      33.464 -24.242 -13.417  0.00  0.00    -0.021 C 
ATOM      4  C   UNL     1      35.655 -23.628 -14.470  0.00  0.00    -0.021 C 
ATOM      5  C   UNL     1      32.761 -23.431 -14.507  0.00  0.00    -0.077 C 
ATOM      6  C   UNL     1      34.878 -22.838 -15.526  0.00  0.00    -0.077 C 
ATOM      7  H   UNL     1      33.670 -24.383 -16.053  0.00  0.00    -0.079 HD
ENDROOT
BRANCH   2   8
ATOM      8  C   UNL     1      35.611 -24.584 -12.137  0.00  0.00    +0.094 C 
BRANCH   8  10
ATOM      9  O   UNL     1      38.501 -23.712 -12.179  0.00  0.00    -0.270 OA
ATOM     10  N   UNL     1      36.754 -25.211 -12.730  0.00  0.00    -0.272 N 
ATOM     11  C   UNL     1      36.652 -26.478 -13.458  0.00  0.00    +0.121 C 
ATOM     12  C   UNL     1      38.066 -24.725 -12.695  0.00  0.00    +0.249 C 
ATOM     13  C   UNL     1      38.062 -26.724 -13.875  0.00  0.00    +0.002 C 
ATOM     14  C   UNL     1      38.889 -25.694 -13.426  0.00  0.00    +0.051 C 
ATOM     15  C   UNL     1      38.588 -27.777 -14.598  0.00  0.00    -0.002 C 
ATOM     16  C   UNL     1      40.248 -25.668 -13.672  0.00  0.00    +0.004 C 
ATOM     17  C   UNL     1      39.962 -27.776 -14.861  0.00  0.00    -0.000 C 
ATOM     18  C   UNL     1      40.785 -26.730 -14.402  0.00  0.00    +0.000 C 
ENDBRANCH   8  10
ENDBRANCH   2   8
BRANCH   1  19
ATOM     19  C   UNL     1      32.837 -22.684 -16.795  0.00  0.00    -0.006 C 
BRANCH  19  21
ATOM     20  O   UNL     1      33.567 -24.149 -18.568  0.00  0.00    -0.294 OA
ATOM     21  C   UNL     1      33.468 -23.002 -18.139  0.00  0.00    +0.152 C 
BRANCH  21  23
ATOM     22  F   UNL     1      35.405 -18.779 -21.235  0.00  0.00    -0.204 F 
ATOM     23  C   UNL     1      33.986 -21.871 -18.966  0.00  0.00    +0.033 C 
ATOM     24  C   UNL     1      35.345 -21.664 -19.020  0.00  0.00    +0.005 C 
ATOM     25  C   UNL     1      33.084 -21.083 -19.642  0.00  0.00    +0.005 C 
ATOM     26  C   UNL     1      35.830 -20.610 -19.794  0.00  0.00    +0.030 C 
ATOM     27  C   UNL     1      33.567 -20.029 -20.416  0.00  0.00    +0.030 C 
ATOM     28  C   UNL     1      34.940 -19.792 -20.492  0.00  0.00    +0.140 C 
ENDBRANCH  21  23
ENDBRANCH  19  21
ENDBRANCH   1  19
TORSDOF 5
ENDMDL
