MODEL 1
REMARK VINA RESULT:     -10.9      0.000      0.000
REMARK  Name = 5287459
REMARK  5 active torsions:
REMARK  status: ('A' for Active; 'I' for Inactive)
REMARK    1  A    between atoms: C_1  and  C_7
REMARK    2  A    between atoms: C_4  and  C_21
REMARK    3  A    between atoms: C_5  and  C_25
REMARK    4  A    between atoms: C_8  and  C_13
REMARK    5  A    between atoms: C_25  and  O_26
REMARK                            x       y       z     vdW  Elec       q    Type
REMARK                         _______ _______ _______ _____ _____    ______ ____
ROOT
ATOM      1  C   UNL     1      33.491 -22.473 -17.285  0.00  0.00    +0.000 C 
ATOM      2  C   UNL     1      34.561 -23.014 -16.573  0.00  0.00    +0.005 C 
ATOM      3  C   UNL     1      32.182 -22.739 -16.887  0.00  0.00    +0.006 C 
ATOM      4  C   UNL     1      34.321 -23.822 -15.461  0.00  0.00    +0.053 C 
ATOM      5  C   UNL     1      31.941 -23.548 -15.776  0.00  0.00    +0.076 C 
ATOM      6  C   UNL     1      33.012 -24.089 -15.063  0.00  0.00    +0.011 C 
ENDROOT
BRANCH   1   7
ATOM      7  C   UNL     1      33.740 -21.635 -18.438  0.00  0.00    +0.000 C 
ATOM      8  C   UNL     1      34.221 -20.020 -20.662  0.00  0.00    +0.000 C 
ATOM      9  C   UNL     1      35.050 -21.393 -18.855  0.00  0.00    +0.000 C 
ATOM     10  C   UNL     1      32.671 -21.070 -19.134  0.00  0.00    +0.000 C 
ATOM     11  C   UNL     1      35.290 -20.585 -19.966  0.00  0.00    +0.000 C 
ATOM     12  C   UNL     1      32.912 -20.262 -20.245  0.00  0.00    +0.000 C 
BRANCH   8  13
ATOM     13  C   UNL     1      34.470 -19.181 -21.814  0.00  0.00    +0.000 C 
ATOM     14  C   UNL     1      35.337 -18.094 -21.713  0.00  0.00    +0.000 C 
ATOM     15  C   UNL     1      33.842 -19.461 -23.028  0.00  0.00    +0.000 C 
ATOM     16  C   UNL     1      35.577 -17.286 -22.824  0.00  0.00    +0.000 C 
ATOM     17  C   UNL     1      34.081 -18.653 -24.140  0.00  0.00    +0.000 C 
ATOM     18  C   UNL     1      34.948 -17.565 -24.038  0.00  0.00    +0.000 C 
ENDBRANCH   8  13
ENDBRANCH   1   7
BRANCH   4  21
ATOM     19  O   UNL     1      36.611 -24.244 -15.105  0.00  0.00    -0.270 OA
ATOM     20  N   UNL     1      35.151 -25.082 -13.547  0.00  0.00    -0.325 N 
ATOM     21  C   UNL     1      35.436 -24.387 -14.719  0.00  0.00    +0.243 C 
ATOM     22  H   UNL     1      35.881 -25.479 -13.019  0.00  0.00    +0.145 HD
ATOM     23  H   UNL     1      34.218 -25.176 -13.247  0.00  0.00    +0.145 HD
ENDBRANCH   4  21
BRANCH   5  25
ATOM     24  O   UNL     1      30.054 -24.945 -15.315  0.00  0.00    -0.245 OA
ATOM     25  C   UNL     1      30.576 -23.826 -15.361  0.00  0.00    +0.338 C 
BRANCH  25  26
ATOM     26  O   UNL     1      29.898 -22.697 -15.012  0.00  0.00    -0.477 OA
ATOM     27  H   UNL     1      29.116 -22.759 -14.501  0.00  0.00    +0.295 HD
ENDBRANCH  25  26
ENDBRANCH   5  25
TORSDOF 5
ENDMDL
MODEL 2
REMARK VINA RESULT:     -10.9      0.255      1.418
REMARK  Name = 5287459
REMARK  5 active torsions:
REMARK  status: ('A' for Active; 'I' for Inactive)
REMARK    1  A    between atoms: C_1  and  C_7
REMARK    2  A    between atoms: C_4  and  C_21
REMARK    3  A    between atoms: C_5  and  C_25
REMARK    4  A    between atoms: C_8  and  C_13
REMARK    5  A    between atoms: C_25  and  O_26
REMARK                            x       y       z     vdW  Elec       q    Type
REMARK                         _______ _______ _______ _____ _____    ______ ____
ROOT
ATOM      1  C   UNL     1      33.514 -22.461 -17.299  0.00  0.00    +0.000 C 
ATOM      2  C   UNL     1      34.583 -23.004 -16.587  0.00  0.00    +0.005 C 
ATOM      3  C   UNL     1      32.204 -22.731 -16.904  0.00  0.00    +0.006 C 
ATOM      4  C   UNL     1      34.342 -23.814 -15.478  0.00  0.00    +0.053 C 
ATOM      5  C   UNL     1      31.963 -23.543 -15.795  0.00  0.00    +0.076 C 
ATOM      6  C   UNL     1      33.033 -24.084 -15.082  0.00  0.00    +0.011 C 
ENDROOT
BRANCH   1   7
ATOM      7  C   UNL     1      33.763 -21.620 -18.450  0.00  0.00    +0.000 C 
ATOM      8  C   UNL     1      34.243 -19.999 -20.669  0.00  0.00    +0.000 C 
ATOM      9  C   UNL     1      32.694 -21.062 -19.151  0.00  0.00    +0.000 C 
ATOM     10  C   UNL     1      35.073 -21.367 -18.858  0.00  0.00    +0.000 C 
ATOM     11  C   UNL     1      32.934 -20.252 -20.261  0.00  0.00    +0.000 C 
ATOM     12  C   UNL     1      35.313 -20.557 -19.968  0.00  0.00    +0.000 C 
BRANCH   8  13
ATOM     13  C   UNL     1      34.493 -19.159 -21.820  0.00  0.00    +0.000 C 
ATOM     14  C   UNL     1      33.876 -19.442 -23.038  0.00  0.00    +0.000 C 
ATOM     15  C   UNL     1      35.351 -18.065 -21.711  0.00  0.00    +0.000 C 
ATOM     16  C   UNL     1      34.116 -18.631 -24.148  0.00  0.00    +0.000 C 
ATOM     17  C   UNL     1      35.593 -17.254 -22.820  0.00  0.00    +0.000 C 
ATOM     18  C   UNL     1      34.976 -17.537 -24.039  0.00  0.00    +0.000 C 
ENDBRANCH   8  13
ENDBRANCH   1   7
BRANCH   4  21
ATOM     19  O   UNL     1      36.630 -24.258 -15.134  0.00  0.00    -0.270 OA
ATOM     20  N   UNL     1      35.174 -25.050 -13.549  0.00  0.00    -0.325 N 
ATOM     21  C   UNL     1      35.457 -24.380 -14.735  0.00  0.00    +0.243 C 
ATOM     22  H   UNL     1      35.903 -25.447 -13.020  0.00  0.00    +0.145 HD
ATOM     23  H   UNL     1      34.242 -25.128 -13.238  0.00  0.00    +0.145 HD
ENDBRANCH   4  21
BRANCH   5  25
ATOM     24  O   UNL     1      30.251 -24.730 -14.619  0.00  0.00    -0.245 OA
ATOM     25  C   UNL     1      30.597 -23.824 -15.383  0.00  0.00    +0.338 C 
BRANCH  25  26
ATOM     26  O   UNL     1      29.699 -22.963 -15.937  0.00  0.00    -0.477 OA
ATOM     27  H   UNL     1      29.726 -22.053 -15.719  0.00  0.00    +0.295 HD
ENDBRANCH  25  26
ENDBRANCH   5  25
TORSDOF 5
ENDMDL
MODEL 3
REMARK VINA RESULT:     -10.9      1.382      3.264
REMARK  Name = 5287459
REMARK  5 active torsions:
REMARK  status: ('A' for Active; 'I' for Inactive)
REMARK    1  A    between atoms: C_1  and  C_7
REMARK    2  A    between atoms: C_4  and  C_21
REMARK    3  A    between atoms: C_5  and  C_25
REMARK    4  A    between atoms: C_8  and  C_13
REMARK    5  A    between atoms: C_25  and  O_26
REMARK                            x       y       z     vdW  Elec       q    Type
REMARK                         _______ _______ _______ _____ _____    ______ ____
ROOT
ATOM      1  C   UNL     1      33.523 -22.463 -17.253  0.00  0.00    +0.000 C 
ATOM      2  C   UNL     1      32.216 -22.787 -16.890  0.00  0.00    +0.005 C 
ATOM      3  C   UNL     1      34.594 -22.937 -16.498  0.00  0.00    +0.006 C 
ATOM      4  C   UNL     1      31.981 -23.587 -15.772  0.00  0.00    +0.053 C 
ATOM      5  C   UNL     1      34.360 -23.736 -15.379  0.00  0.00    +0.076 C 
ATOM      6  C   UNL     1      33.053 -24.061 -15.016  0.00  0.00    +0.011 C 
ENDROOT
BRANCH   1   7
ATOM      7  C   UNL     1      33.767 -21.633 -18.413  0.00  0.00    +0.000 C 
ATOM      8  C   UNL     1      34.239 -20.032 -20.649  0.00  0.00    +0.000 C 
ATOM      9  C   UNL     1      35.075 -21.393 -18.836  0.00  0.00    +0.000 C 
ATOM     10  C   UNL     1      32.695 -21.073 -19.108  0.00  0.00    +0.000 C 
ATOM     11  C   UNL     1      35.311 -20.592 -19.954  0.00  0.00    +0.000 C 
ATOM     12  C   UNL     1      32.931 -20.272 -20.226  0.00  0.00    +0.000 C 
BRANCH   8  13
ATOM     13  C   UNL     1      34.483 -19.201 -21.808  0.00  0.00    +0.000 C 
ATOM     14  C   UNL     1      33.841 -19.479 -23.014  0.00  0.00    +0.000 C 
ATOM     15  C   UNL     1      35.361 -18.121 -21.718  0.00  0.00    +0.000 C 
ATOM     16  C   UNL     1      34.075 -18.677 -24.131  0.00  0.00    +0.000 C 
ATOM     17  C   UNL     1      35.596 -17.319 -22.835  0.00  0.00    +0.000 C 
ATOM     18  C   UNL     1      34.954 -17.597 -24.042  0.00  0.00    +0.000 C 
ENDBRANCH   8  13
ENDBRANCH   1   7
BRANCH   4  21
ATOM     19  O   UNL     1      30.364 -24.950 -14.735  0.00  0.00    -0.270 OA
ATOM     20  N   UNL     1      29.603 -23.053 -15.777  0.00  0.00    -0.325 N 
ATOM     21  C   UNL     1      30.618 -23.925 -15.393  0.00  0.00    +0.243 C 
ATOM     22  H   UNL     1      28.668 -23.250 -15.539  0.00  0.00    +0.145 HD
ATOM     23  H   UNL     1      29.821 -22.239 -16.286  0.00  0.00    +0.145 HD
ENDBRANCH   4  21
BRANCH   5  25
ATOM     24  O   UNL     1      35.433 -24.532 -13.394  0.00  0.00    -0.245 OA
ATOM     25  C   UNL     1      35.478 -24.231 -14.591  0.00  0.00    +0.338 C 
BRANCH  25  26
ATOM     26  O   UNL     1      36.622 -24.337 -15.321  0.00  0.00    -0.477 OA
ATOM     27  H   UNL     1      36.902 -23.625 -15.861  0.00  0.00    +0.295 HD
ENDBRANCH  25  26
ENDBRANCH   5  25
TORSDOF 5
ENDMDL
MODEL 4
REMARK VINA RESULT:     -10.9      1.747      3.369
REMARK  Name = 5287459
REMARK  5 active torsions:
REMARK  status: ('A' for Active; 'I' for Inactive)
REMARK    1  A    between atoms: C_1  and  C_7
REMARK    2  A    between atoms: C_4  and  C_21
REMARK    3  A    between atoms: C_5  and  C_25
REMARK    4  A    between atoms: C_8  and  C_13
REMARK    5  A    between atoms: C_25  and  O_26
REMARK                            x       y       z     vdW  Elec       q    Type
REMARK                         _______ _______ _______ _____ _____    ______ ____
ROOT
ATOM      1  C   UNL     1      33.045 -22.898 -16.463  0.00  0.00    +0.000 C 
ATOM      2  C   UNL     1      31.708 -23.280 -16.359  0.00  0.00    +0.005 C 
ATOM      3  C   UNL     1      33.953 -23.260 -15.469  0.00  0.00    +0.006 C 
ATOM      4  C   UNL     1      31.279 -24.026 -15.260  0.00  0.00    +0.053 C 
ATOM      5  C   UNL     1      33.525 -24.005 -14.370  0.00  0.00    +0.076 C 
ATOM      6  C   UNL     1      32.187 -24.388 -14.266  0.00  0.00    +0.011 C 
ENDROOT
BRANCH   1   7
ATOM      7  C   UNL     1      33.490 -22.125 -17.603  0.00  0.00    +0.000 C 
ATOM      8  C   UNL     1      34.348 -20.634 -19.799  0.00  0.00    +0.000 C 
ATOM      9  C   UNL     1      34.853 -22.011 -17.878  0.00  0.00    +0.000 C 
ATOM     10  C   UNL     1      32.556 -21.495 -18.425  0.00  0.00    +0.000 C 
ATOM     11  C   UNL     1      35.282 -21.264 -18.976  0.00  0.00    +0.000 C 
ATOM     12  C   UNL     1      32.985 -20.748 -19.523  0.00  0.00    +0.000 C 
BRANCH   8  13
ATOM     13  C   UNL     1      34.793 -19.859 -20.937  0.00  0.00    +0.000 C 
ATOM     14  C   UNL     1      33.949 -19.683 -22.033  0.00  0.00    +0.000 C 
ATOM     15  C   UNL     1      36.065 -19.289 -20.937  0.00  0.00    +0.000 C 
ATOM     16  C   UNL     1      34.378 -18.935 -23.130  0.00  0.00    +0.000 C 
ATOM     17  C   UNL     1      36.495 -18.542 -22.034  0.00  0.00    +0.000 C 
ATOM     18  C   UNL     1      35.652 -18.365 -23.131  0.00  0.00    +0.000 C 
ENDBRANCH   8  13
ENDBRANCH   1   7
BRANCH   4  21
ATOM     19  O   UNL     1      29.011 -23.933 -15.890  0.00  0.00    -0.270 OA
ATOM     20  N   UNL     1      29.558 -25.389 -14.203  0.00  0.00    -0.325 N 
ATOM     21  C   UNL     1      29.885 -24.424 -15.152  0.00  0.00    +0.243 C 
ATOM     22  H   UNL     1      28.623 -25.682 -14.101  0.00  0.00    +0.145 HD
ATOM     23  H   UNL     1      30.261 -25.778 -13.635  0.00  0.00    +0.145 HD
ENDBRANCH   4  21
BRANCH   5  25
ATOM     24  O   UNL     1      35.698 -24.450 -13.472  0.00  0.00    -0.245 OA
ATOM     25  C   UNL     1      34.472 -24.382 -13.333  0.00  0.00    +0.338 C 
BRANCH  25  26
ATOM     26  O   UNL     1      33.862 -24.664 -12.149  0.00  0.00    -0.477 OA
ATOM     27  H   UNL     1      33.690 -25.553 -11.910  0.00  0.00    +0.295 HD
ENDBRANCH  25  26
ENDBRANCH   5  25
TORSDOF 5
ENDMDL
MODEL 5
REMARK VINA RESULT:     -10.4      1.048      1.678
REMARK  Name = 5287459
REMARK  5 active torsions:
REMARK  status: ('A' for Active; 'I' for Inactive)
REMARK    1  A    between atoms: C_1  and  C_7
REMARK    2  A    between atoms: C_4  and  C_21
REMARK    3  A    between atoms: C_5  and  C_25
REMARK    4  A    between atoms: C_8  and  C_13
REMARK    5  A    between atoms: C_25  and  O_26
REMARK                            x       y       z     vdW  Elec       q    Type
REMARK                         _______ _______ _______ _____ _____    ______ ____
ROOT
ATOM      1  C   UNL     1      34.046 -22.961 -16.445  0.00  0.00    +0.000 C 
ATOM      2  C   UNL     1      35.126 -23.536 -15.776  0.00  0.00    +0.005 C 
ATOM      3  C   UNL     1      32.747 -23.174 -15.984  0.00  0.00    +0.006 C 
ATOM      4  C   UNL     1      34.907 -24.322 -14.644  0.00  0.00    +0.053 C 
ATOM      5  C   UNL     1      32.528 -23.961 -14.853  0.00  0.00    +0.076 C 
ATOM      6  C   UNL     1      33.609 -24.535 -14.184  0.00  0.00    +0.011 C 
ENDROOT
BRANCH   1   7
ATOM      7  C   UNL     1      34.272 -22.145 -17.618  0.00  0.00    +0.000 C 
ATOM      8  C   UNL     1      34.708 -20.572 -19.881  0.00  0.00    +0.000 C 
ATOM      9  C   UNL     1      33.189 -21.675 -18.360  0.00  0.00    +0.000 C 
ATOM     10  C   UNL     1      35.574 -21.828 -18.007  0.00  0.00    +0.000 C 
ATOM     11  C   UNL     1      33.407 -20.889 -19.492  0.00  0.00    +0.000 C 
ATOM     12  C   UNL     1      35.792 -21.042 -19.138  0.00  0.00    +0.000 C 
BRANCH   8  13
ATOM     13  C   UNL     1      34.935 -19.758 -21.055  0.00  0.00    +0.000 C 
ATOM     14  C   UNL     1      36.106 -19.010 -21.170  0.00  0.00    +0.000 C 
ATOM     15  C   UNL     1      33.981 -19.721 -22.072  0.00  0.00    +0.000 C 
ATOM     16  C   UNL     1      36.325 -18.226 -22.303  0.00  0.00    +0.000 C 
ATOM     17  C   UNL     1      34.199 -18.936 -23.204  0.00  0.00    +0.000 C 
ATOM     18  C   UNL     1      35.371 -18.188 -23.320  0.00  0.00    +0.000 C 
ENDBRANCH   8  13
ENDBRANCH   1   7
BRANCH   4  21
ATOM     19  O   UNL     1      36.893 -24.221 -13.381  0.00  0.00    -0.270 OA
ATOM     20  N   UNL     1      36.114 -26.310 -13.917  0.00  0.00    -0.325 N 
ATOM     21  C   UNL     1      36.034 -24.921 -13.947  0.00  0.00    +0.243 C 
ATOM     22  H   UNL     1      36.863 -26.751 -13.454  0.00  0.00    +0.145 HD
ATOM     23  H   UNL     1      35.420 -26.853 -14.358  0.00  0.00    +0.145 HD
ENDBRANCH   4  21
BRANCH   5  25
ATOM     24  O   UNL     1      30.259 -23.352 -14.397  0.00  0.00    -0.245 OA
ATOM     25  C   UNL     1      31.173 -24.183 -14.373  0.00  0.00    +0.338 C 
BRANCH  25  26
ATOM     26  O   UNL     1      30.997 -25.439 -13.877  0.00  0.00    -0.477 OA
ATOM     27  H   UNL     1      31.598 -25.782 -13.246  0.00  0.00    +0.295 HD
ENDBRANCH  25  26
ENDBRANCH   5  25
TORSDOF 5
ENDMDL
MODEL 6
REMARK VINA RESULT:      -9.3     12.023     15.786
REMARK  Name = 5287459
REMARK  5 active torsions:
REMARK  status: ('A' for Active; 'I' for Inactive)
REMARK    1  A    between atoms: C_1  and  C_7
REMARK    2  A    between atoms: C_4  and  C_21
REMARK    3  A    between atoms: C_5  and  C_25
REMARK    4  A    between atoms: C_8  and  C_13
REMARK    5  A    between atoms: C_25  and  O_26
REMARK                            x       y       z     vdW  Elec       q    Type
REMARK                         _______ _______ _______ _____ _____    ______ ____
ROOT
ATOM      1  C   UNL     1      33.203  -7.256 -23.424  0.00  0.00    +0.000 C 
ATOM      2  C   UNL     1      33.876  -6.478 -24.365  0.00  0.00    +0.005 C 
ATOM      3  C   UNL     1      32.354  -6.651 -22.498  0.00  0.00    +0.006 C 
ATOM      4  C   UNL     1      33.699  -5.095 -24.382  0.00  0.00    +0.053 C 
ATOM      5  C   UNL     1      32.177  -5.267 -22.513  0.00  0.00    +0.076 C 
ATOM      6  C   UNL     1      32.851  -4.489 -23.456  0.00  0.00    +0.011 C 
ENDROOT
BRANCH   1   7
ATOM      7  C   UNL     1      33.387  -8.691 -23.406  0.00  0.00    +0.000 C 
ATOM      8  C   UNL     1      33.742 -11.458 -23.373  0.00  0.00    +0.000 C 
ATOM      9  C   UNL     1      34.412  -9.272 -24.153  0.00  0.00    +0.000 C 
ATOM     10  C   UNL     1      32.540  -9.494 -22.642  0.00  0.00    +0.000 C 
ATOM     11  C   UNL     1      34.589 -10.656 -24.137  0.00  0.00    +0.000 C 
ATOM     12  C   UNL     1      32.717 -10.877 -22.626  0.00  0.00    +0.000 C 
BRANCH   8  13
ATOM     13  C   UNL     1      33.924 -12.894 -23.357  0.00  0.00    +0.000 C 
ATOM     14  C   UNL     1      34.423 -13.521 -22.215  0.00  0.00    +0.000 C 
ATOM     15  C   UNL     1      33.601 -13.649 -24.483  0.00  0.00    +0.000 C 
ATOM     16  C   UNL     1      34.598 -14.904 -22.200  0.00  0.00    +0.000 C 
ATOM     17  C   UNL     1      33.776 -15.033 -24.468  0.00  0.00    +0.000 C 
ATOM     18  C   UNL     1      34.275 -15.661 -23.327  0.00  0.00    +0.000 C 
ENDBRANCH   8  13
ENDBRANCH   1   7
BRANCH   4  21
ATOM     19  O   UNL     1      35.456  -4.678 -25.895  0.00  0.00    -0.270 OA
ATOM     20  N   UNL     1      33.847  -3.054 -25.706  0.00  0.00    -0.325 N 
ATOM     21  C   UNL     1      34.401  -4.284 -25.364  0.00  0.00    +0.243 C 
ATOM     22  H   UNL     1      34.295  -2.478 -26.367  0.00  0.00    +0.145 HD
ATOM     23  H   UNL     1      33.005  -2.760 -25.287  0.00  0.00    +0.145 HD
ENDBRANCH   4  21
BRANCH   5  25
ATOM     24  O   UNL     1      30.491  -3.729 -21.796  0.00  0.00    -0.245 OA
ATOM     25  C   UNL     1      31.292  -4.636 -21.548  0.00  0.00    +0.338 C 
BRANCH  25  26
ATOM     26  O   UNL     1      31.431  -5.156 -20.297  0.00  0.00    -0.477 OA
ATOM     27  H   UNL     1      30.808  -4.947 -19.630  0.00  0.00    +0.295 HD
ENDBRANCH  25  26
ENDBRANCH   5  25
TORSDOF 5
ENDMDL
MODEL 7
REMARK VINA RESULT:      -9.3     12.052     15.929
REMARK  Name = 5287459
REMARK  5 active torsions:
REMARK  status: ('A' for Active; 'I' for Inactive)
REMARK    1  A    between atoms: C_1  and  C_7
REMARK    2  A    between atoms: C_4  and  C_21
REMARK    3  A    between atoms: C_5  and  C_25
REMARK    4  A    between atoms: C_8  and  C_13
REMARK    5  A    between atoms: C_25  and  O_26
REMARK                            x       y       z     vdW  Elec       q    Type
REMARK                         _______ _______ _______ _____ _____    ______ ____
ROOT
ATOM      1  C   UNL     1      33.085  -7.259 -23.341  0.00  0.00    +0.000 C 
ATOM      2  C   UNL     1      32.241  -6.680 -22.395  0.00  0.00    +0.005 C 
ATOM      3  C   UNL     1      33.732  -6.459 -24.282  0.00  0.00    +0.006 C 
ATOM      4  C   UNL     1      32.045  -5.298 -22.388  0.00  0.00    +0.053 C 
ATOM      5  C   UNL     1      33.536  -5.078 -24.276  0.00  0.00    +0.076 C 
ATOM      6  C   UNL     1      32.692  -4.498 -23.329  0.00  0.00    +0.011 C 
ENDROOT
BRANCH   1   7
ATOM      7  C   UNL     1      33.288  -8.692 -23.348  0.00  0.00    +0.000 C 
ATOM      8  C   UNL     1      33.680 -11.454 -23.363  0.00  0.00    +0.000 C 
ATOM      9  C   UNL     1      34.313  -9.247 -24.115  0.00  0.00    +0.000 C 
ATOM     10  C   UNL     1      32.460  -9.518 -22.588  0.00  0.00    +0.000 C 
ATOM     11  C   UNL     1      34.509 -10.628 -24.123  0.00  0.00    +0.000 C 
ATOM     12  C   UNL     1      32.655 -10.899 -22.596  0.00  0.00    +0.000 C 
BRANCH   8  13
ATOM     13  C   UNL     1      33.882 -12.887 -23.371  0.00  0.00    +0.000 C 
ATOM     14  C   UNL     1      33.568 -13.630 -24.508  0.00  0.00    +0.000 C 
ATOM     15  C   UNL     1      34.392 -13.524 -22.240  0.00  0.00    +0.000 C 
ATOM     16  C   UNL     1      33.764 -15.011 -24.516  0.00  0.00    +0.000 C 
ATOM     17  C   UNL     1      34.587 -14.906 -22.246  0.00  0.00    +0.000 C 
ATOM     18  C   UNL     1      34.273 -15.650 -23.384  0.00  0.00    +0.000 C 
ENDBRANCH   8  13
ENDBRANCH   1   7
BRANCH   4  21
ATOM     19  O   UNL     1      30.889  -5.275 -20.336  0.00  0.00    -0.270 OA
ATOM     20  N   UNL     1      30.651  -3.430 -21.677  0.00  0.00    -0.325 N 
ATOM     21  C   UNL     1      31.165  -4.694 -21.401  0.00  0.00    +0.243 C 
ATOM     22  H   UNL     1      30.051  -2.990 -21.033  0.00  0.00    +0.145 HD
ATOM     23  H   UNL     1      30.888  -2.976 -22.519  0.00  0.00    +0.145 HD
ENDBRANCH   4  21
BRANCH   5  25
ATOM     24  O   UNL     1      33.842  -3.122 -25.619  0.00  0.00    -0.245 OA
ATOM     25  C   UNL     1      34.211  -4.243 -25.258  0.00  0.00    +0.338 C 
BRANCH  25  26
ATOM     26  O   UNL     1      35.330  -4.834 -25.760  0.00  0.00    -0.477 OA
ATOM     27  H   UNL     1      35.745  -4.481 -26.523  0.00  0.00    +0.295 HD
ENDBRANCH  25  26
ENDBRANCH   5  25
TORSDOF 5
ENDMDL
MODEL 8
REMARK VINA RESULT:      -9.2      6.533      9.504
REMARK  Name = 5287459
REMARK  5 active torsions:
REMARK  status: ('A' for Active; 'I' for Inactive)
REMARK    1  A    between atoms: C_1  and  C_7
REMARK    2  A    between atoms: C_4  and  C_21
REMARK    3  A    between atoms: C_5  and  C_25
REMARK    4  A    between atoms: C_8  and  C_13
REMARK    5  A    between atoms: C_25  and  O_26
REMARK                            x       y       z     vdW  Elec       q    Type
REMARK                         _______ _______ _______ _____ _____    ______ ____
ROOT
ATOM      1  C   UNL     1      34.485 -15.957 -23.111  0.00  0.00    +0.000 C 
ATOM      2  C   UNL     1      35.439 -16.488 -22.244  0.00  0.00    +0.005 C 
ATOM      3  C   UNL     1      33.745 -16.802 -23.936  0.00  0.00    +0.006 C 
ATOM      4  C   UNL     1      35.651 -17.866 -22.201  0.00  0.00    +0.053 C 
ATOM      5  C   UNL     1      33.958 -18.180 -23.895  0.00  0.00    +0.076 C 
ATOM      6  C   UNL     1      34.912 -18.711 -23.026  0.00  0.00    +0.011 C 
ENDROOT
BRANCH   1   7
ATOM      7  C   UNL     1      34.264 -14.527 -23.155  0.00  0.00    +0.000 C 
ATOM      8  C   UNL     1      33.838 -11.771 -23.242  0.00  0.00    +0.000 C 
ATOM      9  C   UNL     1      33.971 -13.904 -24.369  0.00  0.00    +0.000 C 
ATOM     10  C   UNL     1      34.343 -13.772 -21.985  0.00  0.00    +0.000 C 
ATOM     11  C   UNL     1      33.759 -12.526 -24.412  0.00  0.00    +0.000 C 
ATOM     12  C   UNL     1      34.130 -12.394 -22.029  0.00  0.00    +0.000 C 
BRANCH   8  13
ATOM     13  C   UNL     1      33.618 -10.342 -23.287  0.00  0.00    +0.000 C 
ATOM     14  C   UNL     1      32.431  -9.802 -22.793  0.00  0.00    +0.000 C 
ATOM     15  C   UNL     1      34.596  -9.504 -23.823  0.00  0.00    +0.000 C 
ATOM     16  C   UNL     1      32.220  -8.424 -22.836  0.00  0.00    +0.000 C 
ATOM     17  C   UNL     1      34.385  -8.125 -23.866  0.00  0.00    +0.000 C 
ATOM     18  C   UNL     1      33.198  -7.585 -23.373  0.00  0.00    +0.000 C 
ENDBRANCH   8  13
ENDBRANCH   1   7
BRANCH   4  21
ATOM     19  O   UNL     1      36.328 -18.869 -20.180  0.00  0.00    -0.270 OA
ATOM     20  N   UNL     1      37.970 -18.449 -21.726  0.00  0.00    -0.325 N 
ATOM     21  C   UNL     1      36.646 -18.420 -21.296  0.00  0.00    +0.243 C 
ATOM     22  H   UNL     1      38.670 -18.816 -21.140  0.00  0.00    +0.145 HD
ATOM     23  H   UNL     1      38.205 -18.102 -22.617  0.00  0.00    +0.145 HD
ENDBRANCH   4  21
BRANCH   5  25
ATOM     24  O   UNL     1      32.065 -18.817 -25.211  0.00  0.00    -0.245 OA
ATOM     25  C   UNL     1      33.186 -19.062 -24.756  0.00  0.00    +0.338 C 
BRANCH  25  26
ATOM     26  O   UNL     1      33.839 -20.226 -25.026  0.00  0.00    -0.477 OA
ATOM     27  H   UNL     1      33.364 -20.966 -25.350  0.00  0.00    +0.295 HD
ENDBRANCH  25  26
ENDBRANCH   5  25
TORSDOF 5
ENDMDL
MODEL 9
REMARK VINA RESULT:      -9.1      6.685      9.622
REMARK  Name = 5287459
REMARK  5 active torsions:
REMARK  status: ('A' for Active; 'I' for Inactive)
REMARK    1  A    between atoms: C_1  and  C_7
REMARK    2  A    between atoms: C_4  and  C_21
REMARK    3  A    between atoms: C_5  and  C_25
REMARK    4  A    between atoms: C_8  and  C_13
REMARK    5  A    between atoms: C_25  and  O_26
REMARK                            x       y       z     vdW  Elec       q    Type
REMARK                         _______ _______ _______ _____ _____    ______ ____
ROOT
ATOM      1  C   UNL     1      34.639 -16.193 -22.983  0.00  0.00    +0.000 C 
ATOM      2  C   UNL     1      33.950 -17.068 -23.822  0.00  0.00    +0.005 C 
ATOM      3  C   UNL     1      35.607 -16.683 -22.107  0.00  0.00    +0.006 C 
ATOM      4  C   UNL     1      34.231 -18.434 -23.788  0.00  0.00    +0.053 C 
ATOM      5  C   UNL     1      35.887 -18.049 -22.071  0.00  0.00    +0.076 C 
ATOM      6  C   UNL     1      35.199 -18.924 -22.912  0.00  0.00    +0.011 C 
ENDROOT
BRANCH   1   7
ATOM      7  C   UNL     1      34.348 -14.776 -23.019  0.00  0.00    +0.000 C 
ATOM      8  C   UNL     1      33.787 -12.044 -23.090  0.00  0.00    +0.000 C 
ATOM      9  C   UNL     1      33.944 -14.177 -24.213  0.00  0.00    +0.000 C 
ATOM     10  C   UNL     1      34.470 -14.009 -21.861  0.00  0.00    +0.000 C 
ATOM     11  C   UNL     1      33.664 -12.811 -24.249  0.00  0.00    +0.000 C 
ATOM     12  C   UNL     1      34.190 -12.642 -21.897  0.00  0.00    +0.000 C 
BRANCH   8  13
ATOM     13  C   UNL     1      33.497 -10.627 -23.126  0.00  0.00    +0.000 C 
ATOM     14  C   UNL     1      34.401  -9.744 -23.717  0.00  0.00    +0.000 C 
ATOM     15  C   UNL     1      32.313 -10.144 -22.570  0.00  0.00    +0.000 C 
ATOM     16  C   UNL     1      34.121  -8.378 -23.752  0.00  0.00    +0.000 C 
ATOM     17  C   UNL     1      32.032  -8.778 -22.605  0.00  0.00    +0.000 C 
ATOM     18  C   UNL     1      32.936  -7.894 -23.195  0.00  0.00    +0.000 C 
ENDBRANCH   8  13
ENDBRANCH   1   7
BRANCH   4  21
ATOM     19  O   UNL     1      34.027 -20.411 -25.052  0.00  0.00    -0.270 OA
ATOM     20  N   UNL     1      32.219 -18.999 -25.042  0.00  0.00    -0.325 N 
ATOM     21  C   UNL     1      33.513 -19.346 -24.663  0.00  0.00    +0.243 C 
ATOM     22  H   UNL     1      31.703 -19.592 -25.634  0.00  0.00    +0.145 HD
ATOM     23  H   UNL     1      31.820 -18.159 -24.717  0.00  0.00    +0.145 HD
ENDBRANCH   4  21
BRANCH   5  25
ATOM     24  O   UNL     1      36.676 -19.031 -20.037  0.00  0.00    -0.245 OA
ATOM     25  C   UNL     1      36.897 -18.561 -21.158  0.00  0.00    +0.338 C 
BRANCH  25  26
ATOM     26  O   UNL     1      38.155 -18.472 -21.671  0.00  0.00    -0.477 OA
ATOM     27  H   UNL     1      38.564 -19.227 -22.043  0.00  0.00    +0.295 HD
ENDBRANCH  25  26
ENDBRANCH   5  25
TORSDOF 5
ENDMDL
