MODEL 1
REMARK VINA RESULT:     -11.9      0.000      0.000
REMARK  Name = 448605
REMARK  6 active torsions:
REMARK  status: ('A' for Active; 'I' for Inactive)
REMARK    1  A    between atoms: C_3  and  N_11
REMARK    2  A    between atoms: C_4  and  C_27
REMARK    3  A    between atoms: C_9  and  C_21
REMARK    4  A    between atoms: N_26  and  C_29
REMARK    5  A    between atoms: C_30  and  C_35
REMARK    6  A    between atoms: C_35  and  N_36
REMARK                            x       y       z     vdW  Elec       q    Type
REMARK                         _______ _______ _______ _____ _____    ______ ____
ROOT
ATOM      1  C   UNL     1      34.070 -23.033 -15.875  0.00  0.00    +0.014 C 
ATOM      2  C   UNL     1      33.115 -22.738 -16.878  0.00  0.00    +0.001 C 
ATOM      3  C   UNL     1      35.412 -22.677 -16.079  0.00  0.00    +0.057 C 
ATOM      4  C   UNL     1      34.872 -21.750 -18.242  0.00  0.00    +0.055 C 
ATOM      5  C   UNL     1      33.533 -22.095 -18.056  0.00  0.00    +0.005 C 
ATOM      6  C   UNL     1      35.810 -22.039 -17.255  0.00  0.00    +0.020 C 
ATOM      7  C   UNL     1      33.652 -23.674 -14.698  0.00  0.00    +0.004 C 
ATOM      8  C   UNL     1      31.772 -23.094 -16.675  0.00  0.00    +0.000 C 
ATOM      9  C   UNL     1      32.313 -24.021 -14.512  0.00  0.00    +0.031 C 
ATOM     10  C   UNL     1      31.375 -23.731 -15.498  0.00  0.00    +0.003 C 
ENDROOT
BRANCH   3  11
ATOM     11  N   UNL     1      36.408 -22.948 -15.108  0.00  0.00    -0.257 N 
ATOM     12  N   UNL     1      36.471 -25.293 -15.142  0.00  0.00    -0.180 NA
ATOM     13  N   UNL     1      37.908 -24.037 -13.670  0.00  0.00    -0.203 NA
ATOM     14  C   UNL     1      36.953 -24.146 -14.619  0.00  0.00    +0.091 C 
ATOM     15  C   UNL     1      37.017 -26.424 -14.649  0.00  0.00    +0.108 C 
ATOM     16  C   UNL     1      38.410 -25.207 -13.222  0.00  0.00    +0.165 C 
ATOM     17  C   UNL     1      37.999 -26.442 -13.680  0.00  0.00    +0.022 C 
ATOM     18  H   UNL     1      36.791 -22.140 -14.697  0.00  0.00    +0.164 HD
ENDBRANCH   3  11
BRANCH   9  21
ATOM     19  N   UNL     1      30.555 -24.962 -13.033  0.00  0.00    -0.343 N 
ATOM     20  N   UNL     1      32.799 -25.032 -12.387  0.00  0.00    -0.285 NA
ATOM     21  C   UNL     1      31.897 -24.684 -13.287  0.00  0.00    +0.117 C 
ATOM     22  H   UNL     1      30.295 -25.412 -12.197  0.00  0.00    +0.144 HD
ATOM     23  H   UNL     1      29.866 -24.708 -13.690  0.00  0.00    +0.144 HD
ATOM     24  H   UNL     1      32.519 -25.481 -11.557  0.00  0.00    +0.188 HD
ENDBRANCH   9  21
BRANCH   4  27
ATOM     25  O   UNL     1      36.266 -21.526 -20.090  0.00  0.00    -0.270 OA
ATOM     26  N   UNL     1      34.509 -19.987 -19.860  0.00  0.00    -0.280 N 
ATOM     27  C   UNL     1      35.287 -21.085 -19.467  0.00  0.00    +0.250 C 
ATOM     28  H   UNL     1      33.764 -19.755 -19.262  0.00  0.00    +0.155 HD
BRANCH  26  29
ATOM     29  C   UNL     1      34.657 -19.168 -21.007  0.00  0.00    +0.051 C 
ATOM     30  C   UNL     1      34.944 -17.568 -23.248  0.00  0.00    -0.044 C 
ATOM     31  C   UNL     1      34.115 -19.586 -22.210  0.00  0.00    +0.014 C 
ATOM     32  C   UNL     1      35.340 -17.969 -20.899  0.00  0.00    +0.014 C 
ATOM     33  C   UNL     1      34.260 -18.780 -23.340  0.00  0.00    -0.005 C 
ATOM     34  C   UNL     1      35.483 -17.163 -22.027  0.00  0.00    -0.005 C 
BRANCH  30  35
ATOM     35  C   UNL     1      35.098 -16.707 -24.455  0.00  0.00    -0.059 C 
BRANCH  35  36
ATOM     36  N   UNL     1      34.211 -15.571 -24.435  0.00  0.00    +0.383 N 
ATOM     37  H   UNL     1      33.325 -15.823 -24.873  0.00  0.00    -0.089 HD
ATOM     38  H   UNL     1      34.636 -14.799 -24.948  0.00  0.00    -0.089 HD
ATOM     39  H   UNL     1      34.045 -15.287 -23.470  0.00  0.00    -0.089 HD
ENDBRANCH  35  36
ENDBRANCH  30  35
ENDBRANCH  26  29
ENDBRANCH   4  27
TORSDOF 6
ENDMDL
MODEL 2
REMARK VINA RESULT:     -11.7      1.720      4.555
REMARK  Name = 448605
REMARK  6 active torsions:
REMARK  status: ('A' for Active; 'I' for Inactive)
REMARK    1  A    between atoms: C_3  and  N_11
REMARK    2  A    between atoms: C_4  and  C_27
REMARK    3  A    between atoms: C_9  and  C_21
REMARK    4  A    between atoms: N_26  and  C_29
REMARK    5  A    between atoms: C_30  and  C_35
REMARK    6  A    between atoms: C_35  and  N_36
REMARK                            x       y       z     vdW  Elec       q    Type
REMARK                         _______ _______ _______ _____ _____    ______ ____
ROOT
ATOM      1  C   UNL     1      34.854 -23.220 -15.921  0.00  0.00    +0.014 C 
ATOM      2  C   UNL     1      35.864 -22.470 -16.571  0.00  0.00    +0.001 C 
ATOM      3  C   UNL     1      33.553 -23.220 -16.447  0.00  0.00    +0.057 C 
ATOM      4  C   UNL     1      34.241 -21.752 -18.236  0.00  0.00    +0.055 C 
ATOM      5  C   UNL     1      35.541 -21.741 -17.728  0.00  0.00    +0.005 C 
ATOM      6  C   UNL     1      33.249 -22.490 -17.597  0.00  0.00    +0.020 C 
ATOM      7  C   UNL     1      35.177 -23.949 -14.766  0.00  0.00    +0.004 C 
ATOM      8  C   UNL     1      37.166 -22.471 -16.045  0.00  0.00    +0.000 C 
ATOM      9  C   UNL     1      36.477 -23.939 -14.257  0.00  0.00    +0.031 C 
ATOM     10  C   UNL     1      37.469 -23.201 -14.896  0.00  0.00    +0.003 C 
ENDROOT
BRANCH   3  11
ATOM     11  N   UNL     1      32.505 -23.954 -15.837  0.00  0.00    -0.257 N 
ATOM     12  N   UNL     1      30.639 -22.631 -16.359  0.00  0.00    -0.180 NA
ATOM     13  N   UNL     1      30.399 -24.658 -15.080  0.00  0.00    -0.203 NA
ATOM     14  C   UNL     1      31.120 -23.738 -15.756  0.00  0.00    +0.091 C 
ATOM     15  C   UNL     1      29.305 -22.455 -16.261  0.00  0.00    +0.108 C 
ATOM     16  C   UNL     1      29.072 -24.420 -15.020  0.00  0.00    +0.165 C 
ATOM     17  C   UNL     1      28.464 -23.325 -15.598  0.00  0.00    +0.022 C 
ATOM     18  H   UNL     1      32.807 -24.772 -15.382  0.00  0.00    +0.164 HD
ENDBRANCH   3  11
BRANCH   9  21
ATOM     19  N   UNL     1      38.081 -24.697 -12.520  0.00  0.00    -0.343 N 
ATOM     20  N   UNL     1      35.858 -25.414 -12.464  0.00  0.00    -0.285 NA
ATOM     21  C   UNL     1      36.796 -24.699 -13.059  0.00  0.00    +0.117 C 
ATOM     22  H   UNL     1      38.275 -25.219 -11.708  0.00  0.00    +0.144 HD
ATOM     23  H   UNL     1      38.795 -24.173 -12.950  0.00  0.00    +0.144 HD
ATOM     24  H   UNL     1      36.072 -25.929 -11.653  0.00  0.00    +0.188 HD
ENDBRANCH   9  21
BRANCH   4  27
ATOM     25  O   UNL     1      32.803 -21.122 -19.952  0.00  0.00    -0.270 OA
ATOM     26  N   UNL     1      34.932 -20.137 -19.901  0.00  0.00    -0.280 N 
ATOM     27  C   UNL     1      33.923 -20.992 -19.435  0.00  0.00    +0.250 C 
ATOM     28  H   UNL     1      35.770 -20.143 -19.386  0.00  0.00    +0.155 HD
BRANCH  26  29
ATOM     29  C   UNL     1      34.902 -19.266 -21.019  0.00  0.00    +0.051 C 
ATOM     30  C   UNL     1      34.843 -17.564 -23.201  0.00  0.00    -0.044 C 
ATOM     31  C   UNL     1      34.332 -19.703 -22.201  0.00  0.00    +0.014 C 
ATOM     32  C   UNL     1      35.444 -17.997 -20.902  0.00  0.00    +0.014 C 
ATOM     33  C   UNL     1      34.303 -18.846 -23.302  0.00  0.00    -0.005 C 
ATOM     34  C   UNL     1      35.414 -17.140 -22.001  0.00  0.00    -0.005 C 
BRANCH  30  35
ATOM     35  C   UNL     1      34.811 -16.648 -24.377  0.00  0.00    -0.059 C 
BRANCH  35  36
ATOM     36  N   UNL     1      34.178 -15.389 -24.074  0.00  0.00    +0.383 N 
ATOM     37  H   UNL     1      33.706 -15.037 -24.906  0.00  0.00    -0.089 HD
ATOM     38  H   UNL     1      34.884 -14.717 -23.773  0.00  0.00    -0.089 HD
ATOM     39  H   UNL     1      33.497 -15.524 -23.327  0.00  0.00    -0.089 HD
ENDBRANCH  35  36
ENDBRANCH  30  35
ENDBRANCH  26  29
ENDBRANCH   4  27
TORSDOF 6
ENDMDL
MODEL 3
REMARK VINA RESULT:     -11.3      1.955      4.676
REMARK  Name = 448605
REMARK  6 active torsions:
REMARK  status: ('A' for Active; 'I' for Inactive)
REMARK    1  A    between atoms: C_3  and  N_11
REMARK    2  A    between atoms: C_4  and  C_27
REMARK    3  A    between atoms: C_9  and  C_21
REMARK    4  A    between atoms: N_26  and  C_29
REMARK    5  A    between atoms: C_30  and  C_35
REMARK    6  A    between atoms: C_35  and  N_36
REMARK                            x       y       z     vdW  Elec       q    Type
REMARK                         _______ _______ _______ _____ _____    ______ ____
ROOT
ATOM      1  C   UNL     1      34.747 -23.484 -14.769  0.00  0.00    +0.014 C 
ATOM      2  C   UNL     1      35.848 -22.864 -15.409  0.00  0.00    +0.001 C 
ATOM      3  C   UNL     1      33.523 -23.580 -15.449  0.00  0.00    +0.057 C 
ATOM      4  C   UNL     1      34.465 -22.463 -17.371  0.00  0.00    +0.055 C 
ATOM      5  C   UNL     1      35.690 -22.359 -16.710  0.00  0.00    +0.005 C 
ATOM      6  C   UNL     1      33.384 -23.073 -16.742  0.00  0.00    +0.020 C 
ATOM      7  C   UNL     1      34.904 -23.989 -13.469  0.00  0.00    +0.004 C 
ATOM      8  C   UNL     1      37.072 -22.767 -14.729  0.00  0.00    +0.000 C 
ATOM      9  C   UNL     1      36.129 -23.885 -12.807  0.00  0.00    +0.031 C 
ATOM     10  C   UNL     1      37.211 -23.275 -13.437  0.00  0.00    +0.003 C 
ENDROOT
BRANCH   3  11
ATOM     11  N   UNL     1      32.390 -24.191 -14.856  0.00  0.00    -0.257 N 
ATOM     12  N   UNL     1      30.634 -23.037 -15.899  0.00  0.00    -0.180 NA
ATOM     13  N   UNL     1      30.189 -24.762 -14.277  0.00  0.00    -0.203 NA
ATOM     14  C   UNL     1      31.010 -23.988 -15.018  0.00  0.00    +0.091 C 
ATOM     15  C   UNL     1      29.302 -22.868 -16.029  0.00  0.00    +0.108 C 
ATOM     16  C   UNL     1      28.870 -24.540 -14.457  0.00  0.00    +0.165 C 
ATOM     17  C   UNL     1      28.364 -23.598 -15.328  0.00  0.00    +0.022 C 
ATOM     18  H   UNL     1      32.614 -24.893 -14.204  0.00  0.00    +0.164 HD
ENDBRANCH   3  11
BRANCH   9  21
ATOM     19  N   UNL     1      37.498 -24.364 -10.792  0.00  0.00    -0.343 N 
ATOM     20  N   UNL     1      35.239 -24.958 -10.851  0.00  0.00    -0.285 NA
ATOM     21  C   UNL     1      36.276 -24.413 -11.461  0.00  0.00    +0.117 C 
ATOM     22  H   UNL     1      37.576 -24.728  -9.881  0.00  0.00    +0.144 HD
ATOM     23  H   UNL     1      38.284 -23.964 -11.231  0.00  0.00    +0.144 HD
ATOM     24  H   UNL     1      35.337 -25.317  -9.938  0.00  0.00    +0.188 HD
ENDBRANCH   9  21
BRANCH   4  27
ATOM     25  O   UNL     1      33.582 -22.527 -19.522  0.00  0.00    -0.270 OA
ATOM     26  N   UNL     1      35.026 -20.756 -18.992  0.00  0.00    -0.280 N 
ATOM     27  C   UNL     1      34.319 -21.935 -18.718  0.00  0.00    +0.250 C 
ATOM     28  H   UNL     1      35.572 -20.402 -18.254  0.00  0.00    +0.155 HD
BRANCH  26  29
ATOM     29  C   UNL     1      35.058 -20.006 -20.194  0.00  0.00    +0.051 C 
ATOM     30  C   UNL     1      35.120 -18.542 -22.543  0.00  0.00    -0.044 C 
ATOM     31  C   UNL     1      36.199 -19.292 -20.515  0.00  0.00    +0.014 C 
ATOM     32  C   UNL     1      33.947 -20.005 -21.020  0.00  0.00    +0.014 C 
ATOM     33  C   UNL     1      36.231 -18.553 -21.698  0.00  0.00    -0.005 C 
ATOM     34  C   UNL     1      33.979 -19.268 -22.203  0.00  0.00    -0.005 C 
BRANCH  30  35
ATOM     35  C   UNL     1      35.155 -17.753 -23.807  0.00  0.00    -0.059 C 
BRANCH  35  36
ATOM     36  N   UNL     1      35.457 -16.363 -23.579  0.00  0.00    +0.383 N 
ATOM     37  H   UNL     1      36.350 -16.284 -23.093  0.00  0.00    -0.089 HD
ATOM     38  H   UNL     1      34.722 -15.945 -23.008  0.00  0.00    -0.089 HD
ATOM     39  H   UNL     1      35.511 -15.876 -24.473  0.00  0.00    -0.089 HD
ENDBRANCH  35  36
ENDBRANCH  30  35
ENDBRANCH  26  29
ENDBRANCH   4  27
TORSDOF 6
ENDMDL
MODEL 4
REMARK VINA RESULT:     -10.4      1.974      4.794
REMARK  Name = 448605
REMARK  6 active torsions:
REMARK  status: ('A' for Active; 'I' for Inactive)
REMARK    1  A    between atoms: C_3  and  N_11
REMARK    2  A    between atoms: C_4  and  C_27
REMARK    3  A    between atoms: C_9  and  C_21
REMARK    4  A    between atoms: N_26  and  C_29
REMARK    5  A    between atoms: C_30  and  C_35
REMARK    6  A    between atoms: C_35  and  N_36
REMARK                            x       y       z     vdW  Elec       q    Type
REMARK                         _______ _______ _______ _____ _____    ______ ____
ROOT
ATOM      1  C   UNL     1      36.616 -24.345 -14.402  0.00  0.00    +0.014 C 
ATOM      2  C   UNL     1      37.867 -23.953 -14.936  0.00  0.00    +0.001 C 
ATOM      3  C   UNL     1      35.450 -23.695 -14.836  0.00  0.00    +0.057 C 
ATOM      4  C   UNL     1      36.745 -22.285 -16.306  0.00  0.00    +0.055 C 
ATOM      5  C   UNL     1      37.914 -22.921 -15.888  0.00  0.00    +0.005 C 
ATOM      6  C   UNL     1      35.515 -22.671 -15.782  0.00  0.00    +0.020 C 
ATOM      7  C   UNL     1      36.568 -25.377 -13.451  0.00  0.00    +0.004 C 
ATOM      8  C   UNL     1      39.033 -24.603 -14.502  0.00  0.00    +0.000 C 
ATOM      9  C   UNL     1      37.738 -26.013 -13.031  0.00  0.00    +0.031 C 
ATOM     10  C   UNL     1      38.968 -25.627 -13.557  0.00  0.00    +0.003 C 
ENDROOT
BRANCH   3  11
ATOM     11  N   UNL     1      34.173 -24.048 -14.335  0.00  0.00    -0.257 N 
ATOM     12  N   UNL     1      32.757 -23.093 -15.943  0.00  0.00    -0.180 NA
ATOM     13  N   UNL     1      31.855 -24.293 -14.058  0.00  0.00    -0.203 NA
ATOM     14  C   UNL     1      32.871 -23.800 -14.800  0.00  0.00    +0.091 C 
ATOM     15  C   UNL     1      31.493 -22.874 -16.360  0.00  0.00    +0.108 C 
ATOM     16  C   UNL     1      30.618 -24.037 -14.533  0.00  0.00    +0.165 C 
ATOM     17  C   UNL     1      30.374 -23.326 -15.690  0.00  0.00    +0.022 C 
ATOM     18  H   UNL     1      34.204 -24.566 -13.499  0.00  0.00    +0.164 HD
ENDBRANCH   3  11
BRANCH   9  21
ATOM     19  N   UNL     1      37.955 -28.402 -12.388  0.00  0.00    -0.343 N 
ATOM     20  N   UNL     1      37.335 -26.805 -10.799  0.00  0.00    -0.285 NA
ATOM     21  C   UNL     1      37.672 -27.081 -12.046  0.00  0.00    +0.117 C 
ATOM     22  H   UNL     1      37.904 -29.109 -11.706  0.00  0.00    +0.144 HD
ATOM     23  H   UNL     1      38.206 -28.628 -13.314  0.00  0.00    +0.144 HD
ATOM     24  H   UNL     1      37.289 -27.527 -10.130  0.00  0.00    +0.188 HD
ENDBRANCH   9  21
BRANCH   4  27
ATOM     25  O   UNL     1      37.602 -20.278 -17.112  0.00  0.00    -0.270 OA
ATOM     26  N   UNL     1      35.970 -21.361 -18.405  0.00  0.00    -0.280 N 
ATOM     27  C   UNL     1      36.812 -21.218 -17.293  0.00  0.00    +0.250 C 
ATOM     28  H   UNL     1      35.397 -22.160 -18.408  0.00  0.00    +0.155 HD
BRANCH  26  29
ATOM     29  C   UNL     1      35.836 -20.503 -19.525  0.00  0.00    +0.051 C 
ATOM     30  C   UNL     1      35.575 -18.828 -21.713  0.00  0.00    -0.044 C 
ATOM     31  C   UNL     1      34.608 -20.400 -20.154  0.00  0.00    +0.014 C 
ATOM     32  C   UNL     1      36.938 -19.788 -19.965  0.00  0.00    +0.014 C 
ATOM     33  C   UNL     1      34.476 -19.556 -21.258  0.00  0.00    -0.005 C 
ATOM     34  C   UNL     1      36.805 -18.944 -21.067  0.00  0.00    -0.005 C 
BRANCH  30  35
ATOM     35  C   UNL     1      35.434 -17.926 -22.892  0.00  0.00    -0.059 C 
BRANCH  35  36
ATOM     36  N   UNL     1      35.616 -16.539 -22.546  0.00  0.00    +0.383 N 
ATOM     37  H   UNL     1      34.712 -16.121 -22.326  0.00  0.00    -0.089 HD
ATOM     38  H   UNL     1      36.037 -16.045 -23.333  0.00  0.00    -0.089 HD
ATOM     39  H   UNL     1      36.230 -16.470 -21.734  0.00  0.00    -0.089 HD
ENDBRANCH  35  36
ENDBRANCH  30  35
ENDBRANCH  26  29
ENDBRANCH   4  27
TORSDOF 6
ENDMDL
MODEL 5
REMARK VINA RESULT:      -9.8     10.219     17.883
REMARK  Name = 448605
REMARK  6 active torsions:
REMARK  status: ('A' for Active; 'I' for Inactive)
REMARK    1  A    between atoms: C_3  and  N_11
REMARK    2  A    between atoms: C_4  and  C_27
REMARK    3  A    between atoms: C_9  and  C_21
REMARK    4  A    between atoms: N_26  and  C_29
REMARK    5  A    between atoms: C_30  and  C_35
REMARK    6  A    between atoms: C_35  and  N_36
REMARK                            x       y       z     vdW  Elec       q    Type
REMARK                         _______ _______ _______ _____ _____    ______ ____
ROOT
ATOM      1  C   UNL     1      33.216  -5.794 -23.381  0.00  0.00    +0.014 C 
ATOM      2  C   UNL     1      32.531  -6.865 -22.759  0.00  0.00    +0.001 C 
ATOM      3  C   UNL     1      34.296  -6.072 -24.234  0.00  0.00    +0.057 C 
ATOM      4  C   UNL     1      34.025  -8.441 -23.857  0.00  0.00    +0.055 C 
ATOM      5  C   UNL     1      32.948  -8.184 -23.008  0.00  0.00    +0.005 C 
ATOM      6  C   UNL     1      34.697  -7.387 -24.469  0.00  0.00    +0.020 C 
ATOM      7  C   UNL     1      32.798  -4.476 -23.133  0.00  0.00    +0.004 C 
ATOM      8  C   UNL     1      31.451  -6.587 -21.906  0.00  0.00    +0.000 C 
ATOM      9  C   UNL     1      31.721  -4.218 -22.283  0.00  0.00    +0.031 C 
ATOM     10  C   UNL     1      31.049  -5.272 -21.671  0.00  0.00    +0.003 C 
ENDROOT
BRANCH   3  11
ATOM     11  N   UNL     1      35.015  -5.038 -24.882  0.00  0.00    -0.257 N 
ATOM     12  N   UNL     1      33.698  -4.673 -26.789  0.00  0.00    -0.180 NA
ATOM     13  N   UNL     1      35.702  -3.392 -26.407  0.00  0.00    -0.203 NA
ATOM     14  C   UNL     1      34.795  -4.337 -26.079  0.00  0.00    +0.091 C 
ATOM     15  C   UNL     1      33.517  -3.980 -27.932  0.00  0.00    +0.108 C 
ATOM     16  C   UNL     1      35.460  -2.738 -27.563  0.00  0.00    +0.165 C 
ATOM     17  C   UNL     1      34.373  -2.992 -28.374  0.00  0.00    +0.022 C 
ATOM     18  H   UNL     1      35.827  -4.757 -24.401  0.00  0.00    +0.164 HD
ENDBRANCH   3  11
BRANCH   9  21
ATOM     19  N   UNL     1      32.198  -1.786 -22.134  0.00  0.00    -0.343 N 
ATOM     20  N   UNL     1      30.047  -2.593 -21.709  0.00  0.00    -0.285 NA
ATOM     21  C   UNL     1      31.301  -2.848 -22.037  0.00  0.00    +0.117 C 
ATOM     22  H   UNL     1      31.893  -0.866 -21.963  0.00  0.00    +0.144 HD
ATOM     23  H   UNL     1      33.139  -1.955 -22.374  0.00  0.00    +0.144 HD
ATOM     24  H   UNL     1      29.761  -1.665 -21.542  0.00  0.00    +0.188 HD
ENDBRANCH   9  21
BRANCH   4  27
ATOM     25  O   UNL     1      35.504 -10.017 -24.716  0.00  0.00    -0.270 OA
ATOM     26  N   UNL     1      33.601 -10.809 -23.594  0.00  0.00    -0.280 N 
ATOM     27  C   UNL     1      34.444  -9.812 -24.104  0.00  0.00    +0.250 C 
ATOM     28  H   UNL     1      32.793 -10.492 -23.132  0.00  0.00    +0.155 HD
BRANCH  26  29
ATOM     29  C   UNL     1      33.761 -12.216 -23.658  0.00  0.00    +0.051 C 
ATOM     30  C   UNL     1      34.074 -14.963 -23.784  0.00  0.00    -0.044 C 
ATOM     31  C   UNL     1      33.491 -12.873 -24.846  0.00  0.00    +0.014 C 
ATOM     32  C   UNL     1      34.183 -12.901 -22.531  0.00  0.00    +0.014 C 
ATOM     33  C   UNL     1      33.648 -14.258 -24.909  0.00  0.00    -0.005 C 
ATOM     34  C   UNL     1      34.340 -14.284 -22.595  0.00  0.00    -0.005 C 
BRANCH  30  35
ATOM     35  C   UNL     1      34.242 -16.443 -23.852  0.00  0.00    -0.059 C 
BRANCH  35  36
ATOM     36  N   UNL     1      35.373 -16.902 -23.086  0.00  0.00    +0.383 N 
ATOM     37  H   UNL     1      35.115 -16.964 -22.101  0.00  0.00    -0.089 HD
ATOM     38  H   UNL     1      36.146 -16.245 -23.194  0.00  0.00    -0.089 HD
ATOM     39  H   UNL     1      35.659 -17.822 -23.421  0.00  0.00    -0.089 HD
ENDBRANCH  35  36
ENDBRANCH  30  35
ENDBRANCH  26  29
ENDBRANCH   4  27
TORSDOF 6
ENDMDL
MODEL 6
REMARK VINA RESULT:      -9.5      2.674      9.669
REMARK  Name = 448605
REMARK  6 active torsions:
REMARK  status: ('A' for Active; 'I' for Inactive)
REMARK    1  A    between atoms: C_3  and  N_11
REMARK    2  A    between atoms: C_4  and  C_27
REMARK    3  A    between atoms: C_9  and  C_21
REMARK    4  A    between atoms: N_26  and  C_29
REMARK    5  A    between atoms: C_30  and  C_35
REMARK    6  A    between atoms: C_35  and  N_36
REMARK                            x       y       z     vdW  Elec       q    Type
REMARK                         _______ _______ _______ _____ _____    ______ ____
ROOT
ATOM      1  C   UNL     1      34.214 -22.051 -17.866  0.00  0.00    +0.014 C 
ATOM      2  C   UNL     1      35.612 -22.087 -17.647  0.00  0.00    +0.001 C 
ATOM      3  C   UNL     1      33.364 -22.744 -16.990  0.00  0.00    +0.057 C 
ATOM      4  C   UNL     1      35.258 -23.498 -15.697  0.00  0.00    +0.055 C 
ATOM      5  C   UNL     1      36.118 -22.815 -16.557  0.00  0.00    +0.005 C 
ATOM      6  C   UNL     1      33.883 -23.462 -15.913  0.00  0.00    +0.020 C 
ATOM      7  C   UNL     1      33.708 -21.323 -18.955  0.00  0.00    +0.004 C 
ATOM      8  C   UNL     1      36.462 -21.394 -18.524  0.00  0.00    +0.000 C 
ATOM      9  C   UNL     1      34.568 -20.639 -19.816  0.00  0.00    +0.031 C 
ATOM     10  C   UNL     1      35.943 -20.675 -19.600  0.00  0.00    +0.003 C 
ENDROOT
BRANCH   3  11
ATOM     11  N   UNL     1      31.957 -22.741 -17.163  0.00  0.00    -0.257 N 
ATOM     12  N   UNL     1      31.211 -22.767 -14.939  0.00  0.00    -0.180 NA
ATOM     13  N   UNL     1      29.644 -22.746 -16.769  0.00  0.00    -0.203 NA
ATOM     14  C   UNL     1      30.891 -22.752 -16.250  0.00  0.00    +0.091 C 
ATOM     15  C   UNL     1      30.162 -22.777 -14.090  0.00  0.00    +0.108 C 
ATOM     16  C   UNL     1      28.643 -22.757 -15.864  0.00  0.00    +0.165 C 
ATOM     17  C   UNL     1      28.844 -22.772 -14.500  0.00  0.00    +0.022 C 
ATOM     18  H   UNL     1      31.674 -22.730 -18.105  0.00  0.00    +0.164 HD
ENDBRANCH   3  11
BRANCH   9  21
ATOM     19  N   UNL     1      34.858 -19.163 -21.791  0.00  0.00    -0.343 N 
ATOM     20  N   UNL     1      32.727 -19.885 -21.163  0.00  0.00    -0.285 NA
ATOM     21  C   UNL     1      34.029 -19.889 -20.939  0.00  0.00    +0.117 C 
ATOM     22  H   UNL     1      34.472 -18.661 -22.545  0.00  0.00    +0.144 HD
ATOM     23  H   UNL     1      35.832 -19.150 -21.639  0.00  0.00    +0.144 HD
ATOM     24  H   UNL     1      32.360 -19.378 -21.923  0.00  0.00    +0.188 HD
ENDBRANCH   9  21
BRANCH   4  27
ATOM     25  O   UNL     1      35.870 -23.700 -13.462  0.00  0.00    -0.270 OA
ATOM     26  N   UNL     1      36.181 -25.568 -14.848  0.00  0.00    -0.280 N 
ATOM     27  C   UNL     1      35.798 -24.248 -14.574  0.00  0.00    +0.250 C 
ATOM     28  H   UNL     1      36.066 -25.863 -15.779  0.00  0.00    +0.155 HD
BRANCH  26  29
ATOM     29  C   UNL     1      36.712 -26.535 -13.958  0.00  0.00    +0.051 C 
ATOM     30  C   UNL     1      37.749 -28.423 -12.219  0.00  0.00    -0.044 C 
ATOM     31  C   UNL     1      36.875 -27.838 -14.394  0.00  0.00    +0.014 C 
ATOM     32  C   UNL     1      37.054 -26.154 -12.671  0.00  0.00    +0.014 C 
ATOM     33  C   UNL     1      37.397 -28.790 -13.518  0.00  0.00    -0.005 C 
ATOM     34  C   UNL     1      37.577 -27.105 -11.796  0.00  0.00    -0.005 C 
BRANCH  30  35
ATOM     35  C   UNL     1      38.307 -29.440 -11.283  0.00  0.00    -0.059 C 
BRANCH  35  36
ATOM     36  N   UNL     1      37.343 -29.871 -10.303  0.00  0.00    +0.383 N 
ATOM     37  H   UNL     1      37.369 -30.887 -10.222  0.00  0.00    -0.089 HD
ATOM     38  H   UNL     1      36.410 -29.577 -10.591  0.00  0.00    -0.089 HD
ATOM     39  H   UNL     1      37.567 -29.453  -9.400  0.00  0.00    -0.089 HD
ENDBRANCH  35  36
ENDBRANCH  30  35
ENDBRANCH  26  29
ENDBRANCH   4  27
TORSDOF 6
ENDMDL
