MODEL 1
REMARK VINA RESULT:     -12.3      0.000      0.000
REMARK  Name = 3815
REMARK  0 active torsions:
REMARK  status: ('A' for Active; 'I' for Inactive)
REMARK                            x       y       z     vdW  Elec       q    Type
REMARK                         _______ _______ _______ _____ _____    ______ ____
ROOT
ATOM      1  O   UNL     1      37.463 -22.285 -16.493  0.00  0.00    -0.270 OA
ATOM      2  N   UNL     1      30.948 -22.906 -16.909  0.00  0.00    -0.352 N 
ATOM      3  N   UNL     1      32.531 -21.584 -18.785  0.00  0.00    -0.352 N 
ATOM      4  N   UNL     1      36.524 -23.471 -14.698  0.00  0.00    -0.297 N 
ATOM      5  C   UNL     1      34.344 -23.364 -15.370  0.00  0.00    +0.003 A 
ATOM      6  C   UNL     1      32.976 -23.391 -15.634  0.00  0.00    +0.016 A 
ATOM      7  C   UNL     1      34.492 -22.128 -17.426  0.00  0.00    +0.022 A 
ATOM      8  C   UNL     1      32.290 -22.819 -16.753  0.00  0.00    +0.072 A 
ATOM      9  C   UNL     1      35.123 -22.698 -16.321  0.00  0.00    +0.053 A 
ATOM     10  C   UNL     1      33.083 -22.157 -17.693  0.00  0.00    +0.073 A 
ATOM     11  C   UNL     1      35.204 -23.898 -14.274  0.00  0.00    +0.117 C 
ATOM     12  C   UNL     1      31.768 -23.927 -14.998  0.00  0.00    +0.017 A 
ATOM     13  C   UNL     1      34.834 -21.364 -18.636  0.00  0.00    +0.017 A 
ATOM     14  C   UNL     1      30.599 -23.624 -15.773  0.00  0.00    +0.057 A 
ATOM     15  C   UNL     1      33.658 -21.065 -19.405  0.00  0.00    +0.057 A 
ATOM     16  C   UNL     1      36.517 -22.762 -15.898  0.00  0.00    +0.246 C 
ATOM     17  C   UNL     1      31.590 -24.659 -13.800  0.00  0.00    +0.001 C 
ATOM     18  C   UNL     1      36.071 -20.898 -19.145  0.00  0.00    +0.001 C 
ATOM     19  C   UNL     1      29.322 -24.035 -15.365  0.00  0.00    +0.017 C 
ATOM     20  C   UNL     1      33.724 -20.344 -20.606  0.00  0.00    +0.017 C 
ATOM     21  C   UNL     1      30.312 -25.064 -13.404  0.00  0.00    +0.000 C 
ATOM     22  C   UNL     1      36.125 -20.178 -20.344  0.00  0.00    +0.000 C 
ATOM     23  C   UNL     1      29.198 -24.755 -14.175  0.00  0.00    +0.001 C 
ATOM     24  C   UNL     1      34.967 -19.907 -21.062  0.00  0.00    +0.001 C 
ATOM     25  H   UNL     1      30.375 -22.555 -17.629  0.00  0.00    +0.166 HD
ATOM     26  H   UNL     1      31.588 -21.545 -19.065  0.00  0.00    +0.166 HD
ATOM     27  H   UNL     1      37.345 -23.663 -14.189  0.00  0.00    +0.150 HD
ENDROOT
TORSDOF 0
ENDMDL
MODEL 2
REMARK VINA RESULT:     -12.2      0.918      5.958
REMARK  Name = 3815
REMARK  0 active torsions:
REMARK  status: ('A' for Active; 'I' for Inactive)
REMARK                            x       y       z     vdW  Elec       q    Type
REMARK                         _______ _______ _______ _____ _____    ______ ____
ROOT
ATOM      1  O   UNL     1      34.993 -24.498 -13.546  0.00  0.00    -0.270 OA
ATOM      2  N   UNL     1      32.513 -21.522 -18.838  0.00  0.00    -0.352 N 
ATOM      3  N   UNL     1      30.995 -22.880 -16.934  0.00  0.00    -0.352 N 
ATOM      4  N   UNL     1      36.624 -23.476 -14.890  0.00  0.00    -0.297 N 
ATOM      5  C   UNL     1      35.223 -22.650 -16.494  0.00  0.00    +0.003 A 
ATOM      6  C   UNL     1      34.513 -22.081 -17.550  0.00  0.00    +0.016 A 
ATOM      7  C   UNL     1      33.065 -23.379 -15.727  0.00  0.00    +0.022 A 
ATOM      8  C   UNL     1      33.099 -22.113 -17.770  0.00  0.00    +0.072 A 
ATOM      9  C   UNL     1      34.447 -23.326 -15.548  0.00  0.00    +0.053 A 
ATOM     10  C   UNL     1      32.339 -22.793 -16.816  0.00  0.00    +0.073 A 
ATOM     11  C   UNL     1      36.667 -22.710 -16.122  0.00  0.00    +0.117 C 
ATOM     12  C   UNL     1      34.817 -21.302 -18.754  0.00  0.00    +0.017 A 
ATOM     13  C   UNL     1      31.873 -23.932 -15.063  0.00  0.00    +0.017 A 
ATOM     14  C   UNL     1      33.622 -20.993 -19.484  0.00  0.00    +0.057 A 
ATOM     15  C   UNL     1      30.682 -23.617 -15.802  0.00  0.00    +0.057 A 
ATOM     16  C   UNL     1      35.335 -23.856 -14.521  0.00  0.00    +0.246 C 
ATOM     17  C   UNL     1      36.046 -20.834 -19.278  0.00  0.00    +0.001 C 
ATOM     18  C   UNL     1      31.714 -24.685 -13.875  0.00  0.00    +0.001 C 
ATOM     19  C   UNL     1      33.660 -20.253 -20.674  0.00  0.00    +0.017 C 
ATOM     20  C   UNL     1      29.414 -24.035 -15.371  0.00  0.00    +0.017 C 
ATOM     21  C   UNL     1      36.072 -20.097 -20.466  0.00  0.00    +0.000 C 
ATOM     22  C   UNL     1      30.445 -25.098 -13.455  0.00  0.00    +0.000 C 
ATOM     23  C   UNL     1      34.897 -19.813 -21.151  0.00  0.00    +0.001 C 
ATOM     24  C   UNL     1      29.313 -24.776 -14.194  0.00  0.00    +0.001 C 
ATOM     25  H   UNL     1      31.562 -21.480 -19.089  0.00  0.00    +0.166 HD
ATOM     26  H   UNL     1      30.402 -22.518 -17.630  0.00  0.00    +0.166 HD
ATOM     27  H   UNL     1      37.426 -23.704 -14.367  0.00  0.00    +0.150 HD
ENDROOT
TORSDOF 0
ENDMDL
MODEL 3
REMARK VINA RESULT:     -11.6      2.192      4.699
REMARK  Name = 3815
REMARK  0 active torsions:
REMARK  status: ('A' for Active; 'I' for Inactive)
REMARK                            x       y       z     vdW  Elec       q    Type
REMARK                         _______ _______ _______ _____ _____    ______ ____
ROOT
ATOM      1  O   UNL     1      31.084 -22.617 -16.861  0.00  0.00    -0.270 OA
ATOM      2  N   UNL     1      37.416 -23.314 -15.305  0.00  0.00    -0.352 N 
ATOM      3  N   UNL     1      36.485 -22.005 -17.584  0.00  0.00    -0.352 N 
ATOM      4  N   UNL     1      31.427 -23.788 -14.856  0.00  0.00    -0.297 N 
ATOM      5  C   UNL     1      33.709 -23.714 -14.846  0.00  0.00    +0.003 A 
ATOM      6  C   UNL     1      35.093 -23.758 -14.689  0.00  0.00    +0.016 A 
ATOM      7  C   UNL     1      34.200 -22.506 -16.866  0.00  0.00    +0.022 A 
ATOM      8  C   UNL     1      36.091 -23.211 -15.558  0.00  0.00    +0.072 A 
ATOM      9  C   UNL     1      33.259 -23.053 -15.993  0.00  0.00    +0.053 A 
ATOM     10  C   UNL     1      35.624 -22.555 -16.700  0.00  0.00    +0.073 A 
ATOM     11  C   UNL     1      32.553 -24.223 -14.052  0.00  0.00    +0.117 C 
ATOM     12  C   UNL     1      36.048 -24.299 -13.716  0.00  0.00    +0.017 A 
ATOM     13  C   UNL     1      34.246 -21.759 -18.133  0.00  0.00    +0.017 A 
ATOM     14  C   UNL     1      37.399 -24.020 -14.109  0.00  0.00    +0.057 A 
ATOM     15  C   UNL     1      35.602 -21.485 -18.519  0.00  0.00    +0.057 A 
ATOM     16  C   UNL     1      31.802 -23.097 -16.006  0.00  0.00    +0.246 C 
ATOM     17  C   UNL     1      35.849 -25.016 -12.512  0.00  0.00    +0.001 C 
ATOM     18  C   UNL     1      33.225 -21.288 -18.993  0.00  0.00    +0.001 C 
ATOM     19  C   UNL     1      38.490 -24.438 -13.335  0.00  0.00    +0.017 C 
ATOM     20  C   UNL     1      35.909 -20.784 -19.694  0.00  0.00    +0.017 C 
ATOM     21  C   UNL     1      36.945 -25.428 -11.747  0.00  0.00    +0.000 C 
ATOM     22  C   UNL     1      33.542 -20.590 -20.164  0.00  0.00    +0.000 C 
ATOM     23  C   UNL     1      38.243 -25.143 -12.154  0.00  0.00    +0.001 C 
ATOM     24  C   UNL     1      34.865 -20.342 -20.507  0.00  0.00    +0.001 C 
ATOM     25  H   UNL     1      38.183 -22.981 -15.825  0.00  0.00    +0.166 HD
ATOM     26  H   UNL     1      37.469 -21.978 -17.568  0.00  0.00    +0.166 HD
ATOM     27  H   UNL     1      30.489 -23.964 -14.613  0.00  0.00    +0.150 HD
ENDROOT
TORSDOF 0
ENDMDL
MODEL 4
REMARK VINA RESULT:     -11.4      2.311      6.706
REMARK  Name = 3815
REMARK  0 active torsions:
REMARK  status: ('A' for Active; 'I' for Inactive)
REMARK                            x       y       z     vdW  Elec       q    Type
REMARK                         _______ _______ _______ _____ _____    ______ ____
ROOT
ATOM      1  O   UNL     1      32.284 -24.692 -12.748  0.00  0.00    -0.270 OA
ATOM      2  N   UNL     1      36.578 -22.093 -16.968  0.00  0.00    -0.352 N 
ATOM      3  N   UNL     1      37.257 -23.170 -14.488  0.00  0.00    -0.352 N 
ATOM      4  N   UNL     1      31.288 -23.898 -14.719  0.00  0.00    -0.297 N 
ATOM      5  C   UNL     1      33.188 -23.149 -15.740  0.00  0.00    +0.003 A 
ATOM      6  C   UNL     1      34.244 -22.643 -16.497  0.00  0.00    +0.016 A 
ATOM      7  C   UNL     1      34.890 -23.674 -14.126  0.00  0.00    +0.022 A 
ATOM      8  C   UNL     1      35.633 -22.612 -16.151  0.00  0.00    +0.072 A 
ATOM      9  C   UNL     1      33.546 -23.686 -14.500  0.00  0.00    +0.053 A 
ATOM     10  C   UNL     1      35.972 -23.152 -14.908  0.00  0.00    +0.073 A 
ATOM     11  C   UNL     1      31.715 -23.256 -15.949  0.00  0.00    +0.117 C 
ATOM     12  C   UNL     1      34.419 -22.000 -17.804  0.00  0.00    +0.017 A 
ATOM     13  C   UNL     1      35.738 -24.088 -12.996  0.00  0.00    +0.017 A 
ATOM     14  C   UNL     1      35.799 -21.691 -18.046  0.00  0.00    +0.057 A 
ATOM     15  C   UNL     1      37.117 -23.775 -13.248  0.00  0.00    +0.057 A 
ATOM     16  C   UNL     1      32.337 -24.166 -13.843  0.00  0.00    +0.246 C 
ATOM     17  C   UNL     1      33.483 -21.656 -18.808  0.00  0.00    +0.001 C 
ATOM     18  C   UNL     1      35.435 -24.714 -11.763  0.00  0.00    +0.001 C 
ATOM     19  C   UNL     1      36.215 -21.072 -19.232  0.00  0.00    +0.017 C 
ATOM     20  C   UNL     1      38.124 -24.073 -12.318  0.00  0.00    +0.017 C 
ATOM     21  C   UNL     1      33.910 -21.038 -19.988  0.00  0.00    +0.000 C 
ATOM     22  C   UNL     1      36.446 -25.005 -10.842  0.00  0.00    +0.000 C 
ATOM     23  C   UNL     1      35.254 -20.751 -20.194  0.00  0.00    +0.001 C 
ATOM     24  C   UNL     1      37.770 -24.689 -11.117  0.00  0.00    +0.001 C 
ATOM     25  H   UNL     1      37.550 -22.018 -16.836  0.00  0.00    +0.166 HD
ATOM     26  H   UNL     1      38.069 -22.844 -14.938  0.00  0.00    +0.166 HD
ATOM     27  H   UNL     1      30.349 -24.123 -14.524  0.00  0.00    +0.150 HD
ENDROOT
TORSDOF 0
ENDMDL
MODEL 5
REMARK VINA RESULT:     -11.1      2.004      6.427
REMARK  Name = 3815
REMARK  0 active torsions:
REMARK  status: ('A' for Active; 'I' for Inactive)
REMARK                            x       y       z     vdW  Elec       q    Type
REMARK                         _______ _______ _______ _____ _____    ______ ____
ROOT
ATOM      1  O   UNL     1      32.166 -24.630 -13.787  0.00  0.00    -0.270 OA
ATOM      2  N   UNL     1      36.216 -21.703 -18.034  0.00  0.00    -0.352 N 
ATOM      3  N   UNL     1      37.045 -23.099 -15.768  0.00  0.00    -0.352 N 
ATOM      4  N   UNL     1      31.050 -23.565 -15.555  0.00  0.00    -0.297 N 
ATOM      5  C   UNL     1      32.892 -22.770 -16.645  0.00  0.00    +0.003 A 
ATOM      6  C   UNL     1      33.905 -22.217 -17.427  0.00  0.00    +0.016 A 
ATOM      7  C   UNL     1      34.695 -23.553 -15.260  0.00  0.00    +0.022 A 
ATOM      8  C   UNL     1      35.318 -22.281 -17.203  0.00  0.00    +0.072 A 
ATOM      9  C   UNL     1      33.326 -23.468 -15.513  0.00  0.00    +0.053 A 
ATOM     10  C   UNL     1      35.733 -22.981 -16.068  0.00  0.00    +0.073 A 
ATOM     11  C   UNL     1      31.403 -22.796 -16.734  0.00  0.00    +0.117 C 
ATOM     12  C   UNL     1      34.002 -21.427 -18.659  0.00  0.00    +0.017 A 
ATOM     13  C   UNL     1      35.612 -24.133 -14.266  0.00  0.00    +0.017 A 
ATOM     14  C   UNL     1      35.370 -21.145 -18.984  0.00  0.00    +0.057 A 
ATOM     15  C   UNL     1      36.979 -23.844 -14.600  0.00  0.00    +0.057 A 
ATOM     16  C   UNL     1      32.153 -23.977 -14.812  0.00  0.00    +0.246 C 
ATOM     17  C   UNL     1      33.004 -20.928 -19.529  0.00  0.00    +0.001 C 
ATOM     18  C   UNL     1      35.383 -24.892 -13.093  0.00  0.00    +0.001 C 
ATOM     19  C   UNL     1      35.716 -20.402 -20.121  0.00  0.00    +0.017 C 
ATOM     20  C   UNL     1      38.045 -24.291 -13.804  0.00  0.00    +0.017 C 
ATOM     21  C   UNL     1      33.360 -20.188 -20.661  0.00  0.00    +0.000 C 
ATOM     22  C   UNL     1      36.452 -25.331 -12.306  0.00  0.00    +0.000 C 
ATOM     23  C   UNL     1      34.695 -19.930 -20.950  0.00  0.00    +0.001 C 
ATOM     24  C   UNL     1      37.763 -25.034 -12.658  0.00  0.00    +0.001 C 
ATOM     25  H   UNL     1      37.198 -21.682 -17.981  0.00  0.00    +0.166 HD
ATOM     26  H   UNL     1      37.832 -22.752 -16.246  0.00  0.00    +0.166 HD
ATOM     27  H   UNL     1      30.121 -23.775 -15.305  0.00  0.00    +0.150 HD
ENDROOT
TORSDOF 0
ENDMDL
MODEL 6
REMARK VINA RESULT:     -10.4      2.262      5.990
REMARK  Name = 3815
REMARK  0 active torsions:
REMARK  status: ('A' for Active; 'I' for Inactive)
REMARK                            x       y       z     vdW  Elec       q    Type
REMARK                         _______ _______ _______ _____ _____    ______ ____
ROOT
ATOM      1  O   UNL     1      32.351 -21.758 -18.563  0.00  0.00    -0.270 OA
ATOM      2  N   UNL     1      34.440 -24.746 -13.112  0.00  0.00    -0.352 N 
ATOM      3  N   UNL     1      31.759 -24.402 -13.795  0.00  0.00    -0.352 N 
ATOM      4  N   UNL     1      34.690 -21.829 -18.378  0.00  0.00    -0.297 N 
ATOM      5  C   UNL     1      34.804 -22.933 -16.382  0.00  0.00    +0.003 A 
ATOM      6  C   UNL     1      35.049 -23.595 -15.180  0.00  0.00    +0.016 A 
ATOM      7  C   UNL     1      32.487 -23.265 -15.836  0.00  0.00    +0.022 A 
ATOM      8  C   UNL     1      34.087 -24.118 -14.257  0.00  0.00    +0.072 A 
ATOM      9  C   UNL     1      33.455 -22.769 -16.710  0.00  0.00    +0.053 A 
ATOM     10  C   UNL     1      32.744 -23.945 -14.600  0.00  0.00    +0.073 A 
ATOM     11  C   UNL     1      35.673 -22.337 -17.438  0.00  0.00    +0.117 C 
ATOM     12  C   UNL     1      36.219 -24.011 -14.400  0.00  0.00    +0.017 A 
ATOM     13  C   UNL     1      31.022 -23.344 -15.722  0.00  0.00    +0.017 A 
ATOM     14  C   UNL     1      35.825 -24.682 -13.196  0.00  0.00    +0.057 A 
ATOM     15  C   UNL     1      30.637 -24.018 -14.513  0.00  0.00    +0.057 A 
ATOM     16  C   UNL     1      33.375 -22.065 -17.983  0.00  0.00    +0.246 C 
ATOM     17  C   UNL     1      37.605 -23.858 -14.643  0.00  0.00    +0.001 C 
ATOM     18  C   UNL     1      29.979 -22.891 -16.566  0.00  0.00    +0.001 C 
ATOM     19  C   UNL     1      36.771 -25.173 -12.286  0.00  0.00    +0.017 C 
ATOM     20  C   UNL     1      29.290 -24.219 -14.177  0.00  0.00    +0.017 C 
ATOM     21  C   UNL     1      38.541 -24.352 -13.728  0.00  0.00    +0.000 C 
ATOM     22  C   UNL     1      28.639 -23.096 -16.221  0.00  0.00    +0.000 C 
ATOM     23  C   UNL     1      38.128 -24.998 -12.569  0.00  0.00    +0.001 C 
ATOM     24  C   UNL     1      28.302 -23.751 -15.043  0.00  0.00    +0.001 C 
ATOM     25  H   UNL     1      33.872 -25.141 -12.411  0.00  0.00    +0.166 HD
ATOM     26  H   UNL     1      31.821 -24.877 -12.936  0.00  0.00    +0.166 HD
ATOM     27  H   UNL     1      34.929 -21.365 -19.212  0.00  0.00    +0.150 HD
ENDROOT
TORSDOF 0
ENDMDL
MODEL 7
REMARK VINA RESULT:     -10.2      1.895      4.750
REMARK  Name = 3815
REMARK  0 active torsions:
REMARK  status: ('A' for Active; 'I' for Inactive)
REMARK                            x       y       z     vdW  Elec       q    Type
REMARK                         _______ _______ _______ _____ _____    ______ ____
ROOT
ATOM      1  O   UNL     1      36.576 -22.151 -17.641  0.00  0.00    -0.270 OA
ATOM      2  N   UNL     1      31.655 -24.397 -13.933  0.00  0.00    -0.352 N 
ATOM      3  N   UNL     1      34.358 -24.711 -13.328  0.00  0.00    -0.352 N 
ATOM      4  N   UNL     1      34.453 -21.671 -18.520  0.00  0.00    -0.297 N 
ATOM      5  C   UNL     1      33.212 -22.652 -16.873  0.00  0.00    +0.003 A 
ATOM      6  C   UNL     1      32.313 -23.200 -15.959  0.00  0.00    +0.016 A 
ATOM      7  C   UNL     1      34.899 -23.499 -15.384  0.00  0.00    +0.022 A 
ATOM      8  C   UNL     1      32.615 -23.904 -14.750  0.00  0.00    +0.072 A 
ATOM      9  C   UNL     1      34.563 -22.818 -16.554  0.00  0.00    +0.053 A 
ATOM     10  C   UNL     1      33.970 -24.061 -14.447  0.00  0.00    +0.073 A 
ATOM     11  C   UNL     1      33.068 -21.904 -18.156  0.00  0.00    +0.117 C 
ATOM     12  C   UNL     1      30.858 -23.307 -15.815  0.00  0.00    +0.017 A 
ATOM     13  C   UNL     1      36.098 -23.917 -14.640  0.00  0.00    +0.017 A 
ATOM     14  C   UNL     1      30.509 -24.014 -14.617  0.00  0.00    +0.057 A 
ATOM     15  C   UNL     1      35.738 -24.624 -13.442  0.00  0.00    +0.057 A 
ATOM     16  C   UNL     1      35.362 -22.193 -17.602  0.00  0.00    +0.246 C 
ATOM     17  C   UNL     1      29.802 -22.844 -16.635  0.00  0.00    +0.001 C 
ATOM     18  C   UNL     1      37.480 -23.747 -14.896  0.00  0.00    +0.001 C 
ATOM     19  C   UNL     1      29.172 -24.242 -14.262  0.00  0.00    +0.017 C 
ATOM     20  C   UNL     1      36.707 -25.127 -12.562  0.00  0.00    +0.017 C 
ATOM     21  C   UNL     1      28.471 -23.077 -16.272  0.00  0.00    +0.000 C 
ATOM     22  C   UNL     1      38.438 -24.253 -14.012  0.00  0.00    +0.000 C 
ATOM     23  C   UNL     1      28.164 -23.765 -15.104  0.00  0.00    +0.001 C 
ATOM     24  C   UNL     1      38.056 -24.932 -12.862  0.00  0.00    +0.001 C 
ATOM     25  H   UNL     1      31.744 -24.891 -13.086  0.00  0.00    +0.166 HD
ATOM     26  H   UNL     1      33.813 -25.130 -12.624  0.00  0.00    +0.166 HD
ATOM     27  H   UNL     1      34.725 -21.189 -19.335  0.00  0.00    +0.150 HD
ENDROOT
TORSDOF 0
ENDMDL
