MODEL 1
REMARK VINA RESULT:     -12.3      0.000      0.000
REMARK  Name = 9998128
REMARK  2 active torsions:
REMARK  status: ('A' for Active; 'I' for Inactive)
REMARK    1  A    between atoms: N_1  and  C_15
REMARK    2  A    between atoms: C_7  and  C_24
REMARK                            x       y       z     vdW  Elec       q    Type
REMARK                         _______ _______ _______ _____ _____    ______ ____
ROOT
ATOM      1  N   UNL     1      35.793 -22.787 -15.561  0.00  0.00    -0.290 N 
ATOM      2  N   UNL     1      33.461 -23.029 -15.765  0.00  0.00    -0.327 NA
ATOM      3  N   UNL     1      32.326 -22.346 -17.777  0.00  0.00    -0.342 NA
ATOM      4  C   UNL     1      34.703 -22.081 -17.610  0.00  0.00    +0.143 C 
ATOM      5  C   UNL     1      34.615 -22.629 -16.332  0.00  0.00    +0.184 C 
ATOM      6  C   UNL     1      33.495 -21.956 -18.314  0.00  0.00    +0.133 C 
ATOM      7  C   UNL     1      32.372 -22.861 -16.532  0.00  0.00    +0.165 C 
ATOM      8  C   UNL     1      35.920 -21.669 -18.181  0.00  0.00    -0.011 C 
ATOM      9  C   UNL     1      33.543 -21.411 -19.595  0.00  0.00    +0.029 C 
ATOM     10  C   UNL     1      35.939 -21.129 -19.462  0.00  0.00    -0.004 C 
ATOM     11  C   UNL     1      34.749 -21.000 -20.171  0.00  0.00    +0.002 C 
ATOM     12  H   UNL     1      36.487 -22.114 -15.753  0.00  0.00    +0.154 HD
ENDROOT
BRANCH   1  15
ATOM     13  N   UNL     1      37.248 -26.215 -11.503  0.00  0.00    -0.236 N 
ATOM     14  N   UNL     1      37.338 -25.421 -10.423  0.00  0.00    -0.180 NA
ATOM     15  C   UNL     1      36.162 -23.715 -14.576  0.00  0.00    +0.050 C 
ATOM     16  C   UNL     1      36.738 -24.230 -12.282  0.00  0.00    +0.037 C 
ATOM     17  C   UNL     1      36.892 -25.562 -12.651  0.00  0.00    +0.067 C 
ATOM     18  C   UNL     1      36.367 -23.285 -13.254  0.00  0.00    +0.018 C 
ATOM     19  C   UNL     1      36.327 -25.065 -14.913  0.00  0.00    +0.016 C 
ATOM     20  C   UNL     1      36.695 -26.017 -13.957  0.00  0.00    +0.017 C 
ATOM     21  C   UNL     1      37.026 -24.214 -10.901  0.00  0.00    +0.119 C 
ATOM     22  H   UNL     1      37.424 -27.183 -11.471  0.00  0.00    +0.174 HD
ENDBRANCH   1  15
BRANCH   7  24
ATOM     23  N   UNL     1      30.019 -22.725 -16.530  0.00  0.00    -0.398 NA
ATOM     24  C   UNL     1      31.117 -23.277 -15.964  0.00  0.00    +0.197 C 
ATOM     25  C   UNL     1      31.070 -24.179 -14.910  0.00  0.00    +0.098 C 
ATOM     26  C   UNL     1      28.824 -23.096 -16.018  0.00  0.00    +0.110 C 
ATOM     27  C   UNL     1      29.823 -24.535 -14.410  0.00  0.00    -0.016 C 
ATOM     28  C   UNL     1      28.672 -23.988 -14.969  0.00  0.00    +0.023 C 
ATOM     29  C   UNL     1      27.612 -22.488 -16.642  0.00  0.00    +0.066 C 
ENDBRANCH   7  24
TORSDOF 2
ENDMDL
MODEL 2
REMARK VINA RESULT:     -12.0      0.550      1.438
REMARK  Name = 9998128
REMARK  2 active torsions:
REMARK  status: ('A' for Active; 'I' for Inactive)
REMARK    1  A    between atoms: N_1  and  C_15
REMARK    2  A    between atoms: C_7  and  C_24
REMARK                            x       y       z     vdW  Elec       q    Type
REMARK                         _______ _______ _______ _____ _____    ______ ____
ROOT
ATOM      1  N   UNL     1      35.791 -22.934 -15.406  0.00  0.00    -0.290 N 
ATOM      2  N   UNL     1      33.461 -23.162 -15.646  0.00  0.00    -0.327 NA
ATOM      3  N   UNL     1      32.355 -22.423 -17.655  0.00  0.00    -0.342 NA
ATOM      4  C   UNL     1      34.731 -22.172 -17.450  0.00  0.00    +0.143 C 
ATOM      5  C   UNL     1      34.623 -22.752 -16.188  0.00  0.00    +0.184 C 
ATOM      6  C   UNL     1      33.533 -22.024 -18.167  0.00  0.00    +0.133 C 
ATOM      7  C   UNL     1      32.383 -22.970 -16.423  0.00  0.00    +0.165 C 
ATOM      8  C   UNL     1      35.957 -21.751 -17.994  0.00  0.00    -0.011 C 
ATOM      9  C   UNL     1      33.600 -21.448 -19.433  0.00  0.00    +0.029 C 
ATOM     10  C   UNL     1      35.995 -21.179 -19.261  0.00  0.00    -0.004 C 
ATOM     11  C   UNL     1      34.815 -21.027 -19.982  0.00  0.00    +0.002 C 
ATOM     12  H   UNL     1      36.490 -22.260 -15.571  0.00  0.00    +0.154 HD
ENDROOT
BRANCH   1  15
ATOM     13  N   UNL     1      37.193 -26.877 -11.824  0.00  0.00    -0.236 N 
ATOM     14  N   UNL     1      37.360 -27.968 -12.590  0.00  0.00    -0.180 NA
ATOM     15  C   UNL     1      36.144 -23.889 -14.439  0.00  0.00    +0.050 C 
ATOM     16  C   UNL     1      36.763 -26.152 -13.849  0.00  0.00    +0.037 C 
ATOM     17  C   UNL     1      36.834 -25.754 -12.519  0.00  0.00    +0.067 C 
ATOM     18  C   UNL     1      36.413 -25.211 -14.831  0.00  0.00    +0.018 C 
ATOM     19  C   UNL     1      36.223 -23.522 -13.090  0.00  0.00    +0.016 C 
ATOM     20  C   UNL     1      36.571 -24.447 -12.100  0.00  0.00    +0.017 C 
ATOM     21  C   UNL     1      37.098 -27.523 -13.822  0.00  0.00    +0.119 C 
ATOM     22  H   UNL     1      37.318 -26.886 -10.848  0.00  0.00    +0.174 HD
ENDBRANCH   1  15
BRANCH   7  24
ATOM     23  N   UNL     1      30.029 -22.860 -16.480  0.00  0.00    -0.398 NA
ATOM     24  C   UNL     1      31.118 -23.394 -15.882  0.00  0.00    +0.197 C 
ATOM     25  C   UNL     1      31.055 -24.288 -14.822  0.00  0.00    +0.098 C 
ATOM     26  C   UNL     1      28.826 -23.239 -15.994  0.00  0.00    +0.110 C 
ATOM     27  C   UNL     1      29.800 -24.654 -14.349  0.00  0.00    -0.016 C 
ATOM     28  C   UNL     1      28.658 -24.124 -14.942  0.00  0.00    +0.023 C 
ATOM     29  C   UNL     1      27.623 -22.651 -16.653  0.00  0.00    +0.066 C 
ENDBRANCH   7  24
TORSDOF 2
ENDMDL
MODEL 3
REMARK VINA RESULT:     -11.6      1.885      6.851
REMARK  Name = 9998128
REMARK  2 active torsions:
REMARK  status: ('A' for Active; 'I' for Inactive)
REMARK    1  A    between atoms: N_1  and  C_15
REMARK    2  A    between atoms: C_7  and  C_24
REMARK                            x       y       z     vdW  Elec       q    Type
REMARK                         _______ _______ _______ _____ _____    ______ ____
ROOT
ATOM      1  N   UNL     1      33.038 -23.761 -13.694  0.00  0.00    -0.290 N 
ATOM      2  N   UNL     1      34.222 -22.916 -15.544  0.00  0.00    -0.327 NA
ATOM      3  N   UNL     1      36.623 -23.090 -15.651  0.00  0.00    -0.342 NA
ATOM      4  C   UNL     1      35.455 -23.963 -13.748  0.00  0.00    +0.143 C 
ATOM      5  C   UNL     1      34.274 -23.538 -14.351  0.00  0.00    +0.184 C 
ATOM      6  C   UNL     1      36.639 -23.709 -14.457  0.00  0.00    +0.133 C 
ATOM      7  C   UNL     1      35.416 -22.727 -16.129  0.00  0.00    +0.165 C 
ATOM      8  C   UNL     1      35.483 -24.611 -12.500  0.00  0.00    -0.011 C 
ATOM      9  C   UNL     1      37.841 -24.120 -13.885  0.00  0.00    +0.029 C 
ATOM     10  C   UNL     1      36.697 -25.011 -11.952  0.00  0.00    -0.004 C 
ATOM     11  C   UNL     1      37.878 -24.765 -12.645  0.00  0.00    +0.002 C 
ATOM     12  H   UNL     1      33.106 -23.765 -12.711  0.00  0.00    +0.154 HD
ENDROOT
BRANCH   1  15
ATOM     13  N   UNL     1      27.942 -24.344 -15.700  0.00  0.00    -0.236 N 
ATOM     14  N   UNL     1      27.736 -23.214 -16.398  0.00  0.00    -0.180 NA
ATOM     15  C   UNL     1      31.736 -23.975 -14.173  0.00  0.00    +0.050 C 
ATOM     16  C   UNL     1      29.815 -23.233 -15.442  0.00  0.00    +0.037 C 
ATOM     17  C   UNL     1      29.170 -24.417 -15.103  0.00  0.00    +0.067 C 
ATOM     18  C   UNL     1      31.119 -23.000 -14.974  0.00  0.00    +0.018 C 
ATOM     19  C   UNL     1      31.058 -25.157 -13.849  0.00  0.00    +0.016 C 
ATOM     20  C   UNL     1      29.760 -25.403 -14.308  0.00  0.00    +0.017 C 
ATOM     21  C   UNL     1      28.878 -22.541 -16.239  0.00  0.00    +0.119 C 
ATOM     22  H   UNL     1      27.267 -25.057 -15.627  0.00  0.00    +0.174 HD
ENDBRANCH   1  15
BRANCH   7  24
ATOM     23  N   UNL     1      34.182 -21.895 -17.958  0.00  0.00    -0.398 NA
ATOM     24  C   UNL     1      35.406 -22.065 -17.407  0.00  0.00    +0.197 C 
ATOM     25  C   UNL     1      36.586 -21.644 -18.006  0.00  0.00    +0.098 C 
ATOM     26  C   UNL     1      34.140 -21.277 -19.159  0.00  0.00    +0.110 C 
ATOM     27  C   UNL     1      36.503 -21.012 -19.241  0.00  0.00    -0.016 C 
ATOM     28  C   UNL     1      35.260 -20.820 -19.836  0.00  0.00    +0.023 C 
ATOM     29  C   UNL     1      32.791 -21.089 -19.768  0.00  0.00    +0.066 C 
ENDBRANCH   7  24
TORSDOF 2
ENDMDL
MODEL 4
REMARK VINA RESULT:     -11.3      1.890      6.180
REMARK  Name = 9998128
REMARK  2 active torsions:
REMARK  status: ('A' for Active; 'I' for Inactive)
REMARK    1  A    between atoms: N_1  and  C_15
REMARK    2  A    between atoms: C_7  and  C_24
REMARK                            x       y       z     vdW  Elec       q    Type
REMARK                         _______ _______ _______ _____ _____    ______ ____
ROOT
ATOM      1  N   UNL     1      35.239 -22.693 -16.851  0.00  0.00    -0.290 N 
ATOM      2  N   UNL     1      33.254 -23.379 -15.790  0.00  0.00    -0.327 NA
ATOM      3  N   UNL     1      33.248 -23.967 -13.454  0.00  0.00    -0.342 NA
ATOM      4  C   UNL     1      35.293 -23.273 -14.497  0.00  0.00    +0.143 C 
ATOM      5  C   UNL     1      34.572 -23.129 -15.679  0.00  0.00    +0.184 C 
ATOM      6  C   UNL     1      34.566 -23.708 -13.377  0.00  0.00    +0.133 C 
ATOM      7  C   UNL     1      32.664 -23.788 -14.656  0.00  0.00    +0.165 C 
ATOM      8  C   UNL     1      36.670 -23.006 -14.406  0.00  0.00    -0.011 C 
ATOM      9  C   UNL     1      35.253 -23.865 -12.176  0.00  0.00    +0.029 C 
ATOM     10  C   UNL     1      37.332 -23.171 -13.193  0.00  0.00    -0.004 C 
ATOM     11  C   UNL     1      36.622 -23.601 -12.077  0.00  0.00    +0.002 C 
ATOM     12  H   UNL     1      36.187 -22.958 -16.891  0.00  0.00    +0.154 HD
ENDROOT
BRANCH   1  15
ATOM     13  N   UNL     1      33.831 -19.725 -21.272  0.00  0.00    -0.236 N 
ATOM     14  N   UNL     1      34.997 -19.224 -21.712  0.00  0.00    -0.180 NA
ATOM     15  C   UNL     1      34.810 -21.956 -17.966  0.00  0.00    +0.050 C 
ATOM     16  C   UNL     1      35.299 -20.519 -19.850  0.00  0.00    +0.037 C 
ATOM     17  C   UNL     1      33.943 -20.511 -20.158  0.00  0.00    +0.067 C 
ATOM     18  C   UNL     1      35.749 -21.251 -18.738  0.00  0.00    +0.018 C 
ATOM     19  C   UNL     1      33.451 -21.927 -18.304  0.00  0.00    +0.016 C 
ATOM     20  C   UNL     1      32.989 -21.203 -19.408  0.00  0.00    +0.017 C 
ATOM     21  C   UNL     1      35.888 -19.709 -20.844  0.00  0.00    +0.119 C 
ATOM     22  H   UNL     1      32.970 -19.543 -21.714  0.00  0.00    +0.174 HD
ENDBRANCH   1  15
BRANCH   7  24
ATOM     23  N   UNL     1      30.541 -23.220 -15.507  0.00  0.00    -0.398 NA
ATOM     24  C   UNL     1      31.254 -24.067 -14.730  0.00  0.00    +0.197 C 
ATOM     25  C   UNL     1      30.696 -25.135 -14.041  0.00  0.00    +0.098 C 
ATOM     26  C   UNL     1      29.212 -23.455 -15.597  0.00  0.00    +0.110 C 
ATOM     27  C   UNL     1      29.327 -25.345 -14.157  0.00  0.00    -0.016 C 
ATOM     28  C   UNL     1      28.563 -24.493 -14.948  0.00  0.00    +0.023 C 
ATOM     29  C   UNL     1      28.424 -22.522 -16.453  0.00  0.00    +0.066 C 
ENDBRANCH   7  24
TORSDOF 2
ENDMDL
MODEL 5
REMARK VINA RESULT:     -10.5      1.955      7.452
REMARK  Name = 9998128
REMARK  2 active torsions:
REMARK  status: ('A' for Active; 'I' for Inactive)
REMARK    1  A    between atoms: N_1  and  C_15
REMARK    2  A    between atoms: C_7  and  C_24
REMARK                            x       y       z     vdW  Elec       q    Type
REMARK                         _______ _______ _______ _____ _____    ______ ____
ROOT
ATOM      1  N   UNL     1      32.091 -22.225 -17.008  0.00  0.00    -0.290 N 
ATOM      2  N   UNL     1      33.382 -22.933 -15.172  0.00  0.00    -0.327 NA
ATOM      3  N   UNL     1      32.471 -24.459 -13.545  0.00  0.00    -0.342 NA
ATOM      4  C   UNL     1      31.123 -23.762 -15.401  0.00  0.00    +0.143 C 
ATOM      5  C   UNL     1      32.205 -22.995 -15.824  0.00  0.00    +0.184 C 
ATOM      6  C   UNL     1      31.309 -24.498 -14.221  0.00  0.00    +0.133 C 
ATOM      7  C   UNL     1      33.444 -23.678 -14.058  0.00  0.00    +0.165 C 
ATOM      8  C   UNL     1      29.903 -23.810 -16.099  0.00  0.00    -0.011 C 
ATOM      9  C   UNL     1      30.248 -25.277 -13.766  0.00  0.00    +0.029 C 
ATOM     10  C   UNL     1      28.860 -24.596 -15.623  0.00  0.00    -0.004 C 
ATOM     11  C   UNL     1      29.032 -25.331 -14.454  0.00  0.00    +0.002 C 
ATOM     12  H   UNL     1      31.175 -21.913 -17.193  0.00  0.00    +0.154 HD
ENDROOT
BRANCH   1  15
ATOM     13  N   UNL     1      35.572 -20.480 -20.904  0.00  0.00    -0.236 N 
ATOM     14  N   UNL     1      34.819 -19.680 -21.678  0.00  0.00    -0.180 NA
ATOM     15  C   UNL     1      33.031 -21.819 -17.969  0.00  0.00    +0.050 C 
ATOM     16  C   UNL     1      33.598 -20.554 -19.952  0.00  0.00    +0.037 C 
ATOM     17  C   UNL     1      34.898 -21.035 -19.851  0.00  0.00    +0.067 C 
ATOM     18  C   UNL     1      32.642 -20.947 -18.999  0.00  0.00    +0.018 C 
ATOM     19  C   UNL     1      34.350 -22.286 -17.897  0.00  0.00    +0.016 C 
ATOM     20  C   UNL     1      35.312 -21.903 -18.837  0.00  0.00    +0.017 C 
ATOM     21  C   UNL     1      33.619 -19.728 -21.095  0.00  0.00    +0.119 C 
ATOM     22  H   UNL     1      36.525 -20.650 -21.080  0.00  0.00    +0.174 HD
ENDBRANCH   1  15
BRANCH   7  24
ATOM     23  N   UNL     1      34.615 -24.079 -12.051  0.00  0.00    -0.398 NA
ATOM     24  C   UNL     1      34.685 -23.641 -13.329  0.00  0.00    +0.197 C 
ATOM     25  C   UNL     1      35.853 -23.183 -13.924  0.00  0.00    +0.098 C 
ATOM     26  C   UNL     1      35.765 -24.056 -11.340  0.00  0.00    +0.110 C 
ATOM     27  C   UNL     1      37.015 -23.174 -13.162  0.00  0.00    -0.016 C 
ATOM     28  C   UNL     1      36.979 -23.618 -11.843  0.00  0.00    +0.023 C 
ATOM     29  C   UNL     1      35.689 -24.538  -9.930  0.00  0.00    +0.066 C 
ENDBRANCH   7  24
TORSDOF 2
ENDMDL
MODEL 6
REMARK VINA RESULT:     -10.2      1.465      6.782
REMARK  Name = 9998128
REMARK  2 active torsions:
REMARK  status: ('A' for Active; 'I' for Inactive)
REMARK    1  A    between atoms: N_1  and  C_15
REMARK    2  A    between atoms: C_7  and  C_24
REMARK                            x       y       z     vdW  Elec       q    Type
REMARK                         _______ _______ _______ _____ _____    ______ ____
ROOT
ATOM      1  N   UNL     1      32.197 -22.788 -17.132  0.00  0.00    -0.290 N 
ATOM      2  N   UNL     1      33.933 -23.273 -15.620  0.00  0.00    -0.327 NA
ATOM      3  N   UNL     1      36.209 -22.668 -16.126  0.00  0.00    -0.342 NA
ATOM      4  C   UNL     1      34.470 -22.156 -17.694  0.00  0.00    +0.143 C 
ATOM      5  C   UNL     1      33.574 -22.740 -16.802  0.00  0.00    +0.184 C 
ATOM      6  C   UNL     1      35.817 -22.143 -17.300  0.00  0.00    +0.133 C 
ATOM      7  C   UNL     1      35.246 -23.205 -15.349  0.00  0.00    +0.165 C 
ATOM      8  C   UNL     1      34.071 -21.605 -18.925  0.00  0.00    -0.011 C 
ATOM      9  C   UNL     1      36.743 -21.568 -18.167  0.00  0.00    +0.029 C 
ATOM     10  C   UNL     1      35.016 -21.036 -19.772  0.00  0.00    -0.004 C 
ATOM     11  C   UNL     1      36.355 -21.018 -19.392  0.00  0.00    +0.002 C 
ATOM     12  H   UNL     1      32.021 -22.842 -18.100  0.00  0.00    +0.154 HD
ENDROOT
BRANCH   1  15
ATOM     13  N   UNL     1      27.481 -22.682 -14.287  0.00  0.00    -0.236 N 
ATOM     14  N   UNL     1      26.543 -22.455 -15.222  0.00  0.00    -0.180 NA
ATOM     15  C   UNL     1      31.034 -22.774 -16.346  0.00  0.00    +0.050 C 
ATOM     16  C   UNL     1      28.633 -22.547 -16.149  0.00  0.00    +0.037 C 
ATOM     17  C   UNL     1      28.756 -22.749 -14.778  0.00  0.00    +0.067 C 
ATOM     18  C   UNL     1      29.785 -22.558 -16.953  0.00  0.00    +0.018 C 
ATOM     19  C   UNL     1      31.122 -22.973 -14.962  0.00  0.00    +0.016 C 
ATOM     20  C   UNL     1      29.985 -22.965 -14.149  0.00  0.00    +0.017 C 
ATOM     21  C   UNL     1      27.247 -22.373 -16.353  0.00  0.00    +0.119 C 
ATOM     22  H   UNL     1      27.269 -22.792 -13.332  0.00  0.00    +0.174 HD
ENDBRANCH   1  15
BRANCH   7  24
ATOM     23  N   UNL     1      36.966 -24.163 -14.053  0.00  0.00    -0.398 NA
ATOM     24  C   UNL     1      35.673 -23.764 -14.094  0.00  0.00    +0.197 C 
ATOM     25  C   UNL     1      34.798 -23.874 -13.022  0.00  0.00    +0.098 C 
ATOM     26  C   UNL     1      37.397 -24.693 -12.886  0.00  0.00    +0.110 C 
ATOM     27  C   UNL     1      35.278 -24.425 -11.840  0.00  0.00    -0.016 C 
ATOM     28  C   UNL     1      36.602 -24.845 -11.762  0.00  0.00    +0.023 C 
ATOM     29  C   UNL     1      38.822 -25.133 -12.839  0.00  0.00    +0.066 C 
ENDBRANCH   7  24
TORSDOF 2
ENDMDL
MODEL 7
REMARK VINA RESULT:      -9.8      1.988      6.152
REMARK  Name = 9998128
REMARK  2 active torsions:
REMARK  status: ('A' for Active; 'I' for Inactive)
REMARK    1  A    between atoms: N_1  and  C_15
REMARK    2  A    between atoms: C_7  and  C_24
REMARK                            x       y       z     vdW  Elec       q    Type
REMARK                         _______ _______ _______ _____ _____    ______ ____
ROOT
ATOM      1  N   UNL     1      35.695 -23.069 -16.173  0.00  0.00    -0.290 N 
ATOM      2  N   UNL     1      33.537 -23.338 -15.276  0.00  0.00    -0.327 NA
ATOM      3  N   UNL     1      33.232 -23.887 -12.950  0.00  0.00    -0.342 NA
ATOM      4  C   UNL     1      35.449 -23.622 -13.825  0.00  0.00    +0.143 C 
ATOM      5  C   UNL     1      34.865 -23.352 -15.060  0.00  0.00    +0.184 C 
ATOM      6  C   UNL     1      34.564 -23.891 -12.768  0.00  0.00    +0.133 C 
ATOM      7  C   UNL     1      32.791 -23.610 -14.194  0.00  0.00    +0.165 C 
ATOM      8  C   UNL     1      36.840 -23.630 -13.624  0.00  0.00    -0.011 C 
ATOM      9  C   UNL     1      35.110 -24.167 -11.517  0.00  0.00    +0.029 C 
ATOM     10  C   UNL     1      37.359 -23.908 -12.364  0.00  0.00    -0.004 C 
ATOM     11  C   UNL     1      36.493 -24.177 -11.309  0.00  0.00    +0.002 C 
ATOM     12  H   UNL     1      36.573 -23.516 -16.139  0.00  0.00    +0.154 HD
ENDROOT
BRANCH   1  15
ATOM     13  N   UNL     1      34.685 -20.020 -20.648  0.00  0.00    -0.236 N 
ATOM     14  N   UNL     1      33.358 -20.135 -20.827  0.00  0.00    -0.180 NA
ATOM     15  C   UNL     1      35.509 -22.276 -17.317  0.00  0.00    +0.050 C 
ATOM     16  C   UNL     1      34.056 -21.326 -19.002  0.00  0.00    +0.037 C 
ATOM     17  C   UNL     1      35.167 -20.711 -19.570  0.00  0.00    +0.067 C 
ATOM     18  C   UNL     1      34.222 -22.123 -17.857  0.00  0.00    +0.018 C 
ATOM     19  C   UNL     1      36.606 -21.643 -17.914  0.00  0.00    +0.016 C 
ATOM     20  C   UNL     1      36.458 -20.846 -19.054  0.00  0.00    +0.017 C 
ATOM     21  C   UNL     1      32.979 -20.930 -19.823  0.00  0.00    +0.119 C 
ATOM     22  H   UNL     1      35.259 -19.485 -21.241  0.00  0.00    +0.174 HD
ENDBRANCH   1  15
BRANCH   7  24
ATOM     23  N   UNL     1      30.759 -24.805 -14.212  0.00  0.00    -0.398 NA
ATOM     24  C   UNL     1      31.363 -23.607 -14.381  0.00  0.00    +0.197 C 
ATOM     25  C   UNL     1      30.686 -22.441 -14.711  0.00  0.00    +0.098 C 
ATOM     26  C   UNL     1      29.417 -24.834 -14.381  0.00  0.00    +0.110 C 
ATOM     27  C   UNL     1      29.308 -22.511 -14.877  0.00  0.00    -0.016 C 
ATOM     28  C   UNL     1      28.653 -23.727 -14.711  0.00  0.00    +0.023 C 
ATOM     29  C   UNL     1      28.749 -26.155 -14.196  0.00  0.00    +0.066 C 
ENDBRANCH   7  24
TORSDOF 2
ENDMDL
MODEL 8
REMARK VINA RESULT:      -9.7      1.547      6.465
REMARK  Name = 9998128
REMARK  2 active torsions:
REMARK  status: ('A' for Active; 'I' for Inactive)
REMARK    1  A    between atoms: N_1  and  C_15
REMARK    2  A    between atoms: C_7  and  C_24
REMARK                            x       y       z     vdW  Elec       q    Type
REMARK                         _______ _______ _______ _____ _____    ______ ____
ROOT
ATOM      1  N   UNL     1      32.636 -22.837 -17.415  0.00  0.00    -0.290 N 
ATOM      2  N   UNL     1      34.531 -23.175 -16.061  0.00  0.00    -0.327 NA
ATOM      3  N   UNL     1      36.670 -22.264 -16.691  0.00  0.00    -0.342 NA
ATOM      4  C   UNL     1      34.764 -21.897 -18.099  0.00  0.00    +0.143 C 
ATOM      5  C   UNL     1      34.019 -22.633 -17.182  0.00  0.00    +0.184 C 
ATOM      6  C   UNL     1      36.127 -21.735 -17.802  0.00  0.00    +0.133 C 
ATOM      7  C   UNL     1      35.843 -22.956 -15.882  0.00  0.00    +0.165 C 
ATOM      8  C   UNL     1      34.207 -21.340 -19.263  0.00  0.00    -0.011 C 
ATOM      9  C   UNL     1      36.906 -21.005 -18.697  0.00  0.00    +0.029 C 
ATOM     10  C   UNL     1      35.007 -20.615 -20.140  0.00  0.00    -0.004 C 
ATOM     11  C   UNL     1      36.359 -20.447 -19.856  0.00  0.00    +0.002 C 
ATOM     12  H   UNL     1      32.394 -22.865 -18.370  0.00  0.00    +0.154 HD
ENDROOT
BRANCH   1  15
ATOM     13  N   UNL     1      28.185 -23.396 -14.219  0.00  0.00    -0.236 N 
ATOM     14  N   UNL     1      27.183 -22.905 -14.968  0.00  0.00    -0.180 NA
ATOM     15  C   UNL     1      31.545 -23.009 -16.549  0.00  0.00    +0.050 C 
ATOM     16  C   UNL     1      29.182 -22.791 -16.076  0.00  0.00    +0.037 C 
ATOM     17  C   UNL     1      29.410 -23.356 -14.826  0.00  0.00    +0.067 C 
ATOM     18  C   UNL     1      30.261 -22.611 -16.958  0.00  0.00    +0.018 C 
ATOM     19  C   UNL     1      31.740 -23.575 -15.283  0.00  0.00    +0.016 C 
ATOM     20  C   UNL     1      30.676 -23.761 -14.394  0.00  0.00    +0.017 C 
ATOM     21  C   UNL     1      27.794 -22.538 -16.097  0.00  0.00    +0.119 C 
ATOM     22  H   UNL     1      28.049 -23.753 -13.312  0.00  0.00    +0.174 HD
ENDBRANCH   1  15
BRANCH   7  24
ATOM     23  N   UNL     1      35.627 -23.538 -13.608  0.00  0.00    -0.398 NA
ATOM     24  C   UNL     1      36.432 -23.519 -14.695  0.00  0.00    +0.197 C 
ATOM     25  C   UNL     1      37.734 -23.998 -14.699  0.00  0.00    +0.098 C 
ATOM     26  C   UNL     1      36.152 -24.061 -12.477  0.00  0.00    +0.110 C 
ATOM     27  C   UNL     1      38.239 -24.528 -13.517  0.00  0.00    -0.016 C 
ATOM     28  C   UNL     1      37.439 -24.564 -12.379  0.00  0.00    +0.023 C 
ATOM     29  C   UNL     1      35.266 -24.082 -11.276  0.00  0.00    +0.066 C 
ENDBRANCH   7  24
TORSDOF 2
ENDMDL
MODEL 9
REMARK VINA RESULT:      -9.7      1.907      5.978
REMARK  Name = 9998128
REMARK  2 active torsions:
REMARK  status: ('A' for Active; 'I' for Inactive)
REMARK    1  A    between atoms: N_1  and  C_15
REMARK    2  A    between atoms: C_7  and  C_24
REMARK                            x       y       z     vdW  Elec       q    Type
REMARK                         _______ _______ _______ _____ _____    ______ ____
ROOT
ATOM      1  N   UNL     1      32.128 -22.683 -17.564  0.00  0.00    -0.290 N 
ATOM      2  N   UNL     1      34.387 -22.780 -16.911  0.00  0.00    -0.327 NA
ATOM      3  N   UNL     1      36.071 -21.556 -18.124  0.00  0.00    -0.342 NA
ATOM      4  C   UNL     1      33.781 -21.431 -18.823  0.00  0.00    +0.143 C 
ATOM      5  C   UNL     1      33.474 -22.288 -17.769  0.00  0.00    +0.184 C 
ATOM      6  C   UNL     1      35.133 -21.083 -18.964  0.00  0.00    +0.133 C 
ATOM      7  C   UNL     1      35.647 -22.379 -17.143  0.00  0.00    +0.165 C 
ATOM      8  C   UNL     1      32.809 -20.931 -19.707  0.00  0.00    -0.011 C 
ATOM      9  C   UNL     1      35.480 -20.227 -20.007  0.00  0.00    +0.029 C 
ATOM     10  C   UNL     1      33.182 -20.077 -20.740  0.00  0.00    -0.004 C 
ATOM     11  C   UNL     1      34.520 -19.725 -20.890  0.00  0.00    +0.002 C 
ATOM     12  H   UNL     1      31.594 -22.721 -18.391  0.00  0.00    +0.154 HD
ENDROOT
BRANCH   1  15
ATOM     13  N   UNL     1      29.546 -24.164 -12.930  0.00  0.00    -0.236 N 
ATOM     14  N   UNL     1      30.505 -24.757 -12.199  0.00  0.00    -0.180 NA
ATOM     15  C   UNL     1      31.409 -23.031 -16.410  0.00  0.00    +0.050 C 
ATOM     16  C   UNL     1      31.322 -24.034 -14.211  0.00  0.00    +0.037 C 
ATOM     17  C   UNL     1      29.972 -23.708 -14.148  0.00  0.00    +0.067 C 
ATOM     18  C   UNL     1      32.060 -23.694 -15.356  0.00  0.00    +0.018 C 
ATOM     19  C   UNL     1      30.047 -22.718 -16.314  0.00  0.00    +0.016 C 
ATOM     20  C   UNL     1      29.299 -23.050 -15.180  0.00  0.00    +0.017 C 
ATOM     21  C   UNL     1      31.584 -24.676 -12.981  0.00  0.00    +0.119 C 
ATOM     22  H   UNL     1      28.618 -24.066 -12.616  0.00  0.00    +0.174 HD
ENDBRANCH   1  15
BRANCH   7  24
ATOM     23  N   UNL     1      36.239 -23.845 -15.395  0.00  0.00    -0.398 NA
ATOM     24  C   UNL     1      36.656 -22.881 -16.248  0.00  0.00    +0.197 C 
ATOM     25  C   UNL     1      37.953 -22.390 -16.282  0.00  0.00    +0.098 C 
ATOM     26  C   UNL     1      37.164 -24.337 -14.540  0.00  0.00    +0.110 C 
ATOM     27  C   UNL     1      38.876 -22.920 -15.388  0.00  0.00    -0.016 C 
ATOM     28  C   UNL     1      38.482 -23.914 -14.497  0.00  0.00    +0.023 C 
ATOM     29  C   UNL     1      36.706 -25.400 -13.599  0.00  0.00    +0.066 C 
ENDBRANCH   7  24
TORSDOF 2
ENDMDL
