MODEL 1
REMARK VINA RESULT:     -12.2      0.000      0.000
REMARK  Name = 11538992
REMARK  4 active torsions:
REMARK  status: ('A' for Active; 'I' for Inactive)
REMARK    1  A    between atoms: C_1  and  N_7
REMARK    2  A    between atoms: C_3  and  C_24
REMARK    3  A    between atoms: C_4  and  N_30
REMARK    4  A    between atoms: C_15  and  C_20
REMARK                            x       y       z     vdW  Elec       q    Type
REMARK                         _______ _______ _______ _____ _____    ______ ____
ROOT
ATOM      1  C   UNL     1      33.363 -11.499 -23.255  0.00  0.00    -0.059 C 
ATOM      2  C   UNL     1      34.445 -10.416 -23.319  0.00  0.00    -0.042 C 
ATOM      3  C   UNL     1      32.920  -8.818 -22.053  0.00  0.00    +0.005 C 
ATOM      4  C   UNL     1      33.830  -9.006 -23.294  0.00  0.00    -0.064 C 
ATOM      5  C   UNL     1      32.479 -11.320 -22.018  0.00  0.00    -0.021 C 
ATOM      6  C   UNL     1      31.852  -9.927 -21.982  0.00  0.00    +0.000 C 
ENDROOT
BRANCH   1   7
ATOM      7  N   UNL     1      33.987 -12.822 -23.229  0.00  0.00    +0.394 N 
ATOM      8  N   UNL     1      34.427 -15.565 -23.049  0.00  0.00    -0.299 N 
ATOM      9  N   UNL     1      33.975 -16.011 -25.136  0.00  0.00    -0.136 NA
ATOM     10  N   UNL     1      34.493 -17.149 -24.537  0.00  0.00    -0.125 NA
ATOM     11  C   UNL     1      33.788 -13.469 -21.919  0.00  0.00    -0.052 C 
ATOM     12  C   UNL     1      33.454 -13.663 -24.321  0.00  0.00    -0.009 C 
ATOM     13  C   UNL     1      34.580 -14.784 -21.844  0.00  0.00    +0.086 C 
ATOM     14  C   UNL     1      33.946 -15.062 -24.224  0.00  0.00    +0.122 A 
ATOM     15  C   UNL     1      34.759 -16.856 -23.282  0.00  0.00    +0.238 A 
ATOM     16  H   UNL     1      34.991 -12.708 -23.373  0.00  0.00    -0.079 HD
BRANCH  15  20
ATOM     17  F   UNL     1      36.639 -18.112 -22.498  0.00  0.00    -0.163 F 
ATOM     18  F   UNL     1      35.352 -17.224 -20.994  0.00  0.00    -0.163 F 
ATOM     19  F   UNL     1      34.660 -18.938 -22.139  0.00  0.00    -0.163 F 
ATOM     20  C   UNL     1      35.334 -17.750 -22.263  0.00  0.00    +0.452 C 
ENDBRANCH  15  20
ENDBRANCH   1   7
BRANCH   3  24
ATOM     21  F   UNL     1      32.570  -7.360 -19.643  0.00  0.00    -0.204 F 
ATOM     22  F   UNL     1      30.746  -5.027 -24.241  0.00  0.00    -0.202 F 
ATOM     23  F   UNL     1      30.474  -3.735 -21.848  0.00  0.00    -0.202 F 
ATOM     24  C   UNL     1      32.260  -7.447 -21.995  0.00  0.00    +0.005 C 
ATOM     25  C   UNL     1      32.124  -6.794 -20.773  0.00  0.00    +0.138 C 
ATOM     26  C   UNL     1      31.798  -6.856 -23.166  0.00  0.00    +0.030 C 
ATOM     27  C   UNL     1      31.193  -5.601 -23.117  0.00  0.00    +0.167 C 
ATOM     28  C   UNL     1      31.520  -5.539 -20.724  0.00  0.00    +0.061 C 
ATOM     29  C   UNL     1      31.054  -4.942 -21.895  0.00  0.00    +0.170 C 
ENDBRANCH   3  24
BRANCH   4  30
ATOM     30  N   UNL     1      34.904  -8.007 -23.307  0.00  0.00    +0.382 N 
ATOM     31  H   UNL     1      34.808  -7.416 -24.133  0.00  0.00    -0.089 HD
ATOM     32  H   UNL     1      35.807  -8.479 -23.330  0.00  0.00    -0.089 HD
ATOM     33  H   UNL     1      34.842  -7.430 -22.468  0.00  0.00    -0.089 HD
ENDBRANCH   4  30
TORSDOF 4
ENDMDL
MODEL 2
REMARK VINA RESULT:     -11.8      1.314      1.677
REMARK  Name = 11538992
REMARK  4 active torsions:
REMARK  status: ('A' for Active; 'I' for Inactive)
REMARK    1  A    between atoms: C_1  and  N_7
REMARK    2  A    between atoms: C_3  and  C_24
REMARK    3  A    between atoms: C_4  and  N_30
REMARK    4  A    between atoms: C_15  and  C_20
REMARK                            x       y       z     vdW  Elec       q    Type
REMARK                         _______ _______ _______ _____ _____    ______ ____
ROOT
ATOM      1  C   UNL     1      34.072 -12.118 -22.387  0.00  0.00    -0.059 C 
ATOM      2  C   UNL     1      32.580 -12.086 -22.040  0.00  0.00    -0.042 C 
ATOM      3  C   UNL     1      32.430  -9.696 -22.905  0.00  0.00    +0.005 C 
ATOM      4  C   UNL     1      32.106 -10.655 -21.731  0.00  0.00    -0.064 C 
ATOM      5  C   UNL     1      34.384 -11.184 -23.559  0.00  0.00    -0.021 C 
ATOM      6  C   UNL     1      33.927  -9.756 -23.265  0.00  0.00    +0.000 C 
ENDROOT
BRANCH   1   7
ATOM      7  N   UNL     1      34.474 -13.483 -22.723  0.00  0.00    +0.394 N 
ATOM      8  N   UNL     1      34.497 -16.236 -23.138  0.00  0.00    -0.299 N 
ATOM      9  N   UNL     1      33.658 -16.175 -25.151  0.00  0.00    -0.136 NA
ATOM     10  N   UNL     1      34.076 -17.468 -24.880  0.00  0.00    -0.125 NA
ATOM     11  C   UNL     1      34.384 -14.362 -21.542  0.00  0.00    -0.052 C 
ATOM     12  C   UNL     1      33.650 -14.004 -23.834  0.00  0.00    -0.009 C 
ATOM     13  C   UNL     1      34.959 -15.750 -21.860  0.00  0.00    +0.086 C 
ATOM     14  C   UNL     1      33.923 -15.443 -24.090  0.00  0.00    +0.122 A 
ATOM     15  C   UNL     1      34.580 -17.481 -23.664  0.00  0.00    +0.238 A 
ATOM     16  H   UNL     1      35.448 -13.467 -23.027  0.00  0.00    -0.079 HD
BRANCH  15  20
ATOM     17  F   UNL     1      36.498 -18.511 -22.674  0.00  0.00    -0.163 F 
ATOM     18  F   UNL     1      34.581 -18.894 -21.734  0.00  0.00    -0.163 F 
ATOM     19  F   UNL     1      35.053 -19.810 -23.649  0.00  0.00    -0.163 F 
ATOM     20  C   UNL     1      35.159 -18.633 -22.953  0.00  0.00    +0.452 C 
ENDBRANCH  15  20
ENDBRANCH   1   7
BRANCH   3  24
ATOM     21  F   UNL     1      32.666  -8.450 -20.367  0.00  0.00    -0.204 F 
ATOM     22  F   UNL     1      30.583  -5.435 -24.427  0.00  0.00    -0.202 F 
ATOM     23  F   UNL     1      30.867  -4.361 -21.930  0.00  0.00    -0.202 F 
ATOM     24  C   UNL     1      32.008  -8.257 -22.639  0.00  0.00    +0.005 C 
ATOM     25  C   UNL     1      32.156  -7.716 -21.366  0.00  0.00    +0.138 C 
ATOM     26  C   UNL     1      31.479  -7.494 -23.674  0.00  0.00    +0.030 C 
ATOM     27  C   UNL     1      31.092  -6.175 -23.435  0.00  0.00    +0.167 C 
ATOM     28  C   UNL     1      31.769  -6.398 -21.126  0.00  0.00    +0.061 C 
ATOM     29  C   UNL     1      31.237  -5.628 -22.160  0.00  0.00    +0.170 C 
ENDBRANCH   3  24
BRANCH   4  30
ATOM     30  N   UNL     1      30.666 -10.669 -21.454  0.00  0.00    +0.382 N 
ATOM     31  H   UNL     1      30.251 -11.510 -21.856  0.00  0.00    -0.089 HD
ATOM     32  H   UNL     1      30.232  -9.845 -21.868  0.00  0.00    -0.089 HD
ATOM     33  H   UNL     1      30.513 -10.664 -20.445  0.00  0.00    -0.089 HD
ENDBRANCH   4  30
TORSDOF 4
ENDMDL
MODEL 3
REMARK VINA RESULT:     -11.6      7.985     11.962
REMARK  Name = 11538992
REMARK  4 active torsions:
REMARK  status: ('A' for Active; 'I' for Inactive)
REMARK    1  A    between atoms: C_1  and  N_7
REMARK    2  A    between atoms: C_3  and  C_24
REMARK    3  A    between atoms: C_4  and  N_30
REMARK    4  A    between atoms: C_15  and  C_20
REMARK                            x       y       z     vdW  Elec       q    Type
REMARK                         _______ _______ _______ _____ _____    ______ ____
ROOT
ATOM      1  C   UNL     1      34.861 -22.094 -18.701  0.00  0.00    -0.059 C 
ATOM      2  C   UNL     1      36.088 -21.179 -18.772  0.00  0.00    -0.042 C 
ATOM      3  C   UNL     1      34.788 -19.550 -20.235  0.00  0.00    +0.005 C 
ATOM      4  C   UNL     1      36.102 -20.358 -20.073  0.00  0.00    -0.064 C 
ATOM      5  C   UNL     1      33.567 -21.289 -18.842  0.00  0.00    -0.021 C 
ATOM      6  C   UNL     1      33.559 -20.475 -20.134  0.00  0.00    +0.000 C 
ENDROOT
BRANCH   1   7
ATOM      7  N   UNL     1      34.856 -22.819 -17.430  0.00  0.00    +0.394 N 
ATOM      8  N   UNL     1      34.668 -23.481 -14.733  0.00  0.00    -0.299 N 
ATOM      9  N   UNL     1      32.510 -23.798 -14.721  0.00  0.00    -0.136 NA
ATOM     10  N   UNL     1      33.029 -24.214 -13.505  0.00  0.00    -0.125 NA
ATOM     11  C   UNL     1      35.872 -22.273 -16.512  0.00  0.00    -0.052 C 
ATOM     12  C   UNL     1      33.512 -22.776 -16.818  0.00  0.00    -0.009 C 
ATOM     13  C   UNL     1      35.973 -23.138 -15.246  0.00  0.00    +0.086 C 
ATOM     14  C   UNL     1      33.514 -23.363 -15.452  0.00  0.00    +0.122 A 
ATOM     15  C   UNL     1      34.330 -24.015 -13.536  0.00  0.00    +0.238 A 
ATOM     16  H   UNL     1      35.093 -23.794 -17.615  0.00  0.00    -0.079 HD
BRANCH  15  20
ATOM     17  F   UNL     1      36.025 -23.233 -12.039  0.00  0.00    -0.163 F 
ATOM     18  F   UNL     1      34.742 -24.831 -11.325  0.00  0.00    -0.163 F 
ATOM     19  F   UNL     1      36.245 -25.242 -12.843  0.00  0.00    -0.163 F 
ATOM     20  C   UNL     1      35.301 -24.318 -12.471  0.00  0.00    +0.452 C 
ENDBRANCH  15  20
ENDBRANCH   1   7
BRANCH   3  24
ATOM     21  F   UNL     1      35.515 -16.811 -20.385  0.00  0.00    -0.204 F 
ATOM     22  F   UNL     1      33.862 -19.197 -25.021  0.00  0.00    -0.202 F 
ATOM     23  F   UNL     1      34.592 -16.563 -25.019  0.00  0.00    -0.202 F 
ATOM     24  C   UNL     1      34.736 -18.742 -21.524  0.00  0.00    +0.005 C 
ATOM     25  C   UNL     1      35.108 -17.401 -21.517  0.00  0.00    +0.138 C 
ATOM     26  C   UNL     1      34.315 -19.352 -22.701  0.00  0.00    +0.030 C 
ATOM     27  C   UNL     1      34.266 -18.615 -23.884  0.00  0.00    +0.167 C 
ATOM     28  C   UNL     1      35.059 -16.664 -22.700  0.00  0.00    +0.061 C 
ATOM     29  C   UNL     1      34.638 -17.270 -23.883  0.00  0.00    +0.170 C 
ENDBRANCH   3  24
BRANCH   4  30
ATOM     30  N   UNL     1      37.265 -19.465 -20.073  0.00  0.00    +0.382 N 
ATOM     31  H   UNL     1      37.554 -19.284 -19.112  0.00  0.00    -0.089 HD
ATOM     32  H   UNL     1      37.017 -18.584 -20.524  0.00  0.00    -0.089 HD
ATOM     33  H   UNL     1      38.032 -19.904 -20.581  0.00  0.00    -0.089 HD
ENDBRANCH   4  30
TORSDOF 4
ENDMDL
MODEL 4
REMARK VINA RESULT:     -11.5      0.875      1.591
REMARK  Name = 11538992
REMARK  4 active torsions:
REMARK  status: ('A' for Active; 'I' for Inactive)
REMARK    1  A    between atoms: C_1  and  N_7
REMARK    2  A    between atoms: C_3  and  C_24
REMARK    3  A    between atoms: C_4  and  N_30
REMARK    4  A    between atoms: C_15  and  C_20
REMARK                            x       y       z     vdW  Elec       q    Type
REMARK                         _______ _______ _______ _____ _____    ______ ____
ROOT
ATOM      1  C   UNL     1      33.360 -11.881 -23.197  0.00  0.00    -0.059 C 
ATOM      2  C   UNL     1      34.408 -10.783 -23.402  0.00  0.00    -0.042 C 
ATOM      3  C   UNL     1      33.004  -9.182 -22.006  0.00  0.00    +0.005 C 
ATOM      4  C   UNL     1      33.774  -9.383 -23.336  0.00  0.00    -0.064 C 
ATOM      5  C   UNL     1      32.615 -11.690 -21.873  0.00  0.00    -0.021 C 
ATOM      6  C   UNL     1      31.971 -10.307 -21.795  0.00  0.00    +0.000 C 
ENDROOT
BRANCH   1   7
ATOM      7  N   UNL     1      34.006 -13.194 -23.215  0.00  0.00    +0.394 N 
ATOM      8  N   UNL     1      34.504 -15.929 -23.071  0.00  0.00    -0.299 N 
ATOM      9  N   UNL     1      33.930 -16.378 -25.128  0.00  0.00    -0.136 NA
ATOM     10  N   UNL     1      34.503 -17.508 -24.566  0.00  0.00    -0.125 NA
ATOM     11  C   UNL     1      33.901 -13.847 -21.897  0.00  0.00    -0.052 C 
ATOM     12  C   UNL     1      33.421 -14.041 -24.274  0.00  0.00    -0.009 C 
ATOM     13  C   UNL     1      34.718 -15.148 -21.876  0.00  0.00    +0.086 C 
ATOM     14  C   UNL     1      33.942 -15.432 -24.212  0.00  0.00    +0.122 A 
ATOM     15  C   UNL     1      34.842 -17.214 -23.329  0.00  0.00    +0.238 A 
ATOM     16  H   UNL     1      34.997 -13.062 -23.420  0.00  0.00    -0.079 HD
BRANCH  15  20
ATOM     17  F   UNL     1      36.838 -17.865 -22.181  0.00  0.00    -0.163 F 
ATOM     18  F   UNL     1      34.974 -18.023 -21.082  0.00  0.00    -0.163 F 
ATOM     19  F   UNL     1      35.414 -19.429 -22.682  0.00  0.00    -0.163 F 
ATOM     20  C   UNL     1      35.495 -18.100 -22.351  0.00  0.00    +0.452 C 
ENDBRANCH  15  20
ENDBRANCH   1   7
BRANCH   3  24
ATOM     21  F   UNL     1      31.294  -8.135 -24.014  0.00  0.00    -0.204 F 
ATOM     22  F   UNL     1      32.132  -5.021 -19.597  0.00  0.00    -0.202 F 
ATOM     23  F   UNL     1      30.508  -4.136 -21.609  0.00  0.00    -0.202 F 
ATOM     24  C   UNL     1      32.330  -7.821 -21.901  0.00  0.00    +0.005 C 
ATOM     25  C   UNL     1      31.504  -7.376 -22.929  0.00  0.00    +0.138 C 
ATOM     26  C   UNL     1      32.545  -7.032 -20.776  0.00  0.00    +0.030 C 
ATOM     27  C   UNL     1      31.929  -5.785 -20.677  0.00  0.00    +0.167 C 
ATOM     28  C   UNL     1      30.888  -6.129 -22.830  0.00  0.00    +0.061 C 
ATOM     29  C   UNL     1      31.101  -5.333 -21.705  0.00  0.00    +0.170 C 
ENDBRANCH   3  24
BRANCH   4  30
ATOM     30  N   UNL     1      34.822  -8.367 -23.489  0.00  0.00    +0.382 N 
ATOM     31  H   UNL     1      34.764  -7.702 -22.718  0.00  0.00    -0.089 HD
ATOM     32  H   UNL     1      34.692  -7.875 -24.372  0.00  0.00    -0.089 HD
ATOM     33  H   UNL     1      35.737  -8.818 -23.481  0.00  0.00    -0.089 HD
ENDBRANCH   4  30
TORSDOF 4
ENDMDL
MODEL 5
REMARK VINA RESULT:     -11.4      7.102     11.183
REMARK  Name = 11538992
REMARK  4 active torsions:
REMARK  status: ('A' for Active; 'I' for Inactive)
REMARK    1  A    between atoms: C_1  and  N_7
REMARK    2  A    between atoms: C_3  and  C_24
REMARK    3  A    between atoms: C_4  and  N_30
REMARK    4  A    between atoms: C_15  and  C_20
REMARK                            x       y       z     vdW  Elec       q    Type
REMARK                         _______ _______ _______ _____ _____    ______ ____
ROOT
ATOM      1  C   UNL     1      35.338 -21.442 -19.402  0.00  0.00    -0.059 C 
ATOM      2  C   UNL     1      36.517 -20.466 -19.472  0.00  0.00    -0.042 C 
ATOM      3  C   UNL     1      35.071 -18.811 -20.757  0.00  0.00    +0.005 C 
ATOM      4  C   UNL     1      36.427 -19.563 -20.714  0.00  0.00    -0.064 C 
ATOM      5  C   UNL     1      34.003 -20.693 -19.426  0.00  0.00    -0.021 C 
ATOM      6  C   UNL     1      33.892 -19.799 -20.659  0.00  0.00    +0.000 C 
ENDROOT
BRANCH   1   7
ATOM      7  N   UNL     1      35.432 -22.246 -18.184  0.00  0.00    +0.394 N 
ATOM      8  N   UNL     1      35.357 -23.105 -15.537  0.00  0.00    -0.299 N 
ATOM      9  N   UNL     1      33.247 -23.661 -15.533  0.00  0.00    -0.136 NA
ATOM     10  N   UNL     1      33.827 -24.097 -14.352  0.00  0.00    -0.125 NA
ATOM     11  C   UNL     1      36.394 -21.653 -17.237  0.00  0.00    -0.052 C 
ATOM     12  C   UNL     1      34.100 -22.395 -17.561  0.00  0.00    -0.009 C 
ATOM     13  C   UNL     1      36.608 -22.585 -16.034  0.00  0.00    +0.086 C 
ATOM     14  C   UNL     1      34.186 -23.068 -16.239  0.00  0.00    +0.122 A 
ATOM     15  C   UNL     1      35.097 -23.753 -14.377  0.00  0.00    +0.238 A 
ATOM     16  H   UNL     1      35.773 -23.175 -18.436  0.00  0.00    -0.079 HD
BRANCH  15  20
ATOM     17  F   UNL     1      37.199 -24.729 -13.783  0.00  0.00    -0.163 F 
ATOM     18  F   UNL     1      36.652 -22.885 -12.780  0.00  0.00    -0.163 F 
ATOM     19  F   UNL     1      35.629 -24.738 -12.279  0.00  0.00    -0.163 F 
ATOM     20  C   UNL     1      36.111 -24.016 -13.342  0.00  0.00    +0.452 C 
ENDBRANCH  15  20
ENDBRANCH   1   7
BRANCH   3  24
ATOM     21  F   UNL     1      34.574 -19.831 -23.359  0.00  0.00    -0.204 F 
ATOM     22  F   UNL     1      34.969 -14.399 -22.856  0.00  0.00    -0.202 F 
ATOM     23  F   UNL     1      34.493 -15.517 -25.304  0.00  0.00    -0.202 F 
ATOM     24  C   UNL     1      34.915 -17.925 -21.986  0.00  0.00    +0.005 C 
ATOM     25  C   UNL     1      34.673 -18.500 -23.229  0.00  0.00    +0.138 C 
ATOM     26  C   UNL     1      35.016 -16.544 -21.854  0.00  0.00    +0.030 C 
ATOM     27  C   UNL     1      34.873 -15.729 -22.977  0.00  0.00    +0.167 C 
ATOM     28  C   UNL     1      34.531 -17.685 -24.352  0.00  0.00    +0.061 C 
ATOM     29  C   UNL     1      34.631 -16.300 -24.226  0.00  0.00    +0.170 C 
ENDBRANCH   3  24
BRANCH   4  30
ATOM     30  N   UNL     1      37.547 -18.616 -20.711  0.00  0.00    +0.382 N 
ATOM     31  H   UNL     1      38.319 -19.002 -21.253  0.00  0.00    -0.089 HD
ATOM     32  H   UNL     1      37.852 -18.454 -19.751  0.00  0.00    -0.089 HD
ATOM     33  H   UNL     1      37.247 -17.734 -21.126  0.00  0.00    -0.089 HD
ENDBRANCH   4  30
TORSDOF 4
ENDMDL
MODEL 6
REMARK VINA RESULT:     -10.6      1.046      1.804
REMARK  Name = 11538992
REMARK  4 active torsions:
REMARK  status: ('A' for Active; 'I' for Inactive)
REMARK    1  A    between atoms: C_1  and  N_7
REMARK    2  A    between atoms: C_3  and  C_24
REMARK    3  A    between atoms: C_4  and  N_30
REMARK    4  A    between atoms: C_15  and  C_20
REMARK                            x       y       z     vdW  Elec       q    Type
REMARK                         _______ _______ _______ _____ _____    ______ ____
ROOT
ATOM      1  C   UNL     1      32.613 -11.784 -22.963  0.00  0.00    -0.059 C 
ATOM      2  C   UNL     1      33.856 -10.949 -23.284  0.00  0.00    -0.042 C 
ATOM      3  C   UNL     1      32.810  -8.943 -22.117  0.00  0.00    +0.005 C 
ATOM      4  C   UNL     1      33.514  -9.453 -23.400  0.00  0.00    -0.064 C 
ATOM      5  C   UNL     1      31.932 -11.287 -21.685  0.00  0.00    -0.021 C 
ATOM      6  C   UNL     1      31.576  -9.806 -21.787  0.00  0.00    +0.000 C 
ENDROOT
BRANCH   1   7
ATOM      7  N   UNL     1      32.986 -13.190 -22.810  0.00  0.00    +0.394 N 
ATOM      8  N   UNL     1      34.422 -15.565 -22.589  0.00  0.00    -0.299 N 
ATOM      9  N   UNL     1      34.793 -15.414 -20.445  0.00  0.00    -0.136 NA
ATOM     10  N   UNL     1      35.199 -16.665 -20.883  0.00  0.00    -0.125 NA
ATOM     11  C   UNL     1      33.711 -13.672 -24.000  0.00  0.00    -0.052 C 
ATOM     12  C   UNL     1      33.792 -13.379 -21.586  0.00  0.00    -0.009 C 
ATOM     13  C   UNL     1      33.957 -15.186 -23.903  0.00  0.00    +0.086 C 
ATOM     14  C   UNL     1      34.323 -14.764 -21.488  0.00  0.00    +0.122 A 
ATOM     15  C   UNL     1      34.965 -16.734 -22.176  0.00  0.00    +0.238 A 
ATOM     16  H   UNL     1      32.132 -13.742 -22.719  0.00  0.00    -0.079 HD
BRANCH  15  20
ATOM     17  F   UNL     1      34.307 -18.895 -22.963  0.00  0.00    -0.163 F 
ATOM     18  F   UNL     1      35.228 -17.562 -24.405  0.00  0.00    -0.163 F 
ATOM     19  F   UNL     1      36.437 -18.476 -22.845  0.00  0.00    -0.163 F 
ATOM     20  C   UNL     1      35.223 -17.877 -23.067  0.00  0.00    +0.452 C 
ENDBRANCH  15  20
ENDBRANCH   1   7
BRANCH   3  24
ATOM     21  F   UNL     1      33.355  -7.082 -20.044  0.00  0.00    -0.204 F 
ATOM     22  F   UNL     1      30.775  -5.176 -24.474  0.00  0.00    -0.202 F 
ATOM     23  F   UNL     1      31.363  -3.494 -22.402  0.00  0.00    -0.202 F 
ATOM     24  C   UNL     1      32.420  -7.472 -22.191  0.00  0.00    +0.005 C 
ATOM     25  C   UNL     1      32.722  -6.621 -21.132  0.00  0.00    +0.138 C 
ATOM     26  C   UNL     1      31.764  -6.991 -23.319  0.00  0.00    +0.030 C 
ATOM     27  C   UNL     1      31.406  -5.645 -23.391  0.00  0.00    +0.167 C 
ATOM     28  C   UNL     1      32.363  -5.275 -21.204  0.00  0.00    +0.061 C 
ATOM     29  C   UNL     1      31.706  -4.787 -22.332  0.00  0.00    +0.170 C 
ENDBRANCH   3  24
BRANCH   4  30
ATOM     30  N   UNL     1      34.741  -8.692 -23.658  0.00  0.00    +0.382 N 
ATOM     31  H   UNL     1      35.150  -8.997 -24.541  0.00  0.00    -0.089 HD
ATOM     32  H   UNL     1      35.405  -8.852 -22.902  0.00  0.00    -0.089 HD
ATOM     33  H   UNL     1      34.518  -7.698 -23.712  0.00  0.00    -0.089 HD
ENDBRANCH   4  30
TORSDOF 4
ENDMDL
MODEL 7
REMARK VINA RESULT:     -10.2      1.333      1.423
REMARK  Name = 11538992
REMARK  4 active torsions:
REMARK  status: ('A' for Active; 'I' for Inactive)
REMARK    1  A    between atoms: C_1  and  N_7
REMARK    2  A    between atoms: C_3  and  C_24
REMARK    3  A    between atoms: C_4  and  N_30
REMARK    4  A    between atoms: C_15  and  C_20
REMARK                            x       y       z     vdW  Elec       q    Type
REMARK                         _______ _______ _______ _____ _____    ______ ____
ROOT
ATOM      1  C   UNL     1      33.565 -12.211 -23.445  0.00  0.00    -0.059 C 
ATOM      2  C   UNL     1      34.542 -11.237 -24.111  0.00  0.00    -0.042 C 
ATOM      3  C   UNL     1      33.614  -9.337 -22.692  0.00  0.00    +0.005 C 
ATOM      4  C   UNL     1      33.984  -9.803 -24.124  0.00  0.00    -0.064 C 
ATOM      5  C   UNL     1      33.218 -11.757 -22.025  0.00  0.00    -0.021 C 
ATOM      6  C   UNL     1      32.653 -10.338 -22.021  0.00  0.00    +0.000 C 
ENDROOT
BRANCH   1   7
ATOM      7  N   UNL     1      34.151 -13.551 -23.405  0.00  0.00    +0.394 N 
ATOM      8  N   UNL     1      34.537 -16.290 -23.086  0.00  0.00    -0.299 N 
ATOM      9  N   UNL     1      33.803 -16.860 -25.060  0.00  0.00    -0.136 NA
ATOM     10  N   UNL     1      34.364 -17.972 -24.453  0.00  0.00    -0.125 NA
ATOM     11  C   UNL     1      34.109 -14.101 -22.037  0.00  0.00    -0.052 C 
ATOM     12  C   UNL     1      33.457 -14.445 -24.356  0.00  0.00    -0.009 C 
ATOM     13  C   UNL     1      34.868 -15.435 -21.971  0.00  0.00    +0.086 C 
ATOM     14  C   UNL     1      33.920 -15.851 -24.222  0.00  0.00    +0.122 A 
ATOM     15  C   UNL     1      34.801 -17.605 -23.267  0.00  0.00    +0.238 A 
ATOM     16  H   UNL     1      35.130 -13.484 -23.685  0.00  0.00    -0.079 HD
BRANCH  15  20
ATOM     17  F   UNL     1      36.829 -18.211 -22.152  0.00  0.00    -0.163 F 
ATOM     18  F   UNL     1      34.999 -18.311 -20.990  0.00  0.00    -0.163 F 
ATOM     19  F   UNL     1      35.385 -19.791 -22.536  0.00  0.00    -0.163 F 
ATOM     20  C   UNL     1      35.481 -18.448 -22.270  0.00  0.00    +0.452 C 
ENDBRANCH  15  20
ENDBRANCH   1   7
BRANCH   3  24
ATOM     21  F   UNL     1      35.203  -6.986 -22.645  0.00  0.00    -0.204 F 
ATOM     22  F   UNL     1      29.776  -6.314 -22.585  0.00  0.00    -0.202 F 
ATOM     23  F   UNL     1      31.427  -4.136 -22.543  0.00  0.00    -0.202 F 
ATOM     24  C   UNL     1      33.026  -7.933 -22.651  0.00  0.00    +0.005 C 
ATOM     25  C   UNL     1      33.872  -6.828 -22.630  0.00  0.00    +0.138 C 
ATOM     26  C   UNL     1      31.646  -7.766 -22.637  0.00  0.00    +0.030 C 
ATOM     27  C   UNL     1      31.104  -6.481 -22.599  0.00  0.00    +0.167 C 
ATOM     28  C   UNL     1      33.330  -5.544 -22.593  0.00  0.00    +0.061 C 
ATOM     29  C   UNL     1      31.947  -5.370 -22.577  0.00  0.00    +0.170 C 
ENDBRANCH   3  24
BRANCH   4  30
ATOM     30  N   UNL     1      34.972  -8.902 -24.725  0.00  0.00    +0.382 N 
ATOM     31  H   UNL     1      35.145  -8.119 -24.095  0.00  0.00    -0.089 HD
ATOM     32  H   UNL     1      34.616  -8.551 -25.614  0.00  0.00    -0.089 HD
ATOM     33  H   UNL     1      35.843  -9.409 -24.884  0.00  0.00    -0.089 HD
ENDBRANCH   4  30
TORSDOF 4
ENDMDL
MODEL 8
REMARK VINA RESULT:     -10.1      2.334     10.062
REMARK  Name = 11538992
REMARK  4 active torsions:
REMARK  status: ('A' for Active; 'I' for Inactive)
REMARK    1  A    between atoms: C_1  and  N_7
REMARK    2  A    between atoms: C_3  and  C_24
REMARK    3  A    between atoms: C_4  and  N_30
REMARK    4  A    between atoms: C_15  and  C_20
REMARK                            x       y       z     vdW  Elec       q    Type
REMARK                         _______ _______ _______ _____ _____    ______ ____
ROOT
ATOM      1  C   UNL     1      32.748  -9.243 -22.218  0.00  0.00    -0.059 C 
ATOM      2  C   UNL     1      33.503  -9.548 -23.515  0.00  0.00    -0.042 C 
ATOM      3  C   UNL     1      33.052 -12.033 -23.193  0.00  0.00    +0.005 C 
ATOM      4  C   UNL     1      34.127 -10.954 -23.485  0.00  0.00    -0.064 C 
ATOM      5  C   UNL     1      31.676 -10.300 -21.944  0.00  0.00    -0.021 C 
ATOM      6  C   UNL     1      32.280 -11.703 -21.901  0.00  0.00    +0.000 C 
ENDROOT
BRANCH   1   7
ATOM      7  N   UNL     1      32.128  -7.921 -22.304  0.00  0.00    +0.394 N 
ATOM      8  N   UNL     1      31.662  -5.211 -22.743  0.00  0.00    -0.299 N 
ATOM      9  N   UNL     1      31.129  -5.406 -24.850  0.00  0.00    -0.136 NA
ATOM     10  N   UNL     1      30.865  -4.109 -24.439  0.00  0.00    -0.125 NA
ATOM     11  C   UNL     1      32.844  -6.950 -21.456  0.00  0.00    -0.052 C 
ATOM     12  C   UNL     1      32.081  -7.464 -23.709  0.00  0.00    -0.009 C 
ATOM     13  C   UNL     1      32.095  -5.609 -21.424  0.00  0.00    +0.086 C 
ATOM     14  C   UNL     1      31.606  -6.060 -23.812  0.00  0.00    +0.122 A 
ATOM     15  C   UNL     1      31.191  -4.015 -23.168  0.00  0.00    +0.238 A 
ATOM     16  H   UNL     1      31.170  -7.991 -21.958  0.00  0.00    -0.079 HD
BRANCH  15  20
ATOM     17  F   UNL     1      30.396  -3.049 -21.129  0.00  0.00    -0.163 F 
ATOM     18  F   UNL     1      32.275  -2.296 -21.907  0.00  0.00    -0.163 F 
ATOM     19  F   UNL     1      30.407  -1.787 -22.899  0.00  0.00    -0.163 F 
ATOM     20  C   UNL     1      31.072  -2.829 -22.304  0.00  0.00    +0.452 C 
ENDBRANCH  15  20
ENDBRANCH   1   7
BRANCH   3  24
ATOM     21  F   UNL     1      33.191 -13.771 -25.432  0.00  0.00    -0.204 F 
ATOM     22  F   UNL     1      35.095 -15.692 -20.679  0.00  0.00    -0.202 F 
ATOM     23  F   UNL     1      35.167 -17.258 -22.917  0.00  0.00    -0.202 F 
ATOM     24  C   UNL     1      33.621 -13.443 -23.121  0.00  0.00    +0.005 C 
ATOM     25  C   UNL     1      33.655 -14.236 -24.264  0.00  0.00    +0.138 C 
ATOM     26  C   UNL     1      34.105 -13.928 -21.911  0.00  0.00    +0.030 C 
ATOM     27  C   UNL     1      34.628 -15.219 -21.841  0.00  0.00    +0.167 C 
ATOM     28  C   UNL     1      34.178 -15.527 -24.194  0.00  0.00    +0.061 C 
ATOM     29  C   UNL     1      34.663 -16.019 -22.984  0.00  0.00    +0.170 C 
ENDBRANCH   3  24
BRANCH   4  30
ATOM     30  N   UNL     1      34.794 -11.218 -24.764  0.00  0.00    +0.382 N 
ATOM     31  H   UNL     1      34.512 -12.134 -25.111  0.00  0.00    -0.089 HD
ATOM     32  H   UNL     1      35.805 -11.202 -24.629  0.00  0.00    -0.089 HD
ATOM     33  H   UNL     1      34.529 -10.502 -25.440  0.00  0.00    -0.089 HD
ENDBRANCH   4  30
TORSDOF 4
ENDMDL
MODEL 9
REMARK VINA RESULT:     -10.0      8.234     12.320
REMARK  Name = 11538992
REMARK  4 active torsions:
REMARK  status: ('A' for Active; 'I' for Inactive)
REMARK    1  A    between atoms: C_1  and  N_7
REMARK    2  A    between atoms: C_3  and  C_24
REMARK    3  A    between atoms: C_4  and  N_30
REMARK    4  A    between atoms: C_15  and  C_20
REMARK                            x       y       z     vdW  Elec       q    Type
REMARK                         _______ _______ _______ _____ _____    ______ ____
ROOT
ATOM      1  C   UNL     1      35.662 -21.343 -17.904  0.00  0.00    -0.059 C 
ATOM      2  C   UNL     1      34.297 -21.543 -18.570  0.00  0.00    -0.042 C 
ATOM      3  C   UNL     1      35.152 -20.382 -20.669  0.00  0.00    +0.005 C 
ATOM      4  C   UNL     1      34.016 -20.449 -19.615  0.00  0.00    -0.064 C 
ATOM      5  C   UNL     1      36.781 -21.297 -18.948  0.00  0.00    -0.021 C 
ATOM      6  C   UNL     1      36.523 -20.208 -19.988  0.00  0.00    +0.000 C 
ENDROOT
BRANCH   1   7
ATOM      7  N   UNL     1      35.915 -22.429 -16.956  0.00  0.00    +0.394 N 
ATOM      8  N   UNL     1      36.251 -23.920 -14.630  0.00  0.00    -0.299 N 
ATOM      9  N   UNL     1      34.143 -24.415 -14.364  0.00  0.00    -0.136 NA
ATOM     10  N   UNL     1      34.892 -25.144 -13.454  0.00  0.00    -0.125 NA
ATOM     11  C   UNL     1      37.067 -22.111 -16.092  0.00  0.00    -0.052 C 
ATOM     12  C   UNL     1      34.707 -22.700 -16.150  0.00  0.00    -0.009 C 
ATOM     13  C   UNL     1      37.427 -23.318 -15.212  0.00  0.00    +0.086 C 
ATOM     14  C   UNL     1      34.980 -23.684 -15.070  0.00  0.00    +0.122 A 
ATOM     15  C   UNL     1      36.158 -24.831 -13.633  0.00  0.00    +0.238 A 
ATOM     16  H   UNL     1      36.144 -23.271 -17.485  0.00  0.00    -0.079 HD
BRANCH  15  20
ATOM     17  F   UNL     1      38.223 -26.037 -13.687  0.00  0.00    -0.163 F 
ATOM     18  F   UNL     1      38.070 -24.412 -12.258  0.00  0.00    -0.163 F 
ATOM     19  F   UNL     1      36.976 -26.262 -11.920  0.00  0.00    -0.163 F 
ATOM     20  C   UNL     1      37.318 -25.366 -12.901  0.00  0.00    +0.452 C 
ENDBRANCH  15  20
ENDBRANCH   1   7
BRANCH   3  24
ATOM     21  F   UNL     1      36.087 -17.721 -20.352  0.00  0.00    -0.204 F 
ATOM     22  F   UNL     1      33.404 -18.874 -24.977  0.00  0.00    -0.202 F 
ATOM     23  F   UNL     1      34.361 -16.352 -24.540  0.00  0.00    -0.202 F 
ATOM     24  C   UNL     1      34.939 -19.292 -21.711  0.00  0.00    +0.005 C 
ATOM     25  C   UNL     1      35.428 -18.010 -21.483  0.00  0.00    +0.138 C 
ATOM     26  C   UNL     1      34.257 -19.589 -22.887  0.00  0.00    +0.030 C 
ATOM     27  C   UNL     1      34.060 -18.595 -23.844  0.00  0.00    +0.167 C 
ATOM     28  C   UNL     1      35.232 -17.015 -22.440  0.00  0.00    +0.061 C 
ATOM     29  C   UNL     1      34.548 -17.307 -23.620  0.00  0.00    +0.170 C 
ENDBRANCH   3  24
BRANCH   4  30
ATOM     30  N   UNL     1      32.724 -20.710 -20.258  0.00  0.00    +0.382 N 
ATOM     31  H   UNL     1      32.878 -20.984 -21.228  0.00  0.00    -0.089 HD
ATOM     32  H   UNL     1      32.154 -19.866 -20.230  0.00  0.00    -0.089 HD
ATOM     33  H   UNL     1      32.245 -21.463 -19.764  0.00  0.00    -0.089 HD
ENDBRANCH   4  30
TORSDOF 4
ENDMDL
