MODEL 1
REMARK VINA RESULT:     -10.9      0.000      0.000
REMARK  Name = 445579
REMARK  10 active torsions:
REMARK  status: ('A' for Active; 'I' for Inactive)
REMARK    1  A    between atoms: C_1  and  O_18
REMARK    2  A    between atoms: C_4  and  C_9
REMARK    3  A    between atoms: N_8  and  C_11
REMARK    4  A    between atoms: C_11  and  C_12
REMARK    5  A    between atoms: O_18  and  C_24
REMARK    6  A    between atoms: C_20  and  O_27
REMARK    7  A    between atoms: C_21  and  O_25
REMARK    8  A    between atoms: C_22  and  C_31
REMARK    9  A    between atoms: C_23  and  O_29
REMARK   10  A    between atoms: C_31  and  O_32
REMARK                            x       y       z     vdW  Elec       q    Type
REMARK                         _______ _______ _______ _____ _____    ______ ____
ROOT
ATOM      1  C   UNL     1      34.154 -23.805 -14.790  0.00  0.00    +0.142 C 
ATOM      2  C   UNL     1      34.277 -23.480 -16.137  0.00  0.00    +0.042 C 
ATOM      3  C   UNL     1      32.925 -23.698 -14.146  0.00  0.00    +0.037 C 
ATOM      4  C   UNL     1      33.159 -23.042 -16.848  0.00  0.00    +0.056 C 
ATOM      5  C   UNL     1      31.808 -23.260 -14.858  0.00  0.00    +0.003 C 
ATOM      6  C   UNL     1      31.925 -22.933 -16.208  0.00  0.00    +0.005 C 
ENDROOT
BRANCH   4   9
ATOM      7  O   UNL     1      33.608 -23.540 -19.107  0.00  0.00    -0.270 OA
ATOM      8  N   UNL     1      32.979 -21.382 -18.598  0.00  0.00    -0.297 N 
ATOM      9  C   UNL     1      33.282 -22.701 -18.257  0.00  0.00    +0.246 C 
ATOM     10  H   UNL     1      32.724 -20.755 -17.882  0.00  0.00    +0.150 HD
BRANCH   8  11
ATOM     11  C   UNL     1      33.023 -20.898 -19.959  0.00  0.00    +0.117 C 
BRANCH  11  12
ATOM     12  C   UNL     1      34.334 -20.243 -20.281  0.00  0.00    -0.003 C 
ATOM     13  C   UNL     1      34.382 -19.227 -21.229  0.00  0.00    -0.003 C 
ATOM     14  C   UNL     1      35.490 -20.660 -19.630  0.00  0.00    -0.003 C 
ATOM     15  C   UNL     1      35.601 -18.619 -21.529  0.00  0.00    -0.000 C 
ATOM     16  C   UNL     1      36.708 -20.051 -19.929  0.00  0.00    -0.000 C 
ATOM     17  C   UNL     1      36.764 -19.031 -20.879  0.00  0.00    -0.000 C 
ENDBRANCH  11  12
ENDBRANCH   8  11
ENDBRANCH   4   9
BRANCH   1  18
ATOM     18  O   UNL     1      35.250 -24.235 -14.092  0.00  0.00    -0.451 OA
BRANCH  18  24
ATOM     19  O   UNL     1      35.981 -23.189 -12.100  0.00  0.00    -0.316 OA
ATOM     20  C   UNL     1      37.905 -24.663 -11.792  0.00  0.00    +0.169 C 
ATOM     21  C   UNL     1      38.107 -24.704 -13.310  0.00  0.00    +0.173 C 
ATOM     22  C   UNL     1      36.432 -24.392 -11.458  0.00  0.00    +0.177 C 
ATOM     23  C   UNL     1      37.537 -23.440 -13.952  0.00  0.00    +0.210 C 
ATOM     24  C   UNL     1      36.083 -23.225 -13.525  0.00  0.00    +0.318 C 
BRANCH  21  25
ATOM     25  O   UNL     1      39.495 -24.803 -13.614  0.00  0.00    -0.379 OA
ATOM     26  H   UNL     1      39.759 -24.051 -14.168  0.00  0.00    +0.211 HD
ENDBRANCH  21  25
BRANCH  20  27
ATOM     27  O   UNL     1      38.706 -23.621 -11.231  0.00  0.00    -0.379 OA
ATOM     28  H   UNL     1      39.642 -23.801 -11.410  0.00  0.00    +0.211 HD
ENDBRANCH  20  27
BRANCH  23  29
ATOM     29  O   UNL     1      37.602 -23.533 -15.371  0.00  0.00    -0.377 OA
ATOM     30  H   UNL     1      36.855 -23.052 -15.762  0.00  0.00    +0.211 HD
ENDBRANCH  23  29
BRANCH  22  31
ATOM     31  C   UNL     1      36.197 -24.222  -9.962  0.00  0.00    +0.169 C 
BRANCH  31  32
ATOM     32  O   UNL     1      35.243 -25.180  -9.542  0.00  0.00    -0.379 OA
ATOM     33  H   UNL     1      35.600 -25.688  -8.797  0.00  0.00    +0.211 HD
ENDBRANCH  31  32
ENDBRANCH  22  31
ENDBRANCH  18  24
ENDBRANCH   1  18
TORSDOF 10
ENDMDL
MODEL 2
REMARK VINA RESULT:     -10.8      1.150      1.687
REMARK  Name = 445579
REMARK  10 active torsions:
REMARK  status: ('A' for Active; 'I' for Inactive)
REMARK    1  A    between atoms: C_1  and  O_18
REMARK    2  A    between atoms: C_4  and  C_9
REMARK    3  A    between atoms: N_8  and  C_11
REMARK    4  A    between atoms: C_11  and  C_12
REMARK    5  A    between atoms: O_18  and  C_24
REMARK    6  A    between atoms: C_20  and  O_27
REMARK    7  A    between atoms: C_21  and  O_25
REMARK    8  A    between atoms: C_22  and  C_31
REMARK    9  A    between atoms: C_23  and  O_29
REMARK   10  A    between atoms: C_31  and  O_32
REMARK                            x       y       z     vdW  Elec       q    Type
REMARK                         _______ _______ _______ _____ _____    ______ ____
ROOT
ATOM      1  C   UNL     1      33.673 -24.321 -13.965  0.00  0.00    +0.142 C 
ATOM      2  C   UNL     1      33.341 -23.635 -15.129  0.00  0.00    +0.042 C 
ATOM      3  C   UNL     1      32.679 -24.746 -13.088  0.00  0.00    +0.037 C 
ATOM      4  C   UNL     1      32.002 -23.370 -15.419  0.00  0.00    +0.056 C 
ATOM      5  C   UNL     1      31.341 -24.482 -13.379  0.00  0.00    +0.003 C 
ATOM      6  C   UNL     1      31.002 -23.794 -14.543  0.00  0.00    +0.005 C 
ENDROOT
BRANCH   4   9
ATOM      7  O   UNL     1      30.486 -22.306 -16.875  0.00  0.00    -0.270 OA
ATOM      8  N   UNL     1      32.705 -22.351 -17.497  0.00  0.00    -0.297 N 
ATOM      9  C   UNL     1      31.650 -22.653 -16.634  0.00  0.00    +0.246 C 
ATOM     10  H   UNL     1      33.612 -22.650 -17.257  0.00  0.00    +0.150 HD
BRANCH   8  11
ATOM     11  C   UNL     1      32.521 -21.616 -18.728  0.00  0.00    +0.117 C 
BRANCH  11  12
ATOM     12  C   UNL     1      33.820 -21.100 -19.274  0.00  0.00    -0.003 C 
ATOM     13  C   UNL     1      35.020 -21.627 -18.808  0.00  0.00    -0.003 C 
ATOM     14  C   UNL     1      33.813 -20.099 -20.239  0.00  0.00    -0.003 C 
ATOM     15  C   UNL     1      36.228 -21.146 -19.314  0.00  0.00    -0.000 C 
ATOM     16  C   UNL     1      35.020 -19.620 -20.746  0.00  0.00    -0.000 C 
ATOM     17  C   UNL     1      36.228 -20.143 -20.284  0.00  0.00    -0.000 C 
ENDBRANCH  11  12
ENDBRANCH   8  11
ENDBRANCH   4   9
BRANCH   1  18
ATOM     18  O   UNL     1      34.986 -24.581 -13.681  0.00  0.00    -0.451 OA
BRANCH  18  24
ATOM     19  O   UNL     1      35.803 -23.311 -11.859  0.00  0.00    -0.316 OA
ATOM     20  C   UNL     1      37.853 -24.616 -11.606  0.00  0.00    +0.169 C 
ATOM     21  C   UNL     1      37.926 -24.781 -13.127  0.00  0.00    +0.173 C 
ATOM     22  C   UNL     1      36.397 -24.417 -11.163  0.00  0.00    +0.177 C 
ATOM     23  C   UNL     1      37.209 -23.622 -13.819  0.00  0.00    +0.210 C 
ATOM     24  C   UNL     1      35.785 -23.469 -13.280  0.00  0.00    +0.318 C 
BRANCH  21  25
ATOM     25  O   UNL     1      39.287 -24.812 -13.549  0.00  0.00    -0.379 OA
ATOM     26  H   UNL     1      39.750 -25.533 -13.095  0.00  0.00    +0.211 HD
ENDBRANCH  21  25
BRANCH  20  27
ATOM     27  O   UNL     1      38.617 -23.475 -11.212  0.00  0.00    -0.379 OA
ATOM     28  H   UNL     1      39.415 -23.415 -11.760  0.00  0.00    +0.211 HD
ENDBRANCH  20  27
BRANCH  23  29
ATOM     29  O   UNL     1      37.160 -23.840 -15.225  0.00  0.00    -0.377 OA
ATOM     30  H   UNL     1      36.286 -23.583 -15.561  0.00  0.00    +0.211 HD
ENDBRANCH  23  29
BRANCH  22  31
ATOM     31  C   UNL     1      36.279 -24.127  -9.671  0.00  0.00    +0.169 C 
BRANCH  31  32
ATOM     32  O   UNL     1      35.286 -24.975  -9.123  0.00  0.00    -0.379 OA
ATOM     33  H   UNL     1      34.889 -24.550  -8.347  0.00  0.00    +0.211 HD
ENDBRANCH  31  32
ENDBRANCH  22  31
ENDBRANCH  18  24
ENDBRANCH   1  18
TORSDOF 10
ENDMDL
MODEL 3
REMARK VINA RESULT:     -10.5      2.448      4.026
REMARK  Name = 445579
REMARK  10 active torsions:
REMARK  status: ('A' for Active; 'I' for Inactive)
REMARK    1  A    between atoms: C_1  and  O_18
REMARK    2  A    between atoms: C_4  and  C_9
REMARK    3  A    between atoms: N_8  and  C_11
REMARK    4  A    between atoms: C_11  and  C_12
REMARK    5  A    between atoms: O_18  and  C_24
REMARK    6  A    between atoms: C_20  and  O_27
REMARK    7  A    between atoms: C_21  and  O_25
REMARK    8  A    between atoms: C_22  and  C_31
REMARK    9  A    between atoms: C_23  and  O_29
REMARK   10  A    between atoms: C_31  and  O_32
REMARK                            x       y       z     vdW  Elec       q    Type
REMARK                         _______ _______ _______ _____ _____    ______ ____
ROOT
ATOM      1  C   UNL     1      34.726 -22.115 -17.930  0.00  0.00    +0.142 C 
ATOM      2  C   UNL     1      35.506 -21.308 -18.753  0.00  0.00    +0.042 C 
ATOM      3  C   UNL     1      33.343 -22.154 -18.086  0.00  0.00    +0.037 C 
ATOM      4  C   UNL     1      34.898 -20.532 -19.740  0.00  0.00    +0.056 C 
ATOM      5  C   UNL     1      32.736 -21.379 -19.073  0.00  0.00    +0.003 C 
ATOM      6  C   UNL     1      33.513 -20.568 -19.900  0.00  0.00    +0.005 C 
ENDROOT
BRANCH   4   9
ATOM      7  O   UNL     1      36.854 -19.337 -20.287  0.00  0.00    -0.270 OA
ATOM      8  N   UNL     1      35.134 -19.323 -21.821  0.00  0.00    -0.297 N 
ATOM      9  C   UNL     1      35.709 -19.688 -20.603  0.00  0.00    +0.246 C 
ATOM     10  H   UNL     1      34.220 -19.630 -22.024  0.00  0.00    +0.150 HD
BRANCH   8  11
ATOM     11  C   UNL     1      35.825 -18.514 -22.800  0.00  0.00    +0.117 C 
BRANCH  11  12
ATOM     12  C   UNL     1      35.198 -17.159 -22.952  0.00  0.00    -0.003 C 
ATOM     13  C   UNL     1      35.156 -16.295 -21.864  0.00  0.00    -0.003 C 
ATOM     14  C   UNL     1      34.666 -16.781 -24.180  0.00  0.00    -0.003 C 
ATOM     15  C   UNL     1      34.572 -15.035 -22.005  0.00  0.00    -0.000 C 
ATOM     16  C   UNL     1      34.085 -15.521 -24.321  0.00  0.00    -0.000 C 
ATOM     17  C   UNL     1      34.038 -14.648 -23.234  0.00  0.00    -0.000 C 
ENDBRANCH  11  12
ENDBRANCH   8  11
ENDBRANCH   4   9
BRANCH   1  18
ATOM     18  O   UNL     1      35.322 -22.875 -16.962  0.00  0.00    -0.451 OA
BRANCH  18  24
ATOM     19  O   UNL     1      34.513 -22.706 -14.744  0.00  0.00    -0.316 OA
ATOM     20  C   UNL     1      35.957 -24.472 -13.868  0.00  0.00    +0.169 C 
ATOM     21  C   UNL     1      37.074 -24.017 -14.812  0.00  0.00    +0.173 C 
ATOM     22  C   UNL     1      34.585 -24.110 -14.453  0.00  0.00    +0.177 C 
ATOM     23  C   UNL     1      36.905 -22.538 -15.155  0.00  0.00    +0.210 C 
ATOM     24  C   UNL     1      35.495 -22.263 -15.685  0.00  0.00    +0.318 C 
BRANCH  21  25
ATOM     25  O   UNL     1      38.343 -24.216 -14.197  0.00  0.00    -0.379 OA
ATOM     26  H   UNL     1      38.294 -23.961 -13.262  0.00  0.00    +0.211 HD
ENDBRANCH  21  25
BRANCH  20  27
ATOM     27  O   UNL     1      36.106 -23.823 -12.603  0.00  0.00    -0.379 OA
ATOM     28  H   UNL     1      35.231 -23.617 -12.240  0.00  0.00    +0.211 HD
ENDBRANCH  20  27
BRANCH  23  29
ATOM     29  O   UNL     1      37.860 -22.144 -16.135  0.00  0.00    -0.377 OA
ATOM     30  H   UNL     1      38.534 -21.581 -15.722  0.00  0.00    +0.211 HD
ENDBRANCH  23  29
BRANCH  22  31
ATOM     31  C   UNL     1      33.443 -24.433 -13.498  0.00  0.00    +0.169 C 
BRANCH  31  32
ATOM     32  O   UNL     1      33.421 -23.455 -12.472  0.00  0.00    -0.379 OA
ATOM     33  H   UNL     1      34.179 -22.860 -12.576  0.00  0.00    +0.211 HD
ENDBRANCH  31  32
ENDBRANCH  22  31
ENDBRANCH  18  24
ENDBRANCH   1  18
TORSDOF 10
ENDMDL
MODEL 4
REMARK VINA RESULT:     -10.5      1.693      2.190
REMARK  Name = 445579
REMARK  10 active torsions:
REMARK  status: ('A' for Active; 'I' for Inactive)
REMARK    1  A    between atoms: C_1  and  O_18
REMARK    2  A    between atoms: C_4  and  C_9
REMARK    3  A    between atoms: N_8  and  C_11
REMARK    4  A    between atoms: C_11  and  C_12
REMARK    5  A    between atoms: O_18  and  C_24
REMARK    6  A    between atoms: C_20  and  O_27
REMARK    7  A    between atoms: C_21  and  O_25
REMARK    8  A    between atoms: C_22  and  C_31
REMARK    9  A    between atoms: C_23  and  O_29
REMARK   10  A    between atoms: C_31  and  O_32
REMARK                            x       y       z     vdW  Elec       q    Type
REMARK                         _______ _______ _______ _____ _____    ______ ____
ROOT
ATOM      1  C   UNL     1      33.199 -24.365 -13.703  0.00  0.00    +0.142 C 
ATOM      2  C   UNL     1      32.961 -23.736 -14.921  0.00  0.00    +0.042 C 
ATOM      3  C   UNL     1      32.157 -24.584 -12.806  0.00  0.00    +0.037 C 
ATOM      4  C   UNL     1      31.669 -23.319 -15.244  0.00  0.00    +0.056 C 
ATOM      5  C   UNL     1      30.866 -24.168 -13.130  0.00  0.00    +0.003 C 
ATOM      6  C   UNL     1      30.622 -23.536 -14.349  0.00  0.00    +0.005 C 
ENDROOT
BRANCH   4   9
ATOM      7  O   UNL     1      30.274 -22.322 -16.861  0.00  0.00    -0.270 OA
ATOM      8  N   UNL     1      32.534 -22.405 -17.310  0.00  0.00    -0.297 N 
ATOM      9  C   UNL     1      31.414 -22.661 -16.516  0.00  0.00    +0.246 C 
ATOM     10  H   UNL     1      33.418 -22.695 -16.987  0.00  0.00    +0.150 HD
BRANCH   8  11
ATOM     11  C   UNL     1      32.449 -21.730 -18.585  0.00  0.00    +0.117 C 
BRANCH  11  12
ATOM     12  C   UNL     1      33.793 -21.270 -19.068  0.00  0.00    -0.003 C 
ATOM     13  C   UNL     1      33.872 -20.301 -20.063  0.00  0.00    -0.003 C 
ATOM     14  C   UNL     1      34.947 -21.817 -18.517  0.00  0.00    -0.003 C 
ATOM     15  C   UNL     1      35.122 -19.874 -20.512  0.00  0.00    -0.000 C 
ATOM     16  C   UNL     1      36.196 -21.388 -18.967  0.00  0.00    -0.000 C 
ATOM     17  C   UNL     1      36.283 -20.417 -19.964  0.00  0.00    -0.000 C 
ENDBRANCH  11  12
ENDBRANCH   8  11
ENDBRANCH   4   9
BRANCH   1  18
ATOM     18  O   UNL     1      34.465 -24.773 -13.386  0.00  0.00    -0.451 OA
BRANCH  18  24
ATOM     19  O   UNL     1      36.259 -23.230 -13.382  0.00  0.00    -0.316 OA
ATOM     20  C   UNL     1      37.927 -24.863 -12.656  0.00  0.00    +0.169 C 
ATOM     21  C   UNL     1      37.227 -25.938 -13.491  0.00  0.00    +0.173 C 
ATOM     22  C   UNL     1      36.924 -23.781 -12.234  0.00  0.00    +0.177 C 
ATOM     23  C   UNL     1      36.468 -25.294 -14.651  0.00  0.00    +0.210 C 
ATOM     24  C   UNL     1      35.530 -24.198 -14.141  0.00  0.00    +0.318 C 
BRANCH  21  25
ATOM     25  O   UNL     1      38.186 -26.856 -14.008  0.00  0.00    -0.379 OA
ATOM     26  H   UNL     1      39.043 -26.705 -13.578  0.00  0.00    +0.211 HD
ENDBRANCH  21  25
BRANCH  20  27
ATOM     27  O   UNL     1      38.964 -24.256 -13.430  0.00  0.00    -0.379 OA
ATOM     28  H   UNL     1      38.583 -23.567 -13.997  0.00  0.00    +0.211 HD
ENDBRANCH  20  27
BRANCH  23  29
ATOM     29  O   UNL     1      35.708 -26.275 -15.351  0.00  0.00    -0.377 OA
ATOM     30  H   UNL     1      36.274 -26.718 -16.003  0.00  0.00    +0.211 HD
ENDBRANCH  23  29
BRANCH  22  31
ATOM     31  C   UNL     1      37.593 -22.623 -11.501  0.00  0.00    +0.169 C 
BRANCH  31  32
ATOM     32  O   UNL     1      38.844 -23.064 -11.004  0.00  0.00    -0.379 OA
ATOM     33  H   UNL     1      38.718 -23.869 -10.479  0.00  0.00    +0.211 HD
ENDBRANCH  31  32
ENDBRANCH  22  31
ENDBRANCH  18  24
ENDBRANCH   1  18
TORSDOF 10
ENDMDL
MODEL 5
REMARK VINA RESULT:     -10.3      1.899      3.095
REMARK  Name = 445579
REMARK  10 active torsions:
REMARK  status: ('A' for Active; 'I' for Inactive)
REMARK    1  A    between atoms: C_1  and  O_18
REMARK    2  A    between atoms: C_4  and  C_9
REMARK    3  A    between atoms: N_8  and  C_11
REMARK    4  A    between atoms: C_11  and  C_12
REMARK    5  A    between atoms: O_18  and  C_24
REMARK    6  A    between atoms: C_20  and  O_27
REMARK    7  A    between atoms: C_21  and  O_25
REMARK    8  A    between atoms: C_22  and  C_31
REMARK    9  A    between atoms: C_23  and  O_29
REMARK   10  A    between atoms: C_31  and  O_32
REMARK                            x       y       z     vdW  Elec       q    Type
REMARK                         _______ _______ _______ _____ _____    ______ ____
ROOT
ATOM      1  C   UNL     1      35.103 -24.011 -14.106  0.00  0.00    +0.142 C 
ATOM      2  C   UNL     1      34.568 -23.522 -15.295  0.00  0.00    +0.042 C 
ATOM      3  C   UNL     1      34.278 -24.284 -13.020  0.00  0.00    +0.037 C 
ATOM      4  C   UNL     1      33.193 -23.305 -15.396  0.00  0.00    +0.056 C 
ATOM      5  C   UNL     1      32.904 -24.067 -13.123  0.00  0.00    +0.003 C 
ATOM      6  C   UNL     1      32.362 -23.577 -14.310  0.00  0.00    +0.005 C 
ENDROOT
BRANCH   4   9
ATOM      7  O   UNL     1      31.408 -22.641 -16.785  0.00  0.00    -0.270 OA
ATOM      8  N   UNL     1      33.543 -22.459 -17.635  0.00  0.00    -0.297 N 
ATOM      9  C   UNL     1      32.628 -22.795 -16.636  0.00  0.00    +0.246 C 
ATOM     10  H   UNL     1      34.503 -22.601 -17.465  0.00  0.00    +0.150 HD
BRANCH   8  11
ATOM     11  C   UNL     1      33.140 -21.911 -18.911  0.00  0.00    +0.117 C 
BRANCH  11  12
ATOM     12  C   UNL     1      34.211 -21.052 -19.517  0.00  0.00    -0.003 C 
ATOM     13  C   UNL     1      35.540 -21.260 -19.167  0.00  0.00    -0.003 C 
ATOM     14  C   UNL     1      33.863 -20.054 -20.421  0.00  0.00    -0.003 C 
ATOM     15  C   UNL     1      36.535 -20.460 -19.729  0.00  0.00    -0.000 C 
ATOM     16  C   UNL     1      34.859 -19.256 -20.984  0.00  0.00    -0.000 C 
ATOM     17  C   UNL     1      36.194 -19.459 -20.638  0.00  0.00    -0.000 C 
ENDBRANCH  11  12
ENDBRANCH   8  11
ENDBRANCH   4   9
BRANCH   1  18
ATOM     18  O   UNL     1      36.451 -24.224 -14.006  0.00  0.00    -0.451 OA
BRANCH  18  24
ATOM     19  O   UNL     1      36.779 -26.558 -13.800  0.00  0.00    -0.316 OA
ATOM     20  C   UNL     1      39.111 -26.499 -14.527  0.00  0.00    +0.169 C 
ATOM     21  C   UNL     1      39.293 -25.159 -13.808  0.00  0.00    +0.173 C 
ATOM     22  C   UNL     1      37.645 -26.687 -14.938  0.00  0.00    +0.177 C 
ATOM     23  C   UNL     1      38.295 -25.038 -12.657  0.00  0.00    +0.210 C 
ATOM     24  C   UNL     1      36.868 -25.287 -13.151  0.00  0.00    +0.318 C 
BRANCH  21  25
ATOM     25  O   UNL     1      40.618 -25.058 -13.294  0.00  0.00    -0.379 OA
ATOM     26  H   UNL     1      40.737 -24.193 -12.872  0.00  0.00    +0.211 HD
ENDBRANCH  21  25
BRANCH  20  27
ATOM     27  O   UNL     1      39.486 -27.566 -13.652  0.00  0.00    -0.379 OA
ATOM     28  H   UNL     1      39.560 -28.389 -14.159  0.00  0.00    +0.211 HD
ENDBRANCH  20  27
BRANCH  23  29
ATOM     29  O   UNL     1      38.370 -23.742 -12.071  0.00  0.00    -0.377 OA
ATOM     30  H   UNL     1      37.892 -23.741 -11.226  0.00  0.00    +0.211 HD
ENDBRANCH  23  29
BRANCH  22  31
ATOM     31  C   UNL     1      37.384 -28.058 -15.551  0.00  0.00    +0.169 C 
BRANCH  31  32
ATOM     32  O   UNL     1      36.861 -27.879 -16.855  0.00  0.00    -0.379 OA
ATOM     33  H   UNL     1      37.291 -28.498 -17.464  0.00  0.00    +0.211 HD
ENDBRANCH  31  32
ENDBRANCH  22  31
ENDBRANCH  18  24
ENDBRANCH   1  18
TORSDOF 10
ENDMDL
MODEL 6
REMARK VINA RESULT:     -10.3      1.073      2.422
REMARK  Name = 445579
REMARK  10 active torsions:
REMARK  status: ('A' for Active; 'I' for Inactive)
REMARK    1  A    between atoms: C_1  and  O_18
REMARK    2  A    between atoms: C_4  and  C_9
REMARK    3  A    between atoms: N_8  and  C_11
REMARK    4  A    between atoms: C_11  and  C_12
REMARK    5  A    between atoms: O_18  and  C_24
REMARK    6  A    between atoms: C_20  and  O_27
REMARK    7  A    between atoms: C_21  and  O_25
REMARK    8  A    between atoms: C_22  and  C_31
REMARK    9  A    between atoms: C_23  and  O_29
REMARK   10  A    between atoms: C_31  and  O_32
REMARK                            x       y       z     vdW  Elec       q    Type
REMARK                         _______ _______ _______ _____ _____    ______ ____
ROOT
ATOM      1  C   UNL     1      34.062 -23.107 -14.838  0.00  0.00    +0.142 C 
ATOM      2  C   UNL     1      34.242 -22.841 -16.193  0.00  0.00    +0.042 C 
ATOM      3  C   UNL     1      32.785 -23.294 -14.319  0.00  0.00    +0.037 C 
ATOM      4  C   UNL     1      33.132 -22.760 -17.035  0.00  0.00    +0.056 C 
ATOM      5  C   UNL     1      31.677 -23.214 -15.162  0.00  0.00    +0.003 C 
ATOM      6  C   UNL     1      31.850 -22.948 -16.519  0.00  0.00    +0.005 C 
ENDROOT
BRANCH   4   9
ATOM      7  O   UNL     1      33.664 -23.362 -19.251  0.00  0.00    -0.270 OA
ATOM      8  N   UNL     1      33.040 -21.178 -18.862  0.00  0.00    -0.297 N 
ATOM      9  C   UNL     1      33.314 -22.484 -18.451  0.00  0.00    +0.246 C 
ATOM     10  H   UNL     1      32.764 -20.517 -18.185  0.00  0.00    +0.150 HD
BRANCH   8  11
ATOM     11  C   UNL     1      33.143 -20.755 -20.240  0.00  0.00    +0.117 C 
BRANCH  11  12
ATOM     12  C   UNL     1      34.449 -20.073 -20.523  0.00  0.00    -0.003 C 
ATOM     13  C   UNL     1      34.508 -19.072 -21.486  0.00  0.00    -0.003 C 
ATOM     14  C   UNL     1      35.589 -20.449 -19.820  0.00  0.00    -0.003 C 
ATOM     15  C   UNL     1      35.723 -18.438 -21.749  0.00  0.00    -0.000 C 
ATOM     16  C   UNL     1      36.802 -19.814 -20.083  0.00  0.00    -0.000 C 
ATOM     17  C   UNL     1      36.870 -18.809 -21.047  0.00  0.00    -0.000 C 
ENDBRANCH  11  12
ENDBRANCH   8  11
ENDBRANCH   4   9
BRANCH   1  18
ATOM     18  O   UNL     1      35.150 -23.185 -14.012  0.00  0.00    -0.451 OA
BRANCH  18  24
ATOM     19  O   UNL     1      36.514 -25.113 -13.868  0.00  0.00    -0.316 OA
ATOM     20  C   UNL     1      37.990 -24.188 -12.153  0.00  0.00    +0.169 C 
ATOM     21  C   UNL     1      36.792 -23.473 -11.519  0.00  0.00    +0.173 C 
ATOM     22  C   UNL     1      37.746 -24.406 -13.652  0.00  0.00    +0.177 C 
ATOM     23  C   UNL     1      35.499 -24.220 -11.846  0.00  0.00    +0.210 C 
ATOM     24  C   UNL     1      35.365 -24.433 -13.356  0.00  0.00    +0.318 C 
BRANCH  21  25
ATOM     25  O   UNL     1      36.955 -23.410 -10.106  0.00  0.00    -0.379 OA
ATOM     26  H   UNL     1      37.872 -23.624  -9.875  0.00  0.00    +0.211 HD
ENDBRANCH  21  25
BRANCH  20  27
ATOM     27  O   UNL     1      38.175 -25.458 -11.525  0.00  0.00    -0.379 OA
ATOM     28  H   UNL     1      39.122 -25.666 -11.491  0.00  0.00    +0.211 HD
ENDBRANCH  20  27
BRANCH  23  29
ATOM     29  O   UNL     1      34.372 -23.488 -11.373  0.00  0.00    -0.377 OA
ATOM     30  H   UNL     1      34.664 -22.625 -11.039  0.00  0.00    +0.211 HD
ENDBRANCH  23  29
BRANCH  22  31
ATOM     31  C   UNL     1      38.855 -25.221 -14.308  0.00  0.00    +0.169 C 
BRANCH  31  32
ATOM     32  O   UNL     1      39.592 -24.371 -15.169  0.00  0.00    -0.379 OA
ATOM     33  H   UNL     1      39.488 -24.670 -16.085  0.00  0.00    +0.211 HD
ENDBRANCH  31  32
ENDBRANCH  22  31
ENDBRANCH  18  24
ENDBRANCH   1  18
TORSDOF 10
ENDMDL
MODEL 7
REMARK VINA RESULT:     -10.2      1.720      3.076
REMARK  Name = 445579
REMARK  10 active torsions:
REMARK  status: ('A' for Active; 'I' for Inactive)
REMARK    1  A    between atoms: C_1  and  O_18
REMARK    2  A    between atoms: C_4  and  C_9
REMARK    3  A    between atoms: N_8  and  C_11
REMARK    4  A    between atoms: C_11  and  C_12
REMARK    5  A    between atoms: O_18  and  C_24
REMARK    6  A    between atoms: C_20  and  O_27
REMARK    7  A    between atoms: C_21  and  O_25
REMARK    8  A    between atoms: C_22  and  C_31
REMARK    9  A    between atoms: C_23  and  O_29
REMARK   10  A    between atoms: C_31  and  O_32
REMARK                            x       y       z     vdW  Elec       q    Type
REMARK                         _______ _______ _______ _____ _____    ______ ____
ROOT
ATOM      1  C   UNL     1      33.619 -24.087 -13.847  0.00  0.00    +0.142 C 
ATOM      2  C   UNL     1      33.279 -23.430 -15.026  0.00  0.00    +0.042 C 
ATOM      3  C   UNL     1      32.631 -24.627 -13.029  0.00  0.00    +0.037 C 
ATOM      4  C   UNL     1      31.937 -23.311 -15.389  0.00  0.00    +0.056 C 
ATOM      5  C   UNL     1      31.290 -24.509 -13.394  0.00  0.00    +0.003 C 
ATOM      6  C   UNL     1      30.943 -23.851 -14.573  0.00  0.00    +0.005 C 
ENDROOT
BRANCH   4   9
ATOM      7  O   UNL     1      30.410 -22.279 -16.859  0.00  0.00    -0.270 OA
ATOM      8  N   UNL     1      32.623 -22.354 -17.502  0.00  0.00    -0.297 N 
ATOM      9  C   UNL     1      31.575 -22.626 -16.620  0.00  0.00    +0.246 C 
ATOM     10  H   UNL     1      33.531 -22.651 -17.263  0.00  0.00    +0.150 HD
BRANCH   8  11
ATOM     11  C   UNL     1      32.430 -21.652 -18.751  0.00  0.00    +0.117 C 
BRANCH  11  12
ATOM     12  C   UNL     1      33.719 -21.112 -19.297  0.00  0.00    -0.003 C 
ATOM     13  C   UNL     1      34.929 -21.599 -18.814  0.00  0.00    -0.003 C 
ATOM     14  C   UNL     1      33.692 -20.129 -20.281  0.00  0.00    -0.003 C 
ATOM     15  C   UNL     1      36.127 -21.097 -19.321  0.00  0.00    -0.000 C 
ATOM     16  C   UNL     1      34.891 -19.629 -20.788  0.00  0.00    -0.000 C 
ATOM     17  C   UNL     1      36.108 -20.112 -20.308  0.00  0.00    -0.000 C 
ENDBRANCH  11  12
ENDBRANCH   8  11
ENDBRANCH   4   9
BRANCH   1  18
ATOM     18  O   UNL     1      34.935 -24.203 -13.490  0.00  0.00    -0.451 OA
BRANCH  18  24
ATOM     19  O   UNL     1      36.298 -24.073 -15.420  0.00  0.00    -0.316 OA
ATOM     20  C   UNL     1      38.353 -23.603 -14.183  0.00  0.00    +0.169 C 
ATOM     21  C   UNL     1      37.884 -24.538 -13.064  0.00  0.00    +0.173 C 
ATOM     22  C   UNL     1      37.146 -23.022 -14.931  0.00  0.00    +0.177 C 
ATOM     23  C   UNL     1      36.923 -25.587 -13.621  0.00  0.00    +0.210 C 
ATOM     24  C   UNL     1      35.780 -24.918 -14.390  0.00  0.00    +0.318 C 
BRANCH  21  25
ATOM     25  O   UNL     1      39.004 -25.192 -12.475  0.00  0.00    -0.379 OA
ATOM     26  H   UNL     1      38.732 -25.617 -11.646  0.00  0.00    +0.211 HD
ENDBRANCH  21  25
BRANCH  20  27
ATOM     27  O   UNL     1      39.163 -24.333 -15.108  0.00  0.00    -0.379 OA
ATOM     28  H   UNL     1      39.284 -25.240 -14.785  0.00  0.00    +0.211 HD
ENDBRANCH  20  27
BRANCH  23  29
ATOM     29  O   UNL     1      36.382 -26.373 -12.564  0.00  0.00    -0.377 OA
ATOM     30  H   UNL     1      35.795 -25.824 -12.020  0.00  0.00    +0.211 HD
ENDBRANCH  23  29
BRANCH  22  31
ATOM     31  C   UNL     1      37.558 -22.179 -16.132  0.00  0.00    +0.169 C 
BRANCH  31  32
ATOM     32  O   UNL     1      37.356 -20.812 -15.817  0.00  0.00    -0.379 OA
ATOM     33  H   UNL     1      38.096 -20.289 -16.159  0.00  0.00    +0.211 HD
ENDBRANCH  31  32
ENDBRANCH  22  31
ENDBRANCH  18  24
ENDBRANCH   1  18
TORSDOF 10
ENDMDL
MODEL 8
REMARK VINA RESULT:     -10.2     11.186     15.579
REMARK  Name = 445579
REMARK  10 active torsions:
REMARK  status: ('A' for Active; 'I' for Inactive)
REMARK    1  A    between atoms: C_1  and  O_18
REMARK    2  A    between atoms: C_4  and  C_9
REMARK    3  A    between atoms: N_8  and  C_11
REMARK    4  A    between atoms: C_11  and  C_12
REMARK    5  A    between atoms: O_18  and  C_24
REMARK    6  A    between atoms: C_20  and  O_27
REMARK    7  A    between atoms: C_21  and  O_25
REMARK    8  A    between atoms: C_22  and  C_31
REMARK    9  A    between atoms: C_23  and  O_29
REMARK   10  A    between atoms: C_31  and  O_32
REMARK                            x       y       z     vdW  Elec       q    Type
REMARK                         _______ _______ _______ _____ _____    ______ ____
ROOT
ATOM      1  C   UNL     1      31.942 -10.324 -21.440  0.00  0.00    +0.142 C 
ATOM      2  C   UNL     1      32.533 -11.006 -22.499  0.00  0.00    +0.042 C 
ATOM      3  C   UNL     1      31.641 -10.987 -20.254  0.00  0.00    +0.037 C 
ATOM      4  C   UNL     1      32.826 -12.364 -22.371  0.00  0.00    +0.056 C 
ATOM      5  C   UNL     1      31.935 -12.344 -20.126  0.00  0.00    +0.003 C 
ATOM      6  C   UNL     1      32.528 -13.033 -21.184  0.00  0.00    +0.005 C 
ENDROOT
BRANCH   4   9
ATOM      7  O   UNL     1      33.767 -12.512 -24.527  0.00  0.00    -0.270 OA
ATOM      8  N   UNL     1      33.685 -14.440 -23.266  0.00  0.00    -0.297 N 
ATOM      9  C   UNL     1      33.445 -13.081 -23.475  0.00  0.00    +0.246 C 
ATOM     10  H   UNL     1      33.410 -14.843 -22.410  0.00  0.00    +0.150 HD
BRANCH   8  11
ATOM     11  C   UNL     1      34.322 -15.281 -24.254  0.00  0.00    +0.117 C 
BRANCH  11  12
ATOM     12  C   UNL     1      34.543 -16.676 -23.747  0.00  0.00    -0.003 C 
ATOM     13  C   UNL     1      35.306 -16.878 -22.602  0.00  0.00    -0.003 C 
ATOM     14  C   UNL     1      33.985 -17.753 -24.426  0.00  0.00    -0.003 C 
ATOM     15  C   UNL     1      35.512 -18.175 -22.130  0.00  0.00    -0.000 C 
ATOM     16  C   UNL     1      34.191 -19.049 -23.954  0.00  0.00    -0.000 C 
ATOM     17  C   UNL     1      34.954 -19.260 -22.806  0.00  0.00    -0.000 C 
ENDBRANCH  11  12
ENDBRANCH   8  11
ENDBRANCH   4   9
BRANCH   1  18
ATOM     18  O   UNL     1      31.654  -8.993 -21.566  0.00  0.00    -0.451 OA
BRANCH  18  24
ATOM     19  O   UNL     1      32.551  -7.424 -23.093  0.00  0.00    -0.316 OA
ATOM     20  C   UNL     1      31.581  -5.479 -21.977  0.00  0.00    +0.169 C 
ATOM     21  C   UNL     1      31.812  -6.151 -20.620  0.00  0.00    +0.173 C 
ATOM     22  C   UNL     1      31.421  -6.538 -23.075  0.00  0.00    +0.177 C 
ATOM     23  C   UNL     1      32.971  -7.143 -20.714  0.00  0.00    +0.210 C 
ATOM     24  C   UNL     1      32.748  -8.128 -21.864  0.00  0.00    +0.318 C 
BRANCH  21  25
ATOM     25  O   UNL     1      32.112  -5.169 -19.633  0.00  0.00    -0.379 OA
ATOM     26  H   UNL     1      31.852  -5.497 -18.759  0.00  0.00    +0.211 HD
ENDBRANCH  21  25
BRANCH  20  27
ATOM     27  O   UNL     1      32.700  -4.648 -22.295  0.00  0.00    -0.379 OA
ATOM     28  H   UNL     1      32.404  -3.728 -22.387  0.00  0.00    +0.211 HD
ENDBRANCH  20  27
BRANCH  23  29
ATOM     29  O   UNL     1      33.103  -7.866 -19.494  0.00  0.00    -0.377 OA
ATOM     30  H   UNL     1      32.233  -7.955 -19.075  0.00  0.00    +0.211 HD
ENDBRANCH  23  29
BRANCH  22  31
ATOM     31  C   UNL     1      31.309  -5.921 -24.464  0.00  0.00    +0.169 C 
BRANCH  31  32
ATOM     32  O   UNL     1      30.831  -4.594 -24.334  0.00  0.00    -0.379 OA
ATOM     33  H   UNL     1      29.916  -4.547 -24.648  0.00  0.00    +0.211 HD
ENDBRANCH  31  32
ENDBRANCH  22  31
ENDBRANCH  18  24
ENDBRANCH   1  18
TORSDOF 10
ENDMDL
MODEL 9
REMARK VINA RESULT:     -10.0      2.741      5.830
REMARK  Name = 445579
REMARK  10 active torsions:
REMARK  status: ('A' for Active; 'I' for Inactive)
REMARK    1  A    between atoms: C_1  and  O_18
REMARK    2  A    between atoms: C_4  and  C_9
REMARK    3  A    between atoms: N_8  and  C_11
REMARK    4  A    between atoms: C_11  and  C_12
REMARK    5  A    between atoms: O_18  and  C_24
REMARK    6  A    between atoms: C_20  and  O_27
REMARK    7  A    between atoms: C_21  and  O_25
REMARK    8  A    between atoms: C_22  and  C_31
REMARK    9  A    between atoms: C_23  and  O_29
REMARK   10  A    between atoms: C_31  and  O_32
REMARK                            x       y       z     vdW  Elec       q    Type
REMARK                         _______ _______ _______ _____ _____    ______ ____
ROOT
ATOM      1  C   UNL     1      34.254 -24.076 -13.587  0.00  0.00    +0.142 C 
ATOM      2  C   UNL     1      34.871 -23.567 -14.726  0.00  0.00    +0.042 C 
ATOM      3  C   UNL     1      34.917 -24.074 -12.364  0.00  0.00    +0.037 C 
ATOM      4  C   UNL     1      36.165 -23.052 -14.640  0.00  0.00    +0.056 C 
ATOM      5  C   UNL     1      36.210 -23.559 -12.279  0.00  0.00    +0.003 C 
ATOM      6  C   UNL     1      36.834 -23.047 -13.416  0.00  0.00    +0.005 C 
ENDROOT
BRANCH   4   9
ATOM      7  O   UNL     1      38.044 -22.384 -15.896  0.00  0.00    -0.270 OA
ATOM      8  N   UNL     1      35.975 -22.196 -16.894  0.00  0.00    -0.297 N 
ATOM      9  C   UNL     1      36.814 -22.518 -15.827  0.00  0.00    +0.246 C 
ATOM     10  H   UNL     1      35.003 -22.322 -16.787  0.00  0.00    +0.150 HD
BRANCH   8  11
ATOM     11  C   UNL     1      36.471 -21.685 -18.152  0.00  0.00    +0.117 C 
BRANCH  11  12
ATOM     12  C   UNL     1      35.367 -21.152 -19.017  0.00  0.00    -0.003 C 
ATOM     13  C   UNL     1      34.053 -21.532 -18.768  0.00  0.00    -0.003 C 
ATOM     14  C   UNL     1      35.668 -20.283 -20.061  0.00  0.00    -0.003 C 
ATOM     15  C   UNL     1      33.026 -21.037 -19.573  0.00  0.00    -0.000 C 
ATOM     16  C   UNL     1      34.641 -19.788 -20.864  0.00  0.00    -0.000 C 
ATOM     17  C   UNL     1      33.321 -20.165 -20.621  0.00  0.00    -0.000 C 
ENDBRANCH  11  12
ENDBRANCH   8  11
ENDBRANCH   4   9
BRANCH   1  18
ATOM     18  O   UNL     1      32.985 -24.581 -13.671  0.00  0.00    -0.451 OA
BRANCH  18  24
ATOM     19  O   UNL     1      31.629 -22.806 -14.454  0.00  0.00    -0.316 OA
ATOM     20  C   UNL     1      29.878 -24.265 -15.336  0.00  0.00    +0.169 C 
ATOM     21  C   UNL     1      30.098 -25.226 -14.164  0.00  0.00    +0.173 C 
ATOM     22  C   UNL     1      31.165 -23.484 -15.632  0.00  0.00    +0.177 C 
ATOM     23  C   UNL     1      30.668 -24.471 -12.963  0.00  0.00    +0.210 C 
ATOM     24  C   UNL     1      31.918 -23.685 -13.363  0.00  0.00    +0.318 C 
BRANCH  21  25
ATOM     25  O   UNL     1      28.864 -25.835 -13.795  0.00  0.00    -0.379 OA
ATOM     26  H   UNL     1      28.961 -26.267 -12.932  0.00  0.00    +0.211 HD
ENDBRANCH  21  25
BRANCH  20  27
ATOM     27  O   UNL     1      28.840 -23.339 -15.007  0.00  0.00    -0.379 OA
ATOM     28  H   UNL     1      28.770 -22.670 -15.706  0.00  0.00    +0.211 HD
ENDBRANCH  20  27
BRANCH  23  29
ATOM     29  O   UNL     1      30.998 -25.381 -11.918  0.00  0.00    -0.377 OA
ATOM     30  H   UNL     1      30.187 -25.798 -11.585  0.00  0.00    +0.211 HD
ENDBRANCH  23  29
BRANCH  22  31
ATOM     31  C   UNL     1      30.968 -22.427 -16.712  0.00  0.00    +0.169 C 
BRANCH  31  32
ATOM     32  O   UNL     1      29.582 -22.166 -16.842  0.00  0.00    -0.379 OA
ATOM     33  H   UNL     1      29.411 -21.227 -16.668  0.00  0.00    +0.211 HD
ENDBRANCH  31  32
ENDBRANCH  22  31
ENDBRANCH  18  24
ENDBRANCH   1  18
TORSDOF 10
ENDMDL
