MODEL 1
REMARK VINA RESULT:     -11.4      0.000      0.000
REMARK  Name = 10401956
REMARK  3 active torsions:
REMARK  status: ('A' for Active; 'I' for Inactive)
REMARK    1  A    between atoms: N_1  and  C_13
REMARK    2  A    between atoms: C_8  and  N_20
REMARK    3  A    between atoms: C_21  and  C_23
REMARK                            x       y       z     vdW  Elec       q    Type
REMARK                         _______ _______ _______ _____ _____    ______ ____
ROOT
ATOM      1  N   UNL     1      32.796 -22.222 -18.006  0.00  0.00    -0.301 N 
ATOM      2  N   UNL     1      33.621 -24.181 -14.455  0.00  0.00    -0.248 NA
ATOM      3  N   UNL     1      34.324 -23.314 -16.591  0.00  0.00    -0.233 NA
ATOM      4  C   UNL     1      32.030 -23.074 -15.869  0.00  0.00    +0.117 C 
ATOM      5  C   UNL     1      32.369 -23.745 -14.683  0.00  0.00    +0.067 C 
ATOM      6  C   UNL     1      33.061 -22.891 -16.786  0.00  0.00    +0.115 C 
ATOM      7  C   UNL     1      30.718 -22.622 -16.095  0.00  0.00    +0.001 C 
ATOM      8  C   UNL     1      29.733 -22.838 -15.137  0.00  0.00    +0.047 C 
ATOM      9  C   UNL     1      31.363 -23.947 -13.740  0.00  0.00    +0.016 C 
ATOM     10  C   UNL     1      30.056 -23.501 -13.958  0.00  0.00    +0.016 C 
ATOM     11  C   UNL     1      34.530 -23.942 -15.422  0.00  0.00    +0.251 C 
ATOM     12  H   UNL     1      31.857 -22.228 -18.305  0.00  0.00    +0.153 HD
ENDROOT
BRANCH   1  13
ATOM     13  C   UNL     1      33.688 -21.561 -18.831  0.00  0.00    +0.049 C 
ATOM     14  C   UNL     1      35.074 -21.796 -18.737  0.00  0.00    +0.015 C 
ATOM     15  C   UNL     1      33.236 -20.632 -19.790  0.00  0.00    +0.015 C 
ATOM     16  C   UNL     1      35.972 -21.128 -19.568  0.00  0.00    +0.001 C 
ATOM     17  C   UNL     1      34.136 -19.965 -20.621  0.00  0.00    +0.001 C 
ATOM     18  C   UNL     1      35.504 -20.213 -20.510  0.00  0.00    +0.000 C 
ENDBRANCH   1  13
BRANCH   8  20
ATOM     19  O   UNL     1      27.811 -23.466 -17.357  0.00  0.00    -0.270 OA
ATOM     20  N   UNL     1      28.430 -22.392 -15.356  0.00  0.00    -0.281 N 
ATOM     21  C   UNL     1      27.571 -22.719 -16.416  0.00  0.00    +0.250 C 
ATOM     22  H   UNL     1      28.068 -21.770 -14.684  0.00  0.00    +0.155 HD
BRANCH  21  23
ATOM     23  C   UNL     1      26.254 -22.031 -16.289  0.00  0.00    +0.058 C 
ATOM     24  C   UNL     1      25.865 -21.135 -17.202  0.00  0.00    +0.005 C 
ENDBRANCH  21  23
ENDBRANCH   8  20
TORSDOF 3
ENDMDL
MODEL 2
REMARK VINA RESULT:     -10.4      1.167      1.693
REMARK  Name = 10401956
REMARK  3 active torsions:
REMARK  status: ('A' for Active; 'I' for Inactive)
REMARK    1  A    between atoms: N_1  and  C_13
REMARK    2  A    between atoms: C_8  and  N_20
REMARK    3  A    between atoms: C_21  and  C_23
REMARK                            x       y       z     vdW  Elec       q    Type
REMARK                         _______ _______ _______ _____ _____    ______ ____
ROOT
ATOM      1  N   UNL     1      33.618 -22.446 -17.724  0.00  0.00    -0.301 N 
ATOM      2  N   UNL     1      35.109 -23.783 -14.102  0.00  0.00    -0.248 NA
ATOM      3  N   UNL     1      35.450 -22.949 -16.337  0.00  0.00    -0.233 NA
ATOM      4  C   UNL     1      33.213 -23.283 -15.484  0.00  0.00    +0.117 C 
ATOM      5  C   UNL     1      33.776 -23.729 -14.277  0.00  0.00    +0.067 C 
ATOM      6  C   UNL     1      34.112 -22.906 -16.478  0.00  0.00    +0.115 C 
ATOM      7  C   UNL     1      31.819 -23.230 -15.656  0.00  0.00    +0.001 C 
ATOM      8  C   UNL     1      30.975 -23.621 -14.621  0.00  0.00    +0.047 C 
ATOM      9  C   UNL     1      32.908 -24.114 -13.258  0.00  0.00    +0.016 C 
ATOM     10  C   UNL     1      31.520 -24.064 -13.421  0.00  0.00    +0.016 C 
ATOM     11  C   UNL     1      35.873 -23.391 -15.142  0.00  0.00    +0.251 C 
ATOM     12  H   UNL     1      32.706 -22.735 -17.959  0.00  0.00    +0.153 HD
ENDROOT
BRANCH   1  13
ATOM     13  C   UNL     1      34.254 -21.642 -18.652  0.00  0.00    +0.049 C 
ATOM     14  C   UNL     1      33.516 -20.853 -19.556  0.00  0.00    +0.015 C 
ATOM     15  C   UNL     1      35.661 -21.588 -18.721  0.00  0.00    +0.015 C 
ATOM     16  C   UNL     1      34.158 -20.043 -20.492  0.00  0.00    +0.001 C 
ATOM     17  C   UNL     1      36.302 -20.777 -19.658  0.00  0.00    +0.001 C 
ATOM     18  C   UNL     1      35.550 -20.005 -20.544  0.00  0.00    +0.000 C 
ENDBRANCH   1  13
BRANCH   8  20
ATOM     19  O   UNL     1      29.318 -22.304 -16.751  0.00  0.00    -0.270 OA
ATOM     20  N   UNL     1      29.591 -23.570 -14.786  0.00  0.00    -0.281 N 
ATOM     21  C   UNL     1      28.865 -22.937 -15.805  0.00  0.00    +0.250 C 
ATOM     22  H   UNL     1      29.058 -24.035 -14.101  0.00  0.00    +0.155 HD
BRANCH  21  23
ATOM     23  C   UNL     1      27.395 -23.113 -15.623  0.00  0.00    +0.058 C 
ATOM     24  C   UNL     1      26.638 -22.099 -15.190  0.00  0.00    +0.005 C 
ENDBRANCH  21  23
ENDBRANCH   8  20
TORSDOF 3
ENDMDL
MODEL 3
REMARK VINA RESULT:     -10.1      2.772      3.793
REMARK  Name = 10401956
REMARK  3 active torsions:
REMARK  status: ('A' for Active; 'I' for Inactive)
REMARK    1  A    between atoms: N_1  and  C_13
REMARK    2  A    between atoms: C_8  and  N_20
REMARK    3  A    between atoms: C_21  and  C_23
REMARK                            x       y       z     vdW  Elec       q    Type
REMARK                         _______ _______ _______ _____ _____    ______ ____
ROOT
ATOM      1  N   UNL     1      34.659 -22.369 -17.720  0.00  0.00    -0.301 N 
ATOM      2  N   UNL     1      37.560 -22.402 -14.769  0.00  0.00    -0.248 NA
ATOM      3  N   UNL     1      36.828 -21.825 -16.991  0.00  0.00    -0.233 NA
ATOM      4  C   UNL     1      35.339 -22.975 -15.473  0.00  0.00    +0.117 C 
ATOM      5  C   UNL     1      36.363 -22.957 -14.511  0.00  0.00    +0.067 C 
ATOM      6  C   UNL     1      35.640 -22.389 -16.699  0.00  0.00    +0.115 C 
ATOM      7  C   UNL     1      34.092 -23.558 -15.191  0.00  0.00    +0.001 C 
ATOM      8  C   UNL     1      33.855 -24.128 -13.944  0.00  0.00    +0.047 C 
ATOM      9  C   UNL     1      36.098 -23.535 -13.271  0.00  0.00    +0.016 C 
ATOM     10  C   UNL     1      34.860 -24.116 -12.983  0.00  0.00    +0.016 C 
ATOM     11  C   UNL     1      37.727 -21.867 -15.995  0.00  0.00    +0.251 C 
ATOM     12  H   UNL     1      33.955 -23.056 -17.654  0.00  0.00    +0.153 HD
ENDROOT
BRANCH   1  13
ATOM     13  C   UNL     1      34.562 -21.507 -18.798  0.00  0.00    +0.049 C 
ATOM     14  C   UNL     1      35.716 -21.000 -19.426  0.00  0.00    +0.015 C 
ATOM     15  C   UNL     1      33.306 -21.111 -19.297  0.00  0.00    +0.015 C 
ATOM     16  C   UNL     1      35.618 -20.130 -20.512  0.00  0.00    +0.001 C 
ATOM     17  C   UNL     1      33.209 -20.240 -20.383  0.00  0.00    +0.001 C 
ATOM     18  C   UNL     1      34.365 -19.750 -20.990  0.00  0.00    +0.000 C 
ENDBRANCH   1  13
BRANCH   8  20
ATOM     19  O   UNL     1      31.123 -22.893 -13.776  0.00  0.00    -0.270 OA
ATOM     20  N   UNL     1      32.619 -24.707 -13.659  0.00  0.00    -0.281 N 
ATOM     21  C   UNL     1      31.366 -24.079 -13.593  0.00  0.00    +0.250 C 
ATOM     22  H   UNL     1      32.626 -25.675 -13.482  0.00  0.00    +0.155 HD
BRANCH  21  23
ATOM     23  C   UNL     1      30.283 -25.049 -13.258  0.00  0.00    +0.058 C 
ATOM     24  C   UNL     1      29.365 -25.386 -14.170  0.00  0.00    +0.005 C 
ENDBRANCH  21  23
ENDBRANCH   8  20
TORSDOF 3
ENDMDL
MODEL 4
REMARK VINA RESULT:      -9.9     11.828     14.647
REMARK  Name = 10401956
REMARK  3 active torsions:
REMARK  status: ('A' for Active; 'I' for Inactive)
REMARK    1  A    between atoms: N_1  and  C_13
REMARK    2  A    between atoms: C_8  and  N_20
REMARK    3  A    between atoms: C_21  and  C_23
REMARK                            x       y       z     vdW  Elec       q    Type
REMARK                         _______ _______ _______ _____ _____    ______ ____
ROOT
ATOM      1  N   UNL     1      33.081  -8.180 -23.006  0.00  0.00    -0.301 N 
ATOM      2  N   UNL     1      31.737  -9.347 -19.270  0.00  0.00    -0.248 NA
ATOM      3  N   UNL     1      32.386  -7.627 -20.828  0.00  0.00    -0.233 NA
ATOM      4  C   UNL     1      32.440  -9.954 -21.482  0.00  0.00    +0.117 C 
ATOM      5  C   UNL     1      31.983 -10.290 -20.197  0.00  0.00    +0.067 C 
ATOM      6  C   UNL     1      32.621  -8.596 -21.733  0.00  0.00    +0.115 C 
ATOM      7  C   UNL     1      32.693 -10.948 -22.443  0.00  0.00    +0.001 C 
ATOM      8  C   UNL     1      32.491 -12.288 -22.128  0.00  0.00    +0.047 C 
ATOM      9  C   UNL     1      31.789 -11.639 -19.909  0.00  0.00    +0.016 C 
ATOM     10  C   UNL     1      32.038 -12.634 -20.859  0.00  0.00    +0.016 C 
ATOM     11  C   UNL     1      31.952  -8.067 -19.636  0.00  0.00    +0.251 C 
ATOM     12  H   UNL     1      33.574  -8.854 -23.528  0.00  0.00    +0.153 HD
ENDROOT
BRANCH   1  13
ATOM     13  C   UNL     1      32.922  -6.946 -23.611  0.00  0.00    +0.049 C 
ATOM     14  C   UNL     1      31.647  -6.481 -23.988  0.00  0.00    +0.015 C 
ATOM     15  C   UNL     1      34.033  -6.119 -23.870  0.00  0.00    +0.015 C 
ATOM     16  C   UNL     1      31.488  -5.237 -24.599  0.00  0.00    +0.001 C 
ATOM     17  C   UNL     1      33.873  -4.875 -24.482  0.00  0.00    +0.001 C 
ATOM     18  C   UNL     1      32.601  -4.435 -24.846  0.00  0.00    +0.000 C 
ENDBRANCH   1  13
BRANCH   8  20
ATOM     19  O   UNL     1      34.831 -14.145 -22.433  0.00  0.00    -0.270 OA
ATOM     20  N   UNL     1      32.740 -13.278 -23.078  0.00  0.00    -0.281 N 
ATOM     21  C   UNL     1      33.856 -14.122 -23.174  0.00  0.00    +0.250 C 
ATOM     22  H   UNL     1      32.046 -13.400 -23.766  0.00  0.00    +0.155 HD
BRANCH  21  23
ATOM     23  C   UNL     1      33.746 -15.050 -24.337  0.00  0.00    +0.058 C 
ATOM     24  C   UNL     1      34.370 -16.232 -24.324  0.00  0.00    +0.005 C 
ENDBRANCH  21  23
ENDBRANCH   8  20
TORSDOF 3
ENDMDL
MODEL 5
REMARK VINA RESULT:      -9.8      3.278      7.549
REMARK  Name = 10401956
REMARK  3 active torsions:
REMARK  status: ('A' for Active; 'I' for Inactive)
REMARK    1  A    between atoms: N_1  and  C_13
REMARK    2  A    between atoms: C_8  and  N_20
REMARK    3  A    between atoms: C_21  and  C_23
REMARK                            x       y       z     vdW  Elec       q    Type
REMARK                         _______ _______ _______ _____ _____    ______ ____
ROOT
ATOM      1  N   UNL     1      32.481 -23.679 -15.834  0.00  0.00    -0.301 N 
ATOM      2  N   UNL     1      34.661 -21.619 -18.686  0.00  0.00    -0.248 NA
ATOM      3  N   UNL     1      32.591 -22.578 -17.910  0.00  0.00    -0.233 NA
ATOM      4  C   UNL     1      34.592 -22.733 -16.562  0.00  0.00    +0.117 C 
ATOM      5  C   UNL     1      35.280 -22.030 -17.565  0.00  0.00    +0.067 C 
ATOM      6  C   UNL     1      33.242 -22.975 -16.800  0.00  0.00    +0.115 C 
ATOM      7  C   UNL     1      35.249 -23.158 -15.395  0.00  0.00    +0.001 C 
ATOM      8  C   UNL     1      36.602 -22.883 -15.220  0.00  0.00    +0.047 C 
ATOM      9  C   UNL     1      36.633 -21.769 -17.363  0.00  0.00    +0.016 C 
ATOM     10  C   UNL     1      37.295 -22.188 -16.205  0.00  0.00    +0.016 C 
ATOM     11  C   UNL     1      33.350 -21.915 -18.797  0.00  0.00    +0.251 C 
ATOM     12  H   UNL     1      32.992 -24.257 -15.222  0.00  0.00    +0.153 HD
ENDROOT
BRANCH   1  13
ATOM     13  C   UNL     1      31.111 -23.656 -15.641  0.00  0.00    +0.049 C 
ATOM     14  C   UNL     1      30.336 -22.561 -16.071  0.00  0.00    +0.015 C 
ATOM     15  C   UNL     1      30.452 -24.727 -15.006  0.00  0.00    +0.015 C 
ATOM     16  C   UNL     1      28.956 -22.537 -15.874  0.00  0.00    +0.001 C 
ATOM     17  C   UNL     1      29.070 -24.702 -14.810  0.00  0.00    +0.001 C 
ATOM     18  C   UNL     1      28.323 -23.607 -15.244  0.00  0.00    +0.000 C 
ENDBRANCH   1  13
BRANCH   8  20
ATOM     19  O   UNL     1      37.718 -25.572 -14.483  0.00  0.00    -0.270 OA
ATOM     20  N   UNL     1      37.260 -23.302 -14.063  0.00  0.00    -0.281 N 
ATOM     21  C   UNL     1      37.763 -24.578 -13.770  0.00  0.00    +0.250 C 
ATOM     22  H   UNL     1      37.386 -22.618 -13.366  0.00  0.00    +0.155 HD
BRANCH  21  23
ATOM     23  C   UNL     1      38.401 -24.620 -12.421  0.00  0.00    +0.058 C 
ATOM     24  C   UNL     1      38.021 -23.769 -11.463  0.00  0.00    +0.005 C 
ENDBRANCH  21  23
ENDBRANCH   8  20
TORSDOF 3
ENDMDL
MODEL 6
REMARK VINA RESULT:      -9.3     12.145     15.376
REMARK  Name = 10401956
REMARK  3 active torsions:
REMARK  status: ('A' for Active; 'I' for Inactive)
REMARK    1  A    between atoms: N_1  and  C_13
REMARK    2  A    between atoms: C_8  and  N_20
REMARK    3  A    between atoms: C_21  and  C_23
REMARK                            x       y       z     vdW  Elec       q    Type
REMARK                         _______ _______ _______ _____ _____    ______ ____
ROOT
ATOM      1  N   UNL     1      33.303 -11.411 -23.376  0.00  0.00    -0.301 N 
ATOM      2  N   UNL     1      31.447  -9.487 -20.216  0.00  0.00    -0.248 NA
ATOM      3  N   UNL     1      31.947 -11.493 -21.455  0.00  0.00    -0.233 NA
ATOM      4  C   UNL     1      32.833  -9.360 -22.170  0.00  0.00    +0.117 C 
ATOM      5  C   UNL     1      32.180  -8.762 -21.079  0.00  0.00    +0.067 C 
ATOM      6  C   UNL     1      32.675 -10.737 -22.300  0.00  0.00    +0.115 C 
ATOM      7  C   UNL     1      33.598  -8.592 -23.065  0.00  0.00    +0.001 C 
ATOM      8  C   UNL     1      33.716  -7.218 -22.878  0.00  0.00    +0.047 C 
ATOM      9  C   UNL     1      32.316  -7.385 -20.916  0.00  0.00    +0.016 C 
ATOM     10  C   UNL     1      33.075  -6.614 -21.802  0.00  0.00    +0.016 C 
ATOM     11  C   UNL     1      31.371 -10.813 -20.451  0.00  0.00    +0.251 C 
ATOM     12  H   UNL     1      33.524 -10.857 -24.160  0.00  0.00    +0.153 HD
ENDROOT
BRANCH   1  13
ATOM     13  C   UNL     1      33.647 -12.748 -23.464  0.00  0.00    +0.049 C 
ATOM     14  C   UNL     1      33.377 -13.491 -24.629  0.00  0.00    +0.015 C 
ATOM     15  C   UNL     1      34.277 -13.406 -22.389  0.00  0.00    +0.015 C 
ATOM     16  C   UNL     1      33.723 -14.839 -24.717  0.00  0.00    +0.001 C 
ATOM     17  C   UNL     1      34.623 -14.755 -22.478  0.00  0.00    +0.001 C 
ATOM     18  C   UNL     1      34.345 -15.471 -23.642  0.00  0.00    +0.000 C 
ENDBRANCH   1  13
BRANCH   8  20
ATOM     19  O   UNL     1      32.850  -5.301 -25.021  0.00  0.00    -0.270 OA
ATOM     20  N   UNL     1      34.474  -6.451 -23.763  0.00  0.00    -0.281 N 
ATOM     21  C   UNL     1      34.015  -5.567 -24.750  0.00  0.00    +0.250 C 
ATOM     22  H   UNL     1      35.451  -6.543 -23.685  0.00  0.00    +0.155 HD
BRANCH  21  23
ATOM     23  C   UNL     1      35.146  -4.937 -25.492  0.00  0.00    +0.058 C 
ATOM     24  C   UNL     1      34.910  -4.096 -26.504  0.00  0.00    +0.005 C 
ENDBRANCH  21  23
ENDBRANCH   8  20
TORSDOF 3
ENDMDL
MODEL 7
REMARK VINA RESULT:      -9.3      2.880      6.136
REMARK  Name = 10401956
REMARK  3 active torsions:
REMARK  status: ('A' for Active; 'I' for Inactive)
REMARK    1  A    between atoms: N_1  and  C_13
REMARK    2  A    between atoms: C_8  and  N_20
REMARK    3  A    between atoms: C_21  and  C_23
REMARK                            x       y       z     vdW  Elec       q    Type
REMARK                         _______ _______ _______ _____ _____    ______ ____
ROOT
ATOM      1  N   UNL     1      34.736 -24.252 -14.056  0.00  0.00    -0.301 N 
ATOM      2  N   UNL     1      30.660 -24.381 -13.353  0.00  0.00    -0.248 NA
ATOM      3  N   UNL     1      32.924 -24.874 -12.691  0.00  0.00    -0.233 NA
ATOM      4  C   UNL     1      32.480 -23.730 -14.775  0.00  0.00    +0.117 C 
ATOM      5  C   UNL     1      31.108 -23.804 -14.483  0.00  0.00    +0.067 C 
ATOM      6  C   UNL     1      33.338 -24.288 -13.831  0.00  0.00    +0.115 C 
ATOM      7  C   UNL     1      32.936 -23.124 -15.957  0.00  0.00    +0.001 C 
ATOM      8  C   UNL     1      32.024 -22.585 -16.860  0.00  0.00    +0.047 C 
ATOM      9  C   UNL     1      30.217 -23.256 -15.403  0.00  0.00    +0.016 C 
ATOM     10  C   UNL     1      30.663 -22.651 -16.582  0.00  0.00    +0.016 C 
ATOM     11  C   UNL     1      31.592 -24.884 -12.520  0.00  0.00    +0.251 C 
ATOM     12  H   UNL     1      35.019 -24.160 -14.995  0.00  0.00    +0.153 HD
ENDROOT
BRANCH   1  13
ATOM     13  C   UNL     1      35.755 -24.330 -13.124  0.00  0.00    +0.049 C 
ATOM     14  C   UNL     1      36.064 -23.235 -12.293  0.00  0.00    +0.015 C 
ATOM     15  C   UNL     1      36.515 -25.508 -12.979  0.00  0.00    +0.015 C 
ATOM     16  C   UNL     1      37.092 -23.314 -11.355  0.00  0.00    +0.001 C 
ATOM     17  C   UNL     1      37.544 -25.585 -12.039  0.00  0.00    +0.001 C 
ATOM     18  C   UNL     1      37.832 -24.488 -11.227  0.00  0.00    +0.000 C 
ENDBRANCH   1  13
BRANCH   8  20
ATOM     19  O   UNL     1      34.790 -22.386 -18.012  0.00  0.00    -0.270 OA
ATOM     20  N   UNL     1      32.472 -21.982 -18.035  0.00  0.00    -0.281 N 
ATOM     21  C   UNL     1      33.783 -21.919 -18.528  0.00  0.00    +0.250 C 
ATOM     22  H   UNL     1      31.782 -21.547 -18.586  0.00  0.00    +0.155 HD
BRANCH  21  23
ATOM     23  C   UNL     1      33.848 -21.180 -19.823  0.00  0.00    +0.058 C 
ATOM     24  C   UNL     1      32.853 -20.367 -20.192  0.00  0.00    +0.005 C 
ENDBRANCH  21  23
ENDBRANCH   8  20
TORSDOF 3
ENDMDL
MODEL 8
REMARK VINA RESULT:      -9.3      2.869      5.808
REMARK  Name = 10401956
REMARK  3 active torsions:
REMARK  status: ('A' for Active; 'I' for Inactive)
REMARK    1  A    between atoms: N_1  and  C_13
REMARK    2  A    between atoms: C_8  and  N_20
REMARK    3  A    between atoms: C_21  and  C_23
REMARK                            x       y       z     vdW  Elec       q    Type
REMARK                         _______ _______ _______ _____ _____    ______ ____
ROOT
ATOM      1  N   UNL     1      35.337 -23.275 -14.005  0.00  0.00    -0.301 N 
ATOM      2  N   UNL     1      36.665 -21.762 -17.621  0.00  0.00    -0.248 NA
ATOM      3  N   UNL     1      37.088 -22.479 -15.360  0.00  0.00    -0.233 NA
ATOM      4  C   UNL     1      34.851 -22.567 -16.273  0.00  0.00    +0.117 C 
ATOM      5  C   UNL     1      35.359 -22.050 -17.476  0.00  0.00    +0.067 C 
ATOM      6  C   UNL     1      35.775 -22.758 -15.249  0.00  0.00    +0.115 C 
ATOM      7  C   UNL     1      33.485 -22.865 -16.134  0.00  0.00    +0.001 C 
ATOM      8  C   UNL     1      32.614 -22.650 -17.197  0.00  0.00    +0.047 C 
ATOM      9  C   UNL     1      34.465 -21.845 -18.524  0.00  0.00    +0.016 C 
ATOM     10  C   UNL     1      33.104 -22.140 -18.394  0.00  0.00    +0.016 C 
ATOM     11  C   UNL     1      37.458 -21.992 -16.555  0.00  0.00    +0.251 C 
ATOM     12  H   UNL     1      34.382 -23.150 -13.799  0.00  0.00    +0.153 HD
ENDROOT
BRANCH   1  13
ATOM     13  C   UNL     1      36.081 -23.936 -13.044  0.00  0.00    +0.049 C 
ATOM     14  C   UNL     1      36.497 -25.268 -13.237  0.00  0.00    +0.015 C 
ATOM     15  C   UNL     1      36.442 -23.295 -11.842  0.00  0.00    +0.015 C 
ATOM     16  C   UNL     1      37.245 -25.933 -12.267  0.00  0.00    +0.001 C 
ATOM     17  C   UNL     1      37.191 -23.963 -10.872  0.00  0.00    +0.001 C 
ATOM     18  C   UNL     1      37.593 -25.281 -11.085  0.00  0.00    +0.000 C 
ENDBRANCH   1  13
BRANCH   8  20
ATOM     19  O   UNL     1      30.853 -22.650 -14.764  0.00  0.00    -0.270 OA
ATOM     20  N   UNL     1      31.257 -22.945 -17.064  0.00  0.00    -0.281 N 
ATOM     21  C   UNL     1      30.479 -22.929 -15.897  0.00  0.00    +0.250 C 
ATOM     22  H   UNL     1      30.787 -23.195 -17.892  0.00  0.00    +0.155 HD
BRANCH  21  23
ATOM     23  C   UNL     1      29.063 -23.308 -16.174  0.00  0.00    +0.058 C 
ATOM     24  C   UNL     1      28.070 -22.823 -15.422  0.00  0.00    +0.005 C 
ENDBRANCH  21  23
ENDBRANCH   8  20
TORSDOF 3
ENDMDL
MODEL 9
REMARK VINA RESULT:      -9.2     12.711     15.454
REMARK  Name = 10401956
REMARK  3 active torsions:
REMARK  status: ('A' for Active; 'I' for Inactive)
REMARK    1  A    between atoms: N_1  and  C_13
REMARK    2  A    between atoms: C_8  and  N_20
REMARK    3  A    between atoms: C_21  and  C_23
REMARK                            x       y       z     vdW  Elec       q    Type
REMARK                         _______ _______ _______ _____ _____    ______ ____
ROOT
ATOM      1  N   UNL     1      33.332  -7.348 -23.253  0.00  0.00    -0.301 N 
ATOM      2  N   UNL     1      31.755  -7.907 -19.468  0.00  0.00    -0.248 NA
ATOM      3  N   UNL     1      32.599  -6.462 -21.201  0.00  0.00    -0.233 NA
ATOM      4  C   UNL     1      32.493  -8.852 -21.546  0.00  0.00    +0.117 C 
ATOM      5  C   UNL     1      31.961  -8.980 -20.252  0.00  0.00    +0.067 C 
ATOM      6  C   UNL     1      32.792  -7.557 -21.961  0.00  0.00    +0.115 C 
ATOM      7  C   UNL     1      32.703  -9.981 -22.357  0.00  0.00    +0.001 C 
ATOM      8  C   UNL     1      32.383 -11.248 -21.881  0.00  0.00    +0.047 C 
ATOM      9  C   UNL     1      31.649 -10.261 -19.802  0.00  0.00    +0.016 C 
ATOM     10  C   UNL     1      31.855 -11.389 -20.603  0.00  0.00    +0.016 C 
ATOM     11  C   UNL     1      32.085  -6.706 -19.986  0.00  0.00    +0.251 C 
ATOM     12  H   UNL     1      33.791  -8.120 -23.658  0.00  0.00    +0.153 HD
ENDROOT
BRANCH   1  13
ATOM     13  C   UNL     1      33.297  -6.197 -24.020  0.00  0.00    +0.049 C 
ATOM     14  C   UNL     1      32.072  -5.592 -24.364  0.00  0.00    +0.015 C 
ATOM     15  C   UNL     1      34.486  -5.597 -24.480  0.00  0.00    +0.015 C 
ATOM     16  C   UNL     1      32.037  -4.433 -25.138  0.00  0.00    +0.001 C 
ATOM     17  C   UNL     1      34.449  -4.437 -25.255  0.00  0.00    +0.001 C 
ATOM     18  C   UNL     1      33.225  -3.855 -25.583  0.00  0.00    +0.000 C 
ENDBRANCH   1  13
BRANCH   8  20
ATOM     19  O   UNL     1      34.388 -13.470 -21.634  0.00  0.00    -0.270 OA
ATOM     20  N   UNL     1      32.589 -12.372 -22.682  0.00  0.00    -0.281 N 
ATOM     21  C   UNL     1      33.546 -13.384 -22.519  0.00  0.00    +0.250 C 
ATOM     22  H   UNL     1      31.989 -12.466 -23.457  0.00  0.00    +0.155 HD
BRANCH  21  23
ATOM     23  C   UNL     1      33.442 -14.416 -23.592  0.00  0.00    +0.058 C 
ATOM     24  C   UNL     1      33.485 -14.062 -24.881  0.00  0.00    +0.005 C 
ENDBRANCH  21  23
ENDBRANCH   8  20
TORSDOF 3
ENDMDL
