MODEL 1
REMARK VINA RESULT:     -13.0      0.000      0.000
REMARK  Name = 119057475
REMARK  5 active torsions:
REMARK  status: ('A' for Active; 'I' for Inactive)
REMARK    1  A    between atoms: N_1  and  C_22
REMARK    2  A    between atoms: C_2  and  N_8
REMARK    3  A    between atoms: N_8  and  C_11
REMARK    4  A    between atoms: C_11  and  C_16
REMARK    5  A    between atoms: C_22  and  C_26
REMARK                            x       y       z     vdW  Elec       q    Type
REMARK                         _______ _______ _______ _____ _____    ______ ____
ROOT
ATOM      1  N   UNL     1      34.792 -21.680 -18.757  0.00  0.00    +0.387 N 
ATOM      2  C   UNL     1      34.560 -19.727 -20.924  0.00  0.00    -0.066 C 
ATOM      3  C   UNL     1      35.959 -20.892 -19.177  0.00  0.00    -0.079 C 
ATOM      4  C   UNL     1      33.545 -20.927 -18.950  0.00  0.00    -0.079 C 
ATOM      5  C   UNL     1      35.855 -20.494 -20.652  0.00  0.00    -0.044 C 
ATOM      6  C   UNL     1      33.359 -20.532 -20.417  0.00  0.00    -0.044 C 
ATOM      7  H   UNL     1      34.750 -22.514 -19.343  0.00  0.00    -0.080 HD
ENDROOT
BRANCH   2   8
ATOM      8  N   UNL     1      34.432 -19.439 -22.351  0.00  0.00    +0.389 N 
ATOM      9  H   UNL     1      33.526 -19.001 -22.522  0.00  0.00    -0.084 HD
ATOM     10  H   UNL     1      34.508 -20.313 -22.869  0.00  0.00    -0.084 HD
BRANCH   8  11
ATOM     11  C   UNL     1      35.488 -18.541 -22.794  0.00  0.00    -0.032 C 
BRANCH  11  16
ATOM     12  O   UNL     1      34.465 -13.825 -22.234  0.00  0.00    -0.467 OA
ATOM     13  O   UNL     1      33.358 -13.854 -24.889  0.00  0.00    -0.453 OA
ATOM     14  N   UNL     1      34.445 -17.228 -24.561  0.00  0.00    -0.151 NA
ATOM     15  N   UNL     1      33.931 -16.074 -25.068  0.00  0.00    -0.107 NA
ATOM     16  C   UNL     1      34.937 -17.237 -23.305  0.00  0.00    +0.062 C 
ATOM     17  C   UNL     1      34.953 -16.116 -22.499  0.00  0.00    +0.056 C 
ATOM     18  C   UNL     1      34.439 -14.941 -23.021  0.00  0.00    +0.194 C 
ATOM     19  C   UNL     1      33.919 -14.961 -24.304  0.00  0.00    +0.278 C 
ATOM     20  C   UNL     1      34.205 -12.635 -22.985  0.00  0.00    +0.253 C 
ATOM     21  C   UNL     1      33.034 -12.851 -23.924  0.00  0.00    +0.254 C 
ENDBRANCH  11  16
ENDBRANCH   8  11
ENDBRANCH   2   8
BRANCH   1  22
ATOM     22  C   UNL     1      34.929 -22.094 -17.361  0.00  0.00    -0.071 C 
BRANCH  22  26
ATOM     23  F   UNL     1      36.204 -24.134 -15.125  0.00  0.00    -0.204 F 
ATOM     24  O   UNL     1      29.605 -22.452 -16.650  0.00  0.00    -0.270 OA
ATOM     25  N   UNL     1      31.771 -23.022 -16.066  0.00  0.00    -0.255 N 
ATOM     26  C   UNL     1      33.985 -23.243 -17.036  0.00  0.00    +0.025 C 
ATOM     27  C   UNL     1      32.500 -22.879 -17.333  0.00  0.00    +0.101 C 
ATOM     28  C   UNL     1      33.946 -23.569 -15.569  0.00  0.00    +0.018 C 
ATOM     29  C   UNL     1      32.658 -23.429 -15.081  0.00  0.00    +0.052 C 
ATOM     30  C   UNL     1      32.284 -23.655 -13.772  0.00  0.00    +0.014 C 
ATOM     31  C   UNL     1      34.944 -23.972 -14.703  0.00  0.00    +0.137 C 
ATOM     32  C   UNL     1      30.433 -22.811 -15.816  0.00  0.00    +0.253 C 
ATOM     33  C   UNL     1      33.285 -24.058 -12.893  0.00  0.00    +0.004 C 
ATOM     34  C   UNL     1      34.607 -24.215 -13.360  0.00  0.00    +0.029 C 
ATOM     35  C   UNL     1      30.877 -23.449 -13.444  0.00  0.00    +0.006 C 
ATOM     36  C   UNL     1      30.011 -23.055 -14.393  0.00  0.00    +0.058 C 
ENDBRANCH  22  26
ENDBRANCH   1  22
TORSDOF 5
ENDMDL
MODEL 2
REMARK VINA RESULT:     -12.6      2.119      2.880
REMARK  Name = 119057475
REMARK  5 active torsions:
REMARK  status: ('A' for Active; 'I' for Inactive)
REMARK    1  A    between atoms: N_1  and  C_22
REMARK    2  A    between atoms: C_2  and  N_8
REMARK    3  A    between atoms: N_8  and  C_11
REMARK    4  A    between atoms: C_11  and  C_16
REMARK    5  A    between atoms: C_22  and  C_26
REMARK                            x       y       z     vdW  Elec       q    Type
REMARK                         _______ _______ _______ _____ _____    ______ ____
ROOT
ATOM      1  N   UNL     1      34.340 -22.349 -19.080  0.00  0.00    +0.387 N 
ATOM      2  C   UNL     1      34.914 -19.808 -20.412  0.00  0.00    -0.066 C 
ATOM      3  C   UNL     1      35.690 -21.770 -19.029  0.00  0.00    -0.079 C 
ATOM      4  C   UNL     1      33.314 -21.300 -19.155  0.00  0.00    -0.079 C 
ATOM      5  C   UNL     1      35.967 -20.907 -20.263  0.00  0.00    -0.044 C 
ATOM      6  C   UNL     1      33.511 -20.421 -20.393  0.00  0.00    -0.044 C 
ATOM      7  H   UNL     1      34.273 -22.915 -19.926  0.00  0.00    -0.080 HD
ENDROOT
BRANCH   2   8
ATOM      8  N   UNL     1      35.139 -19.054 -21.643  0.00  0.00    +0.389 N 
ATOM      9  H   UNL     1      34.291 -19.080 -22.210  0.00  0.00    -0.084 HD
ATOM     10  H   UNL     1      35.917 -19.478 -22.149  0.00  0.00    -0.084 HD
BRANCH   8  11
ATOM     11  C   UNL     1      35.474 -17.669 -21.348  0.00  0.00    -0.032 C 
BRANCH  11  16
ATOM     12  O   UNL     1      34.067 -13.294 -22.920  0.00  0.00    -0.467 OA
ATOM     13  O   UNL     1      33.784 -14.439 -25.544  0.00  0.00    -0.453 OA
ATOM     14  N   UNL     1      34.919 -17.255 -23.684  0.00  0.00    -0.151 NA
ATOM     15  N   UNL     1      34.509 -16.454 -24.706  0.00  0.00    -0.107 NA
ATOM     16  C   UNL     1      35.023 -16.738 -22.442  0.00  0.00    +0.062 C 
ATOM     17  C   UNL     1      34.740 -15.418 -22.153  0.00  0.00    +0.056 C 
ATOM     18  C   UNL     1      34.335 -14.604 -23.197  0.00  0.00    +0.194 C 
ATOM     19  C   UNL     1      34.213 -15.161 -24.458  0.00  0.00    +0.278 C 
ATOM     20  C   UNL     1      33.970 -12.505 -24.110  0.00  0.00    +0.253 C 
ATOM     21  C   UNL     1      33.138 -13.226 -25.152  0.00  0.00    +0.254 C 
ENDBRANCH  11  16
ENDBRANCH   8  11
ENDBRANCH   2   8
BRANCH   1  22
ATOM     22  C   UNL     1      34.107 -23.210 -17.921  0.00  0.00    -0.071 C 
BRANCH  22  26
ATOM     23  F   UNL     1      31.212 -22.776 -16.434  0.00  0.00    -0.204 F 
ATOM     24  O   UNL     1      37.700 -23.261 -13.912  0.00  0.00    -0.270 OA
ATOM     25  N   UNL     1      35.521 -23.133 -14.679  0.00  0.00    -0.255 N 
ATOM     26  C   UNL     1      34.247 -22.429 -16.622  0.00  0.00    +0.025 C 
ATOM     27  C   UNL     1      35.678 -22.552 -16.019  0.00  0.00    +0.101 C 
ATOM     28  C   UNL     1      33.387 -22.976 -15.516  0.00  0.00    +0.018 C 
ATOM     29  C   UNL     1      34.172 -23.353 -14.441  0.00  0.00    +0.052 C 
ATOM     30  C   UNL     1      33.689 -23.892 -13.265  0.00  0.00    +0.014 C 
ATOM     31  C   UNL     1      32.018 -23.133 -15.427  0.00  0.00    +0.137 C 
ATOM     32  C   UNL     1      36.495 -23.436 -13.754  0.00  0.00    +0.253 C 
ATOM     33  C   UNL     1      32.310 -24.057 -13.169  0.00  0.00    +0.004 C 
ATOM     34  C   UNL     1      31.482 -23.678 -14.247  0.00  0.00    +0.029 C 
ATOM     35  C   UNL     1      34.674 -24.233 -12.243  0.00  0.00    +0.006 C 
ATOM     36  C   UNL     1      35.983 -24.022 -12.466  0.00  0.00    +0.058 C 
ENDBRANCH  22  26
ENDBRANCH   1  22
TORSDOF 5
ENDMDL
MODEL 3
REMARK VINA RESULT:     -12.4      7.187     14.946
REMARK  Name = 119057475
REMARK  5 active torsions:
REMARK  status: ('A' for Active; 'I' for Inactive)
REMARK    1  A    between atoms: N_1  and  C_22
REMARK    2  A    between atoms: C_2  and  N_8
REMARK    3  A    between atoms: N_8  and  C_11
REMARK    4  A    between atoms: C_11  and  C_16
REMARK    5  A    between atoms: C_22  and  C_26
REMARK                            x       y       z     vdW  Elec       q    Type
REMARK                         _______ _______ _______ _____ _____    ______ ____
ROOT
ATOM      1  N   UNL     1      32.289  -8.981 -22.472  0.00  0.00    +0.387 N 
ATOM      2  C   UNL     1      32.649 -11.884 -22.410  0.00  0.00    -0.066 C 
ATOM      3  C   UNL     1      32.874  -9.683 -23.623  0.00  0.00    -0.079 C 
ATOM      4  C   UNL     1      31.328  -9.835 -21.760  0.00  0.00    -0.079 C 
ATOM      5  C   UNL     1      33.593 -10.961 -23.182  0.00  0.00    -0.044 C 
ATOM      6  C   UNL     1      31.995 -11.118 -21.257  0.00  0.00    -0.044 C 
ATOM      7  H   UNL     1      33.045  -8.753 -21.826  0.00  0.00    -0.080 HD
ENDROOT
BRANCH   2   8
ATOM      8  N   UNL     1      33.374 -13.053 -21.917  0.00  0.00    +0.389 N 
ATOM      9  H   UNL     1      32.730 -13.842 -21.851  0.00  0.00    -0.084 HD
ATOM     10  H   UNL     1      33.762 -12.834 -20.999  0.00  0.00    -0.084 HD
BRANCH   8  11
ATOM     11  C   UNL     1      34.465 -13.401 -22.814  0.00  0.00    -0.032 C 
BRANCH  11  16
ATOM     12  O   UNL     1      35.250 -18.133 -22.045  0.00  0.00    -0.467 OA
ATOM     13  O   UNL     1      34.141 -18.637 -24.652  0.00  0.00    -0.453 OA
ATOM     14  N   UNL     1      33.848 -15.094 -24.454  0.00  0.00    -0.151 NA
ATOM     15  N   UNL     1      33.769 -16.380 -24.893  0.00  0.00    -0.107 NA
ATOM     16  C   UNL     1      34.397 -14.841 -23.247  0.00  0.00    +0.062 C 
ATOM     17  C   UNL     1      34.879 -15.835 -22.420  0.00  0.00    +0.056 C 
ATOM     18  C   UNL     1      34.786 -17.144 -22.865  0.00  0.00    +0.194 C 
ATOM     19  C   UNL     1      34.241 -17.377 -24.115  0.00  0.00    +0.278 C 
ATOM     20  C   UNL     1      34.815 -19.428 -22.472  0.00  0.00    +0.253 C 
ATOM     21  C   UNL     1      34.983 -19.571 -23.972  0.00  0.00    +0.254 C 
ENDBRANCH  11  16
ENDBRANCH   8  11
ENDBRANCH   2   8
BRANCH   1  22
ATOM     22  C   UNL     1      31.649  -7.738 -22.901  0.00  0.00    -0.071 C 
BRANCH  22  26
ATOM     23  F   UNL     1      34.593  -7.523 -24.339  0.00  0.00    -0.204 F 
ATOM     24  O   UNL     1      30.307  -2.646 -21.783  0.00  0.00    -0.270 OA
ATOM     25  N   UNL     1      31.755  -4.208 -22.685  0.00  0.00    -0.255 N 
ATOM     26  C   UNL     1      32.430  -6.525 -22.417  0.00  0.00    +0.025 C 
ATOM     27  C   UNL     1      31.493  -5.405 -21.875  0.00  0.00    +0.101 C 
ATOM     28  C   UNL     1      33.160  -5.820 -23.527  0.00  0.00    +0.018 C 
ATOM     29  C   UNL     1      32.733  -4.507 -23.623  0.00  0.00    +0.052 C 
ATOM     30  C   UNL     1      33.208  -3.590 -24.539  0.00  0.00    +0.014 C 
ATOM     31  C   UNL     1      34.137  -6.266 -24.395  0.00  0.00    +0.137 C 
ATOM     32  C   UNL     1      31.174  -2.963 -22.593  0.00  0.00    +0.253 C 
ATOM     33  C   UNL     1      34.190  -4.033 -25.420  0.00  0.00    +0.004 C 
ATOM     34  C   UNL     1      34.650  -5.365 -25.345  0.00  0.00    +0.029 C 
ATOM     35  C   UNL     1      32.631  -2.250 -24.490  0.00  0.00    +0.006 C 
ATOM     36  C   UNL     1      31.683  -1.954 -23.585  0.00  0.00    +0.058 C 
ENDBRANCH  22  26
ENDBRANCH   1  22
TORSDOF 5
ENDMDL
MODEL 4
REMARK VINA RESULT:     -12.2      7.117     15.011
REMARK  Name = 119057475
REMARK  5 active torsions:
REMARK  status: ('A' for Active; 'I' for Inactive)
REMARK    1  A    between atoms: N_1  and  C_22
REMARK    2  A    between atoms: C_2  and  N_8
REMARK    3  A    between atoms: N_8  and  C_11
REMARK    4  A    between atoms: C_11  and  C_16
REMARK    5  A    between atoms: C_22  and  C_26
REMARK                            x       y       z     vdW  Elec       q    Type
REMARK                         _______ _______ _______ _____ _____    ______ ____
ROOT
ATOM      1  N   UNL     1      34.541  -8.635 -23.265  0.00  0.00    +0.387 N 
ATOM      2  C   UNL     1      33.880 -11.049 -24.782  0.00  0.00    -0.066 C 
ATOM      3  C   UNL     1      34.974  -8.778 -24.663  0.00  0.00    -0.079 C 
ATOM      4  C   UNL     1      33.275  -9.341 -23.026  0.00  0.00    -0.079 C 
ATOM      5  C   UNL     1      35.162 -10.251 -25.035  0.00  0.00    -0.044 C 
ATOM      6  C   UNL     1      33.405 -10.833 -23.343  0.00  0.00    -0.044 C 
ATOM      7  H   UNL     1      35.254  -9.059 -22.672  0.00  0.00    -0.080 HD
ENDROOT
BRANCH   2   8
ATOM      8  N   UNL     1      34.105 -12.467 -25.053  0.00  0.00    +0.389 N 
ATOM      9  H   UNL     1      35.074 -12.699 -24.833  0.00  0.00    -0.084 HD
ATOM     10  H   UNL     1      33.912 -12.647 -26.038  0.00  0.00    -0.084 HD
BRANCH   8  11
ATOM     11  C   UNL     1      33.221 -13.294 -24.246  0.00  0.00    -0.032 C 
BRANCH  11  16
ATOM     12  O   UNL     1      35.378 -16.476 -21.276  0.00  0.00    -0.467 OA
ATOM     13  O   UNL     1      35.413 -18.341 -23.467  0.00  0.00    -0.453 OA
ATOM     14  N   UNL     1      33.811 -15.542 -24.974  0.00  0.00    -0.151 NA
ATOM     15  N   UNL     1      34.346 -16.778 -24.772  0.00  0.00    -0.107 NA
ATOM     16  C   UNL     1      33.819 -14.647 -23.965  0.00  0.00    +0.062 C 
ATOM     17  C   UNL     1      34.340 -14.927 -22.718  0.00  0.00    +0.056 C 
ATOM     18  C   UNL     1      34.873 -16.188 -22.512  0.00  0.00    +0.194 C 
ATOM     19  C   UNL     1      34.875 -17.083 -23.568  0.00  0.00    +0.278 C 
ATOM     20  C   UNL     1      35.601 -17.879 -21.104  0.00  0.00    +0.253 C 
ATOM     21  C   UNL     1      36.275 -18.459 -22.332  0.00  0.00    +0.254 C 
ENDBRANCH  11  16
ENDBRANCH   8  11
ENDBRANCH   2   8
BRANCH   1  22
ATOM     22  C   UNL     1      34.415  -7.222 -22.910  0.00  0.00    -0.071 C 
BRANCH  22  26
ATOM     23  F   UNL     1      31.601  -7.351 -21.222  0.00  0.00    -0.204 F 
ATOM     24  O   UNL     1      33.993  -2.780 -25.921  0.00  0.00    -0.270 OA
ATOM     25  N   UNL     1      33.158  -4.234 -24.327  0.00  0.00    -0.255 N 
ATOM     26  C   UNL     1      33.268  -6.568 -23.667  0.00  0.00    +0.025 C 
ATOM     27  C   UNL     1      33.774  -5.515 -24.698  0.00  0.00    +0.101 C 
ATOM     28  C   UNL     1      32.378  -5.742 -22.780  0.00  0.00    +0.018 C 
ATOM     29  C   UNL     1      32.356  -4.428 -23.212  0.00  0.00    +0.052 C 
ATOM     30  C   UNL     1      31.633  -3.416 -22.614  0.00  0.00    +0.014 C 
ATOM     31  C   UNL     1      31.624  -6.092 -21.676  0.00  0.00    +0.137 C 
ATOM     32  C   UNL     1      33.298  -3.006 -24.933  0.00  0.00    +0.253 C 
ATOM     33  C   UNL     1      30.874  -3.759 -21.500  0.00  0.00    +0.004 C 
ATOM     34  C   UNL     1      30.871  -5.092 -21.037  0.00  0.00    +0.029 C 
ATOM     35  C   UNL     1      31.740  -2.088 -23.213  0.00  0.00    +0.006 C 
ATOM     36  C   UNL     1      32.515  -1.893 -24.293  0.00  0.00    +0.058 C 
ENDBRANCH  22  26
ENDBRANCH   1  22
TORSDOF 5
ENDMDL
MODEL 5
REMARK VINA RESULT:     -12.0      2.385      3.359
REMARK  Name = 119057475
REMARK  5 active torsions:
REMARK  status: ('A' for Active; 'I' for Inactive)
REMARK    1  A    between atoms: N_1  and  C_22
REMARK    2  A    between atoms: C_2  and  N_8
REMARK    3  A    between atoms: N_8  and  C_11
REMARK    4  A    between atoms: C_11  and  C_16
REMARK    5  A    between atoms: C_22  and  C_26
REMARK                            x       y       z     vdW  Elec       q    Type
REMARK                         _______ _______ _______ _____ _____    ______ ____
ROOT
ATOM      1  N   UNL     1      35.375 -21.632 -17.960  0.00  0.00    +0.387 N 
ATOM      2  C   UNL     1      34.759 -20.616 -20.634  0.00  0.00    -0.066 C 
ATOM      3  C   UNL     1      34.169 -22.083 -18.668  0.00  0.00    -0.079 C 
ATOM      4  C   UNL     1      36.457 -21.312 -18.902  0.00  0.00    -0.079 C 
ATOM      5  C   UNL     1      33.666 -21.011 -19.640  0.00  0.00    -0.044 C 
ATOM      6  C   UNL     1      36.031 -20.215 -19.881  0.00  0.00    -0.044 C 
ATOM      7  H   UNL     1      35.140 -20.779 -17.451  0.00  0.00    -0.080 HD
ENDROOT
BRANCH   2   8
ATOM      8  N   UNL     1      34.294 -19.528 -21.492  0.00  0.00    +0.389 N 
ATOM      9  H   UNL     1      33.742 -18.876 -20.933  0.00  0.00    -0.084 HD
ATOM     10  H   UNL     1      33.727 -19.922 -22.242  0.00  0.00    -0.084 HD
BRANCH   8  11
ATOM     11  C   UNL     1      35.419 -18.817 -22.081  0.00  0.00    -0.032 C 
BRANCH  11  16
ATOM     12  O   UNL     1      34.448 -14.078 -22.520  0.00  0.00    -0.467 OA
ATOM     13  O   UNL     1      33.690 -14.589 -25.248  0.00  0.00    -0.453 OA
ATOM     14  N   UNL     1      34.644 -17.848 -24.177  0.00  0.00    -0.151 NA
ATOM     15  N   UNL     1      34.226 -16.805 -24.946  0.00  0.00    -0.107 NA
ATOM     16  C   UNL     1      34.970 -17.627 -22.887  0.00  0.00    +0.062 C 
ATOM     17  C   UNL     1      34.910 -16.379 -22.301  0.00  0.00    +0.056 C 
ATOM     18  C   UNL     1      34.496 -15.318 -23.090  0.00  0.00    +0.194 C 
ATOM     19  C   UNL     1      34.144 -15.571 -24.404  0.00  0.00    +0.278 C 
ATOM     20  C   UNL     1      34.316 -13.044 -23.500  0.00  0.00    +0.253 C 
ATOM     21  C   UNL     1      33.270 -13.426 -24.530  0.00  0.00    +0.254 C 
ENDBRANCH  11  16
ENDBRANCH   8  11
ENDBRANCH   2   8
BRANCH   1  22
ATOM     22  C   UNL     1      35.814 -22.644 -17.000  0.00  0.00    -0.071 C 
BRANCH  22  26
ATOM     23  F   UNL     1      32.668 -22.430 -16.085  0.00  0.00    -0.204 F 
ATOM     24  O   UNL     1      38.496 -23.593 -12.430  0.00  0.00    -0.270 OA
ATOM     25  N   UNL     1      36.523 -23.252 -13.587  0.00  0.00    -0.255 N 
ATOM     26  C   UNL     1      35.671 -22.140 -15.570  0.00  0.00    +0.025 C 
ATOM     27  C   UNL     1      36.947 -22.422 -14.722  0.00  0.00    +0.101 C 
ATOM     28  C   UNL     1      34.607 -22.871 -14.798  0.00  0.00    +0.018 C 
ATOM     29  C   UNL     1      35.156 -23.477 -13.681  0.00  0.00    +0.052 C 
ATOM     30  C   UNL     1      34.447 -24.223 -12.763  0.00  0.00    +0.014 C 
ATOM     31  C   UNL     1      33.251 -23.003 -15.026  0.00  0.00    +0.137 C 
ATOM     32  C   UNL     1      37.287 -23.761 -12.561  0.00  0.00    +0.253 C 
ATOM     33  C   UNL     1      33.081 -24.364 -12.988  0.00  0.00    +0.004 C 
ATOM     34  C   UNL     1      32.489 -23.755 -14.115  0.00  0.00    +0.029 C 
ATOM     35  C   UNL     1      35.203 -24.789 -11.649  0.00  0.00    +0.006 C 
ATOM     36  C   UNL     1      36.526 -24.576 -11.551  0.00  0.00    +0.058 C 
ENDBRANCH  22  26
ENDBRANCH   1  22
TORSDOF 5
ENDMDL
MODEL 6
REMARK VINA RESULT:     -11.9      3.825     11.116
REMARK  Name = 119057475
REMARK  5 active torsions:
REMARK  status: ('A' for Active; 'I' for Inactive)
REMARK    1  A    between atoms: N_1  and  C_22
REMARK    2  A    between atoms: C_2  and  N_8
REMARK    3  A    between atoms: N_8  and  C_11
REMARK    4  A    between atoms: C_11  and  C_16
REMARK    5  A    between atoms: C_22  and  C_26
REMARK                            x       y       z     vdW  Elec       q    Type
REMARK                         _______ _______ _______ _____ _____    ______ ____
ROOT
ATOM      1  N   UNL     1      33.941 -15.542 -23.621  0.00  0.00    +0.387 N 
ATOM      2  C   UNL     1      35.115 -18.194 -23.232  0.00  0.00    -0.066 C 
ATOM      3  C   UNL     1      35.129 -15.713 -22.773  0.00  0.00    -0.079 C 
ATOM      4  C   UNL     1      33.915 -16.534 -24.705  0.00  0.00    -0.079 C 
ATOM      5  C   UNL     1      35.167 -17.112 -22.151  0.00  0.00    -0.044 C 
ATOM      6  C   UNL     1      33.911 -17.961 -24.149  0.00  0.00    -0.044 C 
ATOM      7  H   UNL     1      33.117 -15.690 -23.040  0.00  0.00    -0.080 HD
ENDROOT
BRANCH   2   8
ATOM      8  N   UNL     1      35.057 -19.519 -22.619  0.00  0.00    +0.389 N 
ATOM      9  H   UNL     1      35.594 -20.174 -23.188  0.00  0.00    -0.084 HD
ATOM     10  H   UNL     1      34.081 -19.813 -22.566  0.00  0.00    -0.084 HD
BRANCH   8  11
ATOM     11  C   UNL     1      35.609 -19.492 -21.273  0.00  0.00    -0.032 C 
BRANCH  11  16
ATOM     12  O   UNL     1      35.133 -22.542 -17.523  0.00  0.00    -0.467 OA
ATOM     13  O   UNL     1      32.281 -22.327 -17.840  0.00  0.00    -0.453 OA
ATOM     14  N   UNL     1      33.426 -20.158 -20.421  0.00  0.00    -0.151 NA
ATOM     15  N   UNL     1      32.619 -20.852 -19.572  0.00  0.00    -0.107 NA
ATOM     16  C   UNL     1      34.764 -20.277 -20.305  0.00  0.00    +0.062 C 
ATOM     17  C   UNL     1      35.366 -21.070 -19.349  0.00  0.00    +0.056 C 
ATOM     18  C   UNL     1      34.543 -21.766 -18.480  0.00  0.00    +0.194 C 
ATOM     19  C   UNL     1      33.173 -21.647 -18.632  0.00  0.00    +0.278 C 
ATOM     20  C   UNL     1      34.202 -22.945 -16.514  0.00  0.00    +0.253 C 
ATOM     21  C   UNL     1      32.906 -23.411 -17.148  0.00  0.00    +0.254 C 
ENDBRANCH  11  16
ENDBRANCH   8  11
ENDBRANCH   2   8
BRANCH   1  22
ATOM     22  C   UNL     1      33.893 -14.186 -24.167  0.00  0.00    -0.071 C 
BRANCH  22  26
ATOM     23  F   UNL     1      34.899 -11.362 -25.507  0.00  0.00    -0.204 F 
ATOM     24  O   UNL     1      31.754 -12.760 -19.437  0.00  0.00    -0.270 OA
ATOM     25  N   UNL     1      32.760 -12.224 -21.450  0.00  0.00    -0.255 N 
ATOM     26  C   UNL     1      34.266 -13.157 -23.110  0.00  0.00    +0.025 C 
ATOM     27  C   UNL     1      33.548 -13.426 -21.754  0.00  0.00    +0.101 C 
ATOM     28  C   UNL     1      33.794 -11.771 -23.452  0.00  0.00    +0.018 C 
ATOM     29  C   UNL     1      32.945 -11.297 -22.466  0.00  0.00    +0.052 C 
ATOM     30  C   UNL     1      32.341 -10.056 -22.478  0.00  0.00    +0.014 C 
ATOM     31  C   UNL     1      34.078 -10.957 -24.531  0.00  0.00    +0.137 C 
ATOM     32  C   UNL     1      31.952 -11.978 -20.363  0.00  0.00    +0.253 C 
ATOM     33  C   UNL     1      32.620  -9.232 -23.565  0.00  0.00    +0.004 C 
ATOM     34  C   UNL     1      33.484  -9.684 -24.584  0.00  0.00    +0.029 C 
ATOM     35  C   UNL     1      31.473  -9.735 -21.349  0.00  0.00    +0.006 C 
ATOM     36  C   UNL     1      31.288 -10.628 -20.362  0.00  0.00    +0.058 C 
ENDBRANCH  22  26
ENDBRANCH   1  22
TORSDOF 5
ENDMDL
MODEL 7
REMARK VINA RESULT:     -11.9      3.521     11.491
REMARK  Name = 119057475
REMARK  5 active torsions:
REMARK  status: ('A' for Active; 'I' for Inactive)
REMARK    1  A    between atoms: N_1  and  C_22
REMARK    2  A    between atoms: C_2  and  N_8
REMARK    3  A    between atoms: N_8  and  C_11
REMARK    4  A    between atoms: C_11  and  C_16
REMARK    5  A    between atoms: C_22  and  C_26
REMARK                            x       y       z     vdW  Elec       q    Type
REMARK                         _______ _______ _______ _____ _____    ______ ____
ROOT
ATOM      1  N   UNL     1      34.432 -15.204 -21.828  0.00  0.00    +0.387 N 
ATOM      2  C   UNL     1      35.507 -17.919 -22.024  0.00  0.00    -0.066 C 
ATOM      3  C   UNL     1      35.000 -15.867 -20.645  0.00  0.00    -0.079 C 
ATOM      4  C   UNL     1      35.094 -15.656 -23.060  0.00  0.00    -0.079 C 
ATOM      5  C   UNL     1      34.858 -17.388 -20.744  0.00  0.00    -0.044 C 
ATOM      6  C   UNL     1      34.955 -17.169 -23.240  0.00  0.00    -0.044 C 
ATOM      7  H   UNL     1      33.447 -15.461 -21.888  0.00  0.00    -0.080 HD
ENDROOT
BRANCH   2   8
ATOM      8  N   UNL     1      35.280 -19.357 -22.148  0.00  0.00    +0.389 N 
ATOM      9  H   UNL     1      36.042 -19.856 -21.687  0.00  0.00    -0.084 HD
ATOM     10  H   UNL     1      35.245 -19.599 -23.138  0.00  0.00    -0.084 HD
BRANCH   8  11
ATOM     11  C   UNL     1      34.018 -19.737 -21.531  0.00  0.00    -0.032 C 
BRANCH  11  16
ATOM     12  O   UNL     1      32.316 -22.305 -17.775  0.00  0.00    -0.467 OA
ATOM     13  O   UNL     1      35.044 -22.820 -17.022  0.00  0.00    -0.453 OA
ATOM     14  N   UNL     1      35.501 -20.865 -19.961  0.00  0.00    -0.151 NA
ATOM     15  N   UNL     1      35.742 -21.625 -18.858  0.00  0.00    -0.107 NA
ATOM     16  C   UNL     1      34.227 -20.587 -20.306  0.00  0.00    +0.062 C 
ATOM     17  C   UNL     1      33.139 -21.050 -19.593  0.00  0.00    +0.056 C 
ATOM     18  C   UNL     1      33.388 -21.833 -18.478  0.00  0.00    +0.194 C 
ATOM     19  C   UNL     1      34.703 -22.085 -18.129  0.00  0.00    +0.278 C 
ATOM     20  C   UNL     1      32.691 -23.337 -16.858  0.00  0.00    +0.253 C 
ATOM     21  C   UNL     1      33.950 -22.943 -16.110  0.00  0.00    +0.254 C 
ENDBRANCH  11  16
ENDBRANCH   8  11
ENDBRANCH   2   8
BRANCH   1  22
ATOM     22  C   UNL     1      34.531 -13.751 -21.697  0.00  0.00    -0.071 C 
BRANCH  22  26
ATOM     23  F   UNL     1      31.592 -13.190 -20.343  0.00  0.00    -0.204 F 
ATOM     24  O   UNL     1      35.144  -9.800 -25.301  0.00  0.00    -0.270 OA
ATOM     25  N   UNL     1      33.932 -10.853 -23.635  0.00  0.00    -0.255 N 
ATOM     26  C   UNL     1      33.585 -13.049 -22.662  0.00  0.00    +0.025 C 
ATOM     27  C   UNL     1      34.355 -12.254 -23.758  0.00  0.00    +0.101 C 
ATOM     28  C   UNL     1      32.769 -11.973 -22.001  0.00  0.00    +0.018 C 
ATOM     29  C   UNL     1      33.009 -10.751 -22.604  0.00  0.00    +0.052 C 
ATOM     30  C   UNL     1      32.415  -9.561 -22.235  0.00  0.00    +0.014 C 
ATOM     31  C   UNL     1      31.868 -12.032 -20.956  0.00  0.00    +0.137 C 
ATOM     32  C   UNL     1      34.333  -9.766 -24.379  0.00  0.00    +0.253 C 
ATOM     33  C   UNL     1      31.509  -9.612 -21.180  0.00  0.00    +0.004 C 
ATOM     34  C   UNL     1      31.239 -10.844 -20.546  0.00  0.00    +0.029 C 
ATOM     35  C   UNL     1      32.799  -8.371 -22.989  0.00  0.00    +0.006 C 
ATOM     36  C   UNL     1      33.692  -8.462 -23.988  0.00  0.00    +0.058 C 
ENDBRANCH  22  26
ENDBRANCH   1  22
TORSDOF 5
ENDMDL
MODEL 8
REMARK VINA RESULT:     -11.9      2.494      3.502
REMARK  Name = 119057475
REMARK  5 active torsions:
REMARK  status: ('A' for Active; 'I' for Inactive)
REMARK    1  A    between atoms: N_1  and  C_22
REMARK    2  A    between atoms: C_2  and  N_8
REMARK    3  A    between atoms: N_8  and  C_11
REMARK    4  A    between atoms: C_11  and  C_16
REMARK    5  A    between atoms: C_22  and  C_26
REMARK                            x       y       z     vdW  Elec       q    Type
REMARK                         _______ _______ _______ _____ _____    ______ ____
ROOT
ATOM      1  N   UNL     1      35.703 -21.094 -20.182  0.00  0.00    +0.387 N 
ATOM      2  C   UNL     1      35.753 -18.284 -21.001  0.00  0.00    -0.066 C 
ATOM      3  C   UNL     1      36.765 -20.198 -19.703  0.00  0.00    -0.079 C 
ATOM      4  C   UNL     1      34.449 -20.360 -20.404  0.00  0.00    -0.079 C 
ATOM      5  C   UNL     1      37.032 -19.072 -20.707  0.00  0.00    -0.044 C 
ATOM      6  C   UNL     1      34.637 -19.240 -21.431  0.00  0.00    -0.044 C 
ATOM      7  H   UNL     1      36.001 -21.483 -21.076  0.00  0.00    -0.080 HD
ENDROOT
BRANCH   2   8
ATOM      8  N   UNL     1      36.005 -17.276 -22.028  0.00  0.00    +0.389 N 
ATOM      9  H   UNL     1      36.825 -17.550 -22.571  0.00  0.00    -0.084 HD
ATOM     10  H   UNL     1      36.164 -16.378 -21.573  0.00  0.00    -0.084 HD
BRANCH   8  11
ATOM     11  C   UNL     1      34.862 -17.151 -22.921  0.00  0.00    -0.032 C 
BRANCH  11  16
ATOM     12  O   UNL     1      33.567 -13.609 -25.982  0.00  0.00    -0.467 OA
ATOM     13  O   UNL     1      33.744 -11.774 -23.773  0.00  0.00    -0.453 OA
ATOM     14  N   UNL     1      34.583 -14.847 -22.182  0.00  0.00    -0.151 NA
ATOM     15  N   UNL     1      34.302 -13.533 -22.400  0.00  0.00    -0.107 NA
ATOM     16  C   UNL     1      34.537 -15.712 -23.217  0.00  0.00    +0.062 C 
ATOM     17  C   UNL     1      34.205 -15.328 -24.500  0.00  0.00    +0.056 C 
ATOM     18  C   UNL     1      33.909 -13.993 -24.716  0.00  0.00    +0.194 C 
ATOM     19  C   UNL     1      33.985 -13.119 -23.645  0.00  0.00    +0.278 C 
ATOM     20  C   UNL     1      32.989 -12.301 -26.006  0.00  0.00    +0.253 C 
ATOM     21  C   UNL     1      33.795 -11.354 -25.138  0.00  0.00    +0.254 C 
ENDBRANCH  11  16
ENDBRANCH   8  11
ENDBRANCH   2   8
BRANCH   1  22
ATOM     22  C   UNL     1      35.494 -22.191 -19.239  0.00  0.00    -0.071 C 
BRANCH  22  26
ATOM     23  F   UNL     1      32.358 -21.804 -18.345  0.00  0.00    -0.204 F 
ATOM     24  O   UNL     1      38.096 -23.249 -14.646  0.00  0.00    -0.270 OA
ATOM     25  N   UNL     1      36.149 -22.813 -15.818  0.00  0.00    -0.255 N 
ATOM     26  C   UNL     1      35.370 -21.671 -17.814  0.00  0.00    +0.025 C 
ATOM     27  C   UNL     1      36.624 -22.013 -16.955  0.00  0.00    +0.101 C 
ATOM     28  C   UNL     1      34.265 -22.339 -17.043  0.00  0.00    +0.018 C 
ATOM     29  C   UNL     1      34.774 -22.965 -15.919  0.00  0.00    +0.052 C 
ATOM     30  C   UNL     1      34.021 -23.667 -15.000  0.00  0.00    +0.014 C 
ATOM     31  C   UNL     1      32.904 -22.400 -17.279  0.00  0.00    +0.137 C 
ATOM     32  C   UNL     1      36.880 -23.354 -14.784  0.00  0.00    +0.253 C 
ATOM     33  C   UNL     1      32.650 -23.736 -15.233  0.00  0.00    +0.004 C 
ATOM     34  C   UNL     1      32.099 -23.105 -16.367  0.00  0.00    +0.029 C 
ATOM     35  C   UNL     1      34.739 -24.264 -13.878  0.00  0.00    +0.006 C 
ATOM     36  C   UNL     1      36.071 -24.121 -13.773  0.00  0.00    +0.058 C 
ENDBRANCH  22  26
ENDBRANCH   1  22
TORSDOF 5
ENDMDL
MODEL 9
REMARK VINA RESULT:     -11.7      5.401     12.113
REMARK  Name = 119057475
REMARK  5 active torsions:
REMARK  status: ('A' for Active; 'I' for Inactive)
REMARK    1  A    between atoms: N_1  and  C_22
REMARK    2  A    between atoms: C_2  and  N_8
REMARK    3  A    between atoms: N_8  and  C_11
REMARK    4  A    between atoms: C_11  and  C_16
REMARK    5  A    between atoms: C_22  and  C_26
REMARK                            x       y       z     vdW  Elec       q    Type
REMARK                         _______ _______ _______ _____ _____    ______ ____
ROOT
ATOM      1  N   UNL     1      33.527 -12.068 -23.453  0.00  0.00    +0.387 N 
ATOM      2  C   UNL     1      34.076 -14.865 -24.113  0.00  0.00    -0.066 C 
ATOM      3  C   UNL     1      34.252 -12.927 -22.507  0.00  0.00    -0.079 C 
ATOM      4  C   UNL     1      33.790 -12.467 -24.843  0.00  0.00    -0.079 C 
ATOM      5  C   UNL     1      33.850 -14.396 -22.675  0.00  0.00    -0.044 C 
ATOM      6  C   UNL     1      33.372 -13.919 -25.090  0.00  0.00    -0.044 C 
ATOM      7  H   UNL     1      32.528 -12.181 -23.277  0.00  0.00    -0.080 HD
ENDROOT
BRANCH   2   8
ATOM      8  N   UNL     1      33.601 -16.237 -24.279  0.00  0.00    +0.389 N 
ATOM      9  H   UNL     1      33.016 -16.289 -25.114  0.00  0.00    -0.084 HD
ATOM     10  H   UNL     1      33.063 -16.499 -23.453  0.00  0.00    -0.084 HD
BRANCH   8  11
ATOM     11  C   UNL     1      34.718 -17.158 -24.420  0.00  0.00    -0.032 C 
BRANCH  11  16
ATOM     12  O   UNL     1      37.290 -18.882 -20.678  0.00  0.00    -0.467 OA
ATOM     13  O   UNL     1      35.041 -20.558 -20.035  0.00  0.00    -0.453 OA
ATOM     14  N   UNL     1      33.807 -18.814 -22.883  0.00  0.00    -0.151 NA
ATOM     15  N   UNL     1      33.894 -19.639 -21.804  0.00  0.00    -0.107 NA
ATOM     16  C   UNL     1      34.866 -18.048 -23.215  0.00  0.00    +0.062 C 
ATOM     17  C   UNL     1      36.047 -18.052 -22.500  0.00  0.00    +0.056 C 
ATOM     18  C   UNL     1      36.129 -18.884 -21.397  0.00  0.00    +0.194 C 
ATOM     19  C   UNL     1      35.038 -19.678 -21.088  0.00  0.00    +0.278 C 
ATOM     20  C   UNL     1      37.135 -19.529 -19.411  0.00  0.00    +0.253 C 
ATOM     21  C   UNL     1      36.367 -20.826 -19.573  0.00  0.00    +0.254 C 
ENDBRANCH  11  16
ENDBRANCH   8  11
ENDBRANCH   2   8
BRANCH   1  22
ATOM     22  C   UNL     1      33.883 -10.665 -23.247  0.00  0.00    -0.071 C 
BRANCH  22  26
ATOM     23  F   UNL     1      31.945 -11.857 -20.879  0.00  0.00    -0.204 F 
ATOM     24  O   UNL     1      32.984  -5.357 -23.196  0.00  0.00    -0.270 OA
ATOM     25  N   UNL     1      32.623  -7.482 -22.354  0.00  0.00    -0.255 N 
ATOM     26  C   UNL     1      32.641  -9.809 -23.045  0.00  0.00    +0.025 C 
ATOM     27  C   UNL     1      32.859  -8.342 -23.521  0.00  0.00    +0.101 C 
ATOM     28  C   UNL     1      32.288  -9.624 -21.595  0.00  0.00    +0.018 C 
ATOM     29  C   UNL     1      32.291  -8.279 -21.268  0.00  0.00    +0.052 C 
ATOM     30  C   UNL     1      32.007  -7.773 -20.016  0.00  0.00    +0.014 C 
ATOM     31  C   UNL     1      31.972 -10.545 -20.615  0.00  0.00    +0.137 C 
ATOM     32  C   UNL     1      32.696  -6.109 -22.268  0.00  0.00    +0.253 C 
ATOM     33  C   UNL     1      31.692  -8.695 -19.022  0.00  0.00    +0.004 C 
ATOM     34  C   UNL     1      31.675 -10.074 -19.324  0.00  0.00    +0.029 C 
ATOM     35  C   UNL     1      32.066  -6.323 -19.862  0.00  0.00    +0.006 C 
ATOM     36  C   UNL     1      32.387  -5.543 -20.909  0.00  0.00    +0.058 C 
ENDBRANCH  22  26
ENDBRANCH   1  22
TORSDOF 5
ENDMDL
