MODEL 1
REMARK VINA RESULT:     -11.8      0.000      0.000
REMARK  Name = 448942
REMARK  8 active torsions:
REMARK  status: ('A' for Active; 'I' for Inactive)
REMARK    1  A    between atoms: C_2  and  C_20
REMARK    2  A    between atoms: C_3  and  C_6
REMARK    3  A    between atoms: C_7  and  C_13
REMARK    4  A    between atoms: N_19  and  C_22
REMARK    5  A    between atoms: C_22  and  C_23
REMARK    6  A    between atoms: C_22  and  C_29
REMARK    7  A    between atoms: C_29  and  C_31
REMARK    8  A    between atoms: C_31  and  O_32
REMARK                            x       y       z     vdW  Elec       q    Type
REMARK                         _______ _______ _______ _____ _____    ______ ____
ROOT
ATOM      1  S   UNL     1      33.982 -23.718 -15.697  0.00  0.00    -0.082 S 
ATOM      2  C   UNL     1      35.581 -23.161 -15.680  0.00  0.00    +0.083 C 
ATOM      3  C   UNL     1      34.779 -22.127 -17.552  0.00  0.00    +0.007 C 
ATOM      4  C   UNL     1      35.901 -22.331 -16.697  0.00  0.00    +0.012 C 
ATOM      5  C   UNL     1      33.671 -22.823 -17.124  0.00  0.00    +0.036 C 
ENDROOT
BRANCH   3   6
ATOM      6  C   UNL     1      34.728 -21.312 -18.735  0.00  0.00    +0.001 C 
ATOM      7  C   UNL     1      34.630 -19.733 -21.031  0.00  0.00    +0.000 C 
ATOM      8  C   UNL     1      33.498 -20.993 -19.308  0.00  0.00    +0.000 C 
ATOM      9  C   UNL     1      35.910 -20.843 -19.308  0.00  0.00    +0.000 C 
ATOM     10  C   UNL     1      33.448 -20.203 -20.456  0.00  0.00    +0.000 C 
ATOM     11  C   UNL     1      35.860 -20.054 -20.457  0.00  0.00    +0.000 C 
BRANCH   7  13
ATOM     12  N   UNL     1      34.478 -17.333 -24.524  0.00  0.00    -0.242 NA
ATOM     13  C   UNL     1      34.579 -18.915 -22.222  0.00  0.00    +0.003 C 
ATOM     14  C   UNL     1      35.218 -17.681 -22.249  0.00  0.00    +0.021 C 
ATOM     15  C   UNL     1      33.888 -19.359 -23.345  0.00  0.00    +0.021 C 
ATOM     16  C   UNL     1      35.139 -16.934 -23.414  0.00  0.00    +0.099 C 
ATOM     17  C   UNL     1      33.868 -18.537 -24.460  0.00  0.00    +0.099 C 
ENDBRANCH   7  13
ENDBRANCH   3   6
BRANCH   2  20
ATOM     18  O   UNL     1      37.435 -22.971 -14.218  0.00  0.00    -0.270 OA
ATOM     19  N   UNL     1      36.121 -24.845 -14.025  0.00  0.00    -0.298 N 
ATOM     20  C   UNL     1      36.454 -23.618 -14.591  0.00  0.00    +0.252 C 
ATOM     21  H   UNL     1      35.328 -25.324 -14.358  0.00  0.00    +0.150 HD
BRANCH  19  22
ATOM     22  C   UNL     1      36.904 -25.440 -12.964  0.00  0.00    +0.105 C 
BRANCH  22  23
ATOM     23  C   UNL     1      38.194 -26.009 -13.523  0.00  0.00    -0.004 C 
ATOM     24  C   UNL     1      38.146 -27.170 -14.272  0.00  0.00    -0.003 C 
ATOM     25  C   UNL     1      39.384 -25.353 -13.270  0.00  0.00    -0.003 C 
ATOM     26  C   UNL     1      39.333 -27.694 -14.787  0.00  0.00    -0.000 C 
ATOM     27  C   UNL     1      40.570 -25.877 -13.784  0.00  0.00    -0.000 C 
ATOM     28  C   UNL     1      40.544 -27.048 -14.541  0.00  0.00    -0.000 C 
ENDBRANCH  22  23
BRANCH  22  29
ATOM     29  C   UNL     1      37.121 -24.424 -11.829  0.00  0.00    +0.133 C 
BRANCH  29  31
ATOM     30  O   UNL     1      36.397 -24.421  -9.500  0.00  0.00    -0.250 OA
ATOM     31  C   UNL     1      36.141 -24.584 -10.685  0.00  0.00    +0.316 C 
BRANCH  31  32
ATOM     32  O   UNL     1      34.915 -24.967 -11.131  0.00  0.00    -0.480 OA
ATOM     33  H   UNL     1      34.439 -25.632 -10.676  0.00  0.00    +0.295 HD
ENDBRANCH  31  32
ENDBRANCH  29  31
ENDBRANCH  22  29
ENDBRANCH  19  22
ENDBRANCH   2  20
TORSDOF 8
ENDMDL
MODEL 2
REMARK VINA RESULT:     -11.4      1.455      2.681
REMARK  Name = 448942
REMARK  8 active torsions:
REMARK  status: ('A' for Active; 'I' for Inactive)
REMARK    1  A    between atoms: C_2  and  C_20
REMARK    2  A    between atoms: C_3  and  C_6
REMARK    3  A    between atoms: C_7  and  C_13
REMARK    4  A    between atoms: N_19  and  C_22
REMARK    5  A    between atoms: C_22  and  C_23
REMARK    6  A    between atoms: C_22  and  C_29
REMARK    7  A    between atoms: C_29  and  C_31
REMARK    8  A    between atoms: C_31  and  O_32
REMARK                            x       y       z     vdW  Elec       q    Type
REMARK                         _______ _______ _______ _____ _____    ______ ____
ROOT
ATOM      1  S   UNL     1      32.903 -24.043 -15.361  0.00  0.00    -0.082 S 
ATOM      2  C   UNL     1      34.577 -23.805 -15.272  0.00  0.00    +0.083 C 
ATOM      3  C   UNL     1      34.060 -22.575 -17.125  0.00  0.00    +0.007 C 
ATOM      4  C   UNL     1      35.088 -23.018 -16.244  0.00  0.00    +0.012 C 
ATOM      5  C   UNL     1      32.823 -23.059 -16.761  0.00  0.00    +0.036 C 
ENDROOT
BRANCH   3   6
ATOM      6  C   UNL     1      34.210 -21.726 -18.276  0.00  0.00    +0.001 C 
ATOM      7  C   UNL     1      34.499 -20.080 -20.508  0.00  0.00    +0.000 C 
ATOM      8  C   UNL     1      35.483 -21.407 -18.745  0.00  0.00    +0.000 C 
ATOM      9  C   UNL     1      33.080 -21.223 -18.921  0.00  0.00    +0.000 C 
ATOM     10  C   UNL     1      35.629 -20.583 -19.861  0.00  0.00    +0.000 C 
ATOM     11  C   UNL     1      33.226 -20.399 -20.037  0.00  0.00    +0.000 C 
BRANCH   7  13
ATOM     12  N   UNL     1      34.943 -17.573 -23.900  0.00  0.00    -0.242 NA
ATOM     13  C   UNL     1      34.650 -19.224 -21.664  0.00  0.00    +0.003 C 
ATOM     14  C   UNL     1      33.966 -19.513 -22.839  0.00  0.00    +0.021 C 
ATOM     15  C   UNL     1      35.481 -18.110 -21.605  0.00  0.00    +0.021 C 
ATOM     16  C   UNL     1      34.145 -18.664 -23.919  0.00  0.00    +0.099 C 
ATOM     17  C   UNL     1      35.592 -17.324 -22.740  0.00  0.00    +0.099 C 
ENDBRANCH   7  13
ENDBRANCH   3   6
BRANCH   2  20
ATOM     18  O   UNL     1      34.973 -24.324 -12.995  0.00  0.00    -0.270 OA
ATOM     19  N   UNL     1      36.415 -25.208 -14.550  0.00  0.00    -0.298 N 
ATOM     20  C   UNL     1      35.305 -24.456 -14.175  0.00  0.00    +0.252 C 
ATOM     21  H   UNL     1      36.639 -25.283 -15.506  0.00  0.00    +0.150 HD
BRANCH  19  22
ATOM     22  C   UNL     1      37.249 -25.883 -13.580  0.00  0.00    +0.105 C 
BRANCH  22  23
ATOM     23  C   UNL     1      37.728 -27.210 -14.137  0.00  0.00    -0.004 C 
ATOM     24  C   UNL     1      38.473 -28.048 -13.328  0.00  0.00    -0.003 C 
ATOM     25  C   UNL     1      37.409 -27.548 -15.438  0.00  0.00    -0.003 C 
ATOM     26  C   UNL     1      38.914 -29.269 -13.840  0.00  0.00    -0.000 C 
ATOM     27  C   UNL     1      37.850 -28.767 -15.951  0.00  0.00    -0.000 C 
ATOM     28  C   UNL     1      38.603 -29.628 -15.151  0.00  0.00    -0.000 C 
ENDBRANCH  22  23
BRANCH  22  29
ATOM     29  C   UNL     1      38.391 -24.958 -13.126  0.00  0.00    +0.133 C 
BRANCH  29  31
ATOM     30  O   UNL     1      40.604 -25.130 -14.137  0.00  0.00    -0.250 OA
ATOM     31  C   UNL     1      39.446 -24.739 -14.190  0.00  0.00    +0.316 C 
BRANCH  31  32
ATOM     32  O   UNL     1      38.957 -24.015 -15.233  0.00  0.00    -0.480 OA
ATOM     33  H   UNL     1      38.597 -24.454 -15.977  0.00  0.00    +0.295 HD
ENDBRANCH  31  32
ENDBRANCH  29  31
ENDBRANCH  22  29
ENDBRANCH  19  22
ENDBRANCH   2  20
TORSDOF 8
ENDMDL
MODEL 3
REMARK VINA RESULT:     -11.3      1.591      2.150
REMARK  Name = 448942
REMARK  8 active torsions:
REMARK  status: ('A' for Active; 'I' for Inactive)
REMARK    1  A    between atoms: C_2  and  C_20
REMARK    2  A    between atoms: C_3  and  C_6
REMARK    3  A    between atoms: C_7  and  C_13
REMARK    4  A    between atoms: N_19  and  C_22
REMARK    5  A    between atoms: C_22  and  C_23
REMARK    6  A    between atoms: C_22  and  C_29
REMARK    7  A    between atoms: C_29  and  C_31
REMARK    8  A    between atoms: C_31  and  O_32
REMARK                            x       y       z     vdW  Elec       q    Type
REMARK                         _______ _______ _______ _____ _____    ______ ____
ROOT
ATOM      1  S   UNL     1      37.664 -22.229 -15.778  0.00  0.00    -0.082 S 
ATOM      2  C   UNL     1      36.120 -22.896 -15.967  0.00  0.00    +0.083 C 
ATOM      3  C   UNL     1      36.214 -21.495 -17.768  0.00  0.00    +0.007 C 
ATOM      4  C   UNL     1      35.438 -22.446 -17.043  0.00  0.00    +0.012 C 
ATOM      5  C   UNL     1      37.445 -21.283 -17.189  0.00  0.00    +0.036 C 
ENDROOT
BRANCH   3   6
ATOM      6  C   UNL     1      35.832 -20.796 -18.965  0.00  0.00    +0.001 C 
ATOM      7  C   UNL     1      35.088 -19.440 -21.285  0.00  0.00    +0.000 C 
ATOM      8  C   UNL     1      36.777 -20.052 -19.668  0.00  0.00    +0.000 C 
ATOM      9  C   UNL     1      34.514 -20.863 -19.418  0.00  0.00    +0.000 C 
ATOM     10  C   UNL     1      36.406 -19.373 -20.829  0.00  0.00    +0.000 C 
ATOM     11  C   UNL     1      34.143 -20.184 -20.579  0.00  0.00    +0.000 C 
BRANCH   7  13
ATOM     12  N   UNL     1      33.960 -17.374 -24.813  0.00  0.00    -0.242 NA
ATOM     13  C   UNL     1      34.703 -18.735 -22.487  0.00  0.00    +0.003 C 
ATOM     14  C   UNL     1      33.843 -19.333 -23.401  0.00  0.00    +0.021 C 
ATOM     15  C   UNL     1      35.192 -17.457 -22.735  0.00  0.00    +0.021 C 
ATOM     16  C   UNL     1      33.504 -18.617 -24.538  0.00  0.00    +0.099 C 
ATOM     17  C   UNL     1      34.794 -16.825 -23.902  0.00  0.00    +0.099 C 
ENDBRANCH   7  13
ENDBRANCH   3   6
BRANCH   2  20
ATOM     18  O   UNL     1      34.478 -24.084 -14.741  0.00  0.00    -0.270 OA
ATOM     19  N   UNL     1      36.681 -24.546 -14.285  0.00  0.00    -0.298 N 
ATOM     20  C   UNL     1      35.671 -23.880 -14.973  0.00  0.00    +0.252 C 
ATOM     21  H   UNL     1      37.619 -24.347 -14.506  0.00  0.00    +0.150 HD
BRANCH  19  22
ATOM     22  C   UNL     1      36.396 -25.521 -13.254  0.00  0.00    +0.105 C 
BRANCH  22  23
ATOM     23  C   UNL     1      37.084 -26.834 -13.573  0.00  0.00    -0.004 C 
ATOM     24  C   UNL     1      37.190 -27.233 -14.892  0.00  0.00    -0.003 C 
ATOM     25  C   UNL     1      37.587 -27.599 -12.537  0.00  0.00    -0.003 C 
ATOM     26  C   UNL     1      37.823 -28.442 -15.186  0.00  0.00    -0.000 C 
ATOM     27  C   UNL     1      38.219 -28.807 -12.831  0.00  0.00    -0.000 C 
ATOM     28  C   UNL     1      38.336 -29.229 -14.155  0.00  0.00    -0.000 C 
ENDBRANCH  22  23
BRANCH  22  29
ATOM     29  C   UNL     1      36.760 -24.954 -11.871  0.00  0.00    +0.133 C 
BRANCH  29  31
ATOM     30  O   UNL     1      35.277 -25.053  -9.938  0.00  0.00    -0.250 OA
ATOM     31  C   UNL     1      35.552 -24.588 -11.035  0.00  0.00    +0.316 C 
BRANCH  31  32
ATOM     32  O   UNL     1      34.767 -23.676 -11.668  0.00  0.00    -0.480 OA
ATOM     33  H   UNL     1      34.527 -23.807 -12.564  0.00  0.00    +0.295 HD
ENDBRANCH  31  32
ENDBRANCH  29  31
ENDBRANCH  22  29
ENDBRANCH  19  22
ENDBRANCH   2  20
TORSDOF 8
ENDMDL
MODEL 4
REMARK VINA RESULT:     -10.8      2.773      4.587
REMARK  Name = 448942
REMARK  8 active torsions:
REMARK  status: ('A' for Active; 'I' for Inactive)
REMARK    1  A    between atoms: C_2  and  C_20
REMARK    2  A    between atoms: C_3  and  C_6
REMARK    3  A    between atoms: C_7  and  C_13
REMARK    4  A    between atoms: N_19  and  C_22
REMARK    5  A    between atoms: C_22  and  C_23
REMARK    6  A    between atoms: C_22  and  C_29
REMARK    7  A    between atoms: C_29  and  C_31
REMARK    8  A    between atoms: C_31  and  O_32
REMARK                            x       y       z     vdW  Elec       q    Type
REMARK                         _______ _______ _______ _____ _____    ______ ____
ROOT
ATOM      1  S   UNL     1      37.198 -22.493 -16.188  0.00  0.00    -0.082 S 
ATOM      2  C   UNL     1      35.518 -22.692 -16.242  0.00  0.00    +0.083 C 
ATOM      3  C   UNL     1      35.859 -21.366 -18.069  0.00  0.00    +0.007 C 
ATOM      4  C   UNL     1      34.907 -22.061 -17.268  0.00  0.00    +0.012 C 
ATOM      5  C   UNL     1      37.142 -21.516 -17.594  0.00  0.00    +0.036 C 
ENDROOT
BRANCH   3   6
ATOM      6  C   UNL     1      35.595 -20.581 -19.245  0.00  0.00    +0.001 C 
ATOM      7  C   UNL     1      35.080 -19.058 -21.523  0.00  0.00    +0.000 C 
ATOM      8  C   UNL     1      36.621 -19.847 -19.837  0.00  0.00    +0.000 C 
ATOM      9  C   UNL     1      34.311 -20.555 -19.789  0.00  0.00    +0.000 C 
ATOM     10  C   UNL     1      36.364 -19.085 -20.976  0.00  0.00    +0.000 C 
ATOM     11  C   UNL     1      34.054 -19.792 -20.928  0.00  0.00    +0.000 C 
BRANCH   7  13
ATOM     12  N   UNL     1      34.300 -16.738 -24.987  0.00  0.00    -0.242 NA
ATOM     13  C   UNL     1      34.814 -18.267 -22.703  0.00  0.00    +0.003 C 
ATOM     14  C   UNL     1      34.053 -18.795 -23.740  0.00  0.00    +0.021 C 
ATOM     15  C   UNL     1      35.318 -16.975 -22.807  0.00  0.00    +0.021 C 
ATOM     16  C   UNL     1      33.826 -17.998 -24.850  0.00  0.00    +0.099 C 
ATOM     17  C   UNL     1      35.036 -16.259 -23.959  0.00  0.00    +0.099 C 
ENDBRANCH   7  13
ENDBRANCH   3   6
BRANCH   2  20
ATOM     18  O   UNL     1      34.988 -24.741 -15.177  0.00  0.00    -0.270 OA
ATOM     19  N   UNL     1      34.152 -22.815 -14.245  0.00  0.00    -0.298 N 
ATOM     20  C   UNL     1      34.891 -23.512 -15.197  0.00  0.00    +0.252 C 
ATOM     21  H   UNL     1      34.104 -21.834 -14.304  0.00  0.00    +0.150 HD
BRANCH  19  22
ATOM     22  C   UNL     1      33.451 -23.487 -13.173  0.00  0.00    +0.105 C 
BRANCH  22  23
ATOM     23  C   UNL     1      32.044 -23.843 -13.612  0.00  0.00    -0.004 C 
ATOM     24  C   UNL     1      31.294 -22.902 -14.292  0.00  0.00    -0.003 C 
ATOM     25  C   UNL     1      31.545 -25.099 -13.320  0.00  0.00    -0.003 C 
ATOM     26  C   UNL     1      29.999 -23.228 -14.696  0.00  0.00    -0.000 C 
ATOM     27  C   UNL     1      30.251 -25.426 -13.723  0.00  0.00    -0.000 C 
ATOM     28  C   UNL     1      29.478 -24.490 -14.411  0.00  0.00    -0.000 C 
ENDBRANCH  22  23
BRANCH  22  29
ATOM     29  C   UNL     1      34.266 -24.695 -12.679  0.00  0.00    +0.133 C 
BRANCH  29  31
ATOM     30  O   UNL     1      35.303 -25.042 -10.499  0.00  0.00    -0.250 OA
ATOM     31  C   UNL     1      35.176 -24.370 -11.513  0.00  0.00    +0.316 C 
BRANCH  31  32
ATOM     32  O   UNL     1      35.837 -23.198 -11.711  0.00  0.00    -0.480 OA
ATOM     33  H   UNL     1      36.181 -22.993 -12.557  0.00  0.00    +0.295 HD
ENDBRANCH  31  32
ENDBRANCH  29  31
ENDBRANCH  22  29
ENDBRANCH  19  22
ENDBRANCH   2  20
TORSDOF 8
ENDMDL
MODEL 5
REMARK VINA RESULT:     -10.6      9.099     15.671
REMARK  Name = 448942
REMARK  8 active torsions:
REMARK  status: ('A' for Active; 'I' for Inactive)
REMARK    1  A    between atoms: C_2  and  C_20
REMARK    2  A    between atoms: C_3  and  C_6
REMARK    3  A    between atoms: C_7  and  C_13
REMARK    4  A    between atoms: N_19  and  C_22
REMARK    5  A    between atoms: C_22  and  C_23
REMARK    6  A    between atoms: C_22  and  C_29
REMARK    7  A    between atoms: C_29  and  C_31
REMARK    8  A    between atoms: C_31  and  O_32
REMARK                            x       y       z     vdW  Elec       q    Type
REMARK                         _______ _______ _______ _____ _____    ______ ____
ROOT
ATOM      1  S   UNL     1      33.494 -11.095 -24.843  0.00  0.00    -0.082 S 
ATOM      2  C   UNL     1      33.307 -10.761 -23.194  0.00  0.00    +0.083 C 
ATOM      3  C   UNL     1      33.973 -12.944 -23.124  0.00  0.00    +0.007 C 
ATOM      4  C   UNL     1      33.582 -11.797 -22.373  0.00  0.00    +0.012 C 
ATOM      5  C   UNL     1      33.967 -12.701 -24.479  0.00  0.00    +0.036 C 
ENDROOT
BRANCH   3   6
ATOM      6  C   UNL     1      34.342 -14.234 -22.607  0.00  0.00    +0.001 C 
ATOM      7  C   UNL     1      35.058 -16.737 -21.608  0.00  0.00    +0.000 C 
ATOM      8  C   UNL     1      34.367 -14.452 -21.231  0.00  0.00    +0.000 C 
ATOM      9  C   UNL     1      34.673 -15.265 -23.486  0.00  0.00    +0.000 C 
ATOM     10  C   UNL     1      34.726 -15.703 -20.730  0.00  0.00    +0.000 C 
ATOM     11  C   UNL     1      35.032 -16.517 -22.985  0.00  0.00    +0.000 C 
BRANCH   7  13
ATOM     12  N   UNL     1      36.153 -20.542 -20.088  0.00  0.00    -0.242 NA
ATOM     13  C   UNL     1      35.431 -18.034 -21.089  0.00  0.00    +0.003 C 
ATOM     14  C   UNL     1      36.755 -18.297 -20.757  0.00  0.00    +0.021 C 
ATOM     15  C   UNL     1      34.468 -19.023 -20.921  0.00  0.00    +0.021 C 
ATOM     16  C   UNL     1      37.062 -19.556 -20.264  0.00  0.00    +0.099 C 
ATOM     17  C   UNL     1      34.877 -20.248 -20.422  0.00  0.00    +0.099 C 
ENDBRANCH   7  13
ENDBRANCH   3   6
BRANCH   2  20
ATOM     18  O   UNL     1      31.697  -9.051 -22.883  0.00  0.00    -0.270 OA
ATOM     19  N   UNL     1      33.885  -8.548 -22.396  0.00  0.00    -0.298 N 
ATOM     20  C   UNL     1      32.874  -9.410 -22.813  0.00  0.00    +0.252 C 
ATOM     21  H   UNL     1      34.810  -8.882 -22.358  0.00  0.00    +0.150 HD
BRANCH  19  22
ATOM     22  C   UNL     1      33.618  -7.177 -22.019  0.00  0.00    +0.105 C 
BRANCH  22  23
ATOM     23  C   UNL     1      33.518  -6.305 -23.255  0.00  0.00    -0.004 C 
ATOM     24  C   UNL     1      34.673  -5.970 -23.937  0.00  0.00    -0.003 C 
ATOM     25  C   UNL     1      32.274  -5.867 -23.670  0.00  0.00    -0.003 C 
ATOM     26  C   UNL     1      34.581  -5.168 -25.075  0.00  0.00    -0.000 C 
ATOM     27  C   UNL     1      32.182  -5.065 -24.807  0.00  0.00    -0.000 C 
ATOM     28  C   UNL     1      33.335  -4.715 -25.509  0.00  0.00    -0.000 C 
ENDBRANCH  22  23
BRANCH  22  29
ATOM     29  C   UNL     1      32.377  -7.106 -21.112  0.00  0.00    +0.133 C 
BRANCH  29  31
ATOM     30  O   UNL     1      32.185  -8.605 -19.198  0.00  0.00    -0.250 OA
ATOM     31  C   UNL     1      32.638  -7.585 -19.700  0.00  0.00    +0.316 C 
BRANCH  31  32
ATOM     32  O   UNL     1      33.433  -6.717 -19.020  0.00  0.00    -0.480 OA
ATOM     33  H   UNL     1      34.054  -7.041 -18.398  0.00  0.00    +0.295 HD
ENDBRANCH  31  32
ENDBRANCH  29  31
ENDBRANCH  22  29
ENDBRANCH  19  22
ENDBRANCH   2  20
TORSDOF 8
ENDMDL
MODEL 6
REMARK VINA RESULT:     -10.5     10.461     17.187
REMARK  Name = 448942
REMARK  8 active torsions:
REMARK  status: ('A' for Active; 'I' for Inactive)
REMARK    1  A    between atoms: C_2  and  C_20
REMARK    2  A    between atoms: C_3  and  C_6
REMARK    3  A    between atoms: C_7  and  C_13
REMARK    4  A    between atoms: N_19  and  C_22
REMARK    5  A    between atoms: C_22  and  C_23
REMARK    6  A    between atoms: C_22  and  C_29
REMARK    7  A    between atoms: C_29  and  C_31
REMARK    8  A    between atoms: C_31  and  O_32
REMARK                            x       y       z     vdW  Elec       q    Type
REMARK                         _______ _______ _______ _____ _____    ______ ____
ROOT
ATOM      1  S   UNL     1      31.876  -9.073 -22.382  0.00  0.00    -0.082 S 
ATOM      2  C   UNL     1      33.493  -8.907 -22.857  0.00  0.00    +0.083 C 
ATOM      3  C   UNL     1      33.278 -11.180 -22.828  0.00  0.00    +0.007 C 
ATOM      4  C   UNL     1      34.142 -10.073 -23.066  0.00  0.00    +0.012 C 
ATOM      5  C   UNL     1      32.016 -10.779 -22.449  0.00  0.00    +0.036 C 
ENDROOT
BRANCH   3   6
ATOM      6  C   UNL     1      33.604 -12.576 -22.944  0.00  0.00    +0.001 C 
ATOM      7  C   UNL     1      34.235 -15.282 -23.168  0.00  0.00    +0.000 C 
ATOM      8  C   UNL     1      33.390 -13.242 -24.149  0.00  0.00    +0.000 C 
ATOM      9  C   UNL     1      34.132 -13.260 -21.850  0.00  0.00    +0.000 C 
ATOM     10  C   UNL     1      33.705 -14.596 -24.262  0.00  0.00    +0.000 C 
ATOM     11  C   UNL     1      34.448 -14.614 -21.963  0.00  0.00    +0.000 C 
BRANCH   7  13
ATOM     12  N   UNL     1      35.188 -19.401 -23.508  0.00  0.00    -0.242 NA
ATOM     13  C   UNL     1      34.561 -16.686 -23.284  0.00  0.00    +0.003 C 
ATOM     14  C   UNL     1      33.950 -17.465 -24.260  0.00  0.00    +0.021 C 
ATOM     15  C   UNL     1      35.485 -17.263 -22.420  0.00  0.00    +0.021 C 
ATOM     16  C   UNL     1      34.294 -18.806 -24.331  0.00  0.00    +0.099 C 
ATOM     17  C   UNL     1      35.761 -18.612 -22.572  0.00  0.00    +0.099 C 
ENDBRANCH   7  13
ENDBRANCH   3   6
BRANCH   2  20
ATOM     18  O   UNL     1      35.226  -7.293 -22.838  0.00  0.00    -0.270 OA
ATOM     19  N   UNL     1      33.097  -6.557 -23.288  0.00  0.00    -0.298 N 
ATOM     20  C   UNL     1      34.031  -7.547 -22.996  0.00  0.00    +0.252 C 
ATOM     21  H   UNL     1      32.153  -6.811 -23.405  0.00  0.00    +0.150 HD
BRANCH  19  22
ATOM     22  C   UNL     1      33.470  -5.165 -23.425  0.00  0.00    +0.105 C 
BRANCH  22  23
ATOM     23  C   UNL     1      33.746  -4.840 -24.880  0.00  0.00    -0.004 C 
ATOM     24  C   UNL     1      35.054  -4.832 -25.331  0.00  0.00    -0.003 C 
ATOM     25  C   UNL     1      32.685  -4.558 -25.720  0.00  0.00    -0.003 C 
ATOM     26  C   UNL     1      35.308  -4.532 -26.669  0.00  0.00    -0.000 C 
ATOM     27  C   UNL     1      32.939  -4.258 -27.058  0.00  0.00    -0.000 C 
ATOM     28  C   UNL     1      34.251  -4.244 -27.532  0.00  0.00    -0.000 C 
ENDBRANCH  22  23
BRANCH  22  29
ATOM     29  C   UNL     1      32.402  -4.263 -22.784  0.00  0.00    +0.133 C 
BRANCH  29  31
ATOM     30  O   UNL     1      30.405  -5.390 -21.954  0.00  0.00    -0.250 OA
ATOM     31  C   UNL     1      31.542  -4.981 -21.765  0.00  0.00    +0.316 C 
BRANCH  31  32
ATOM     32  O   UNL     1      32.183  -5.104 -20.572  0.00  0.00    -0.480 OA
ATOM     33  H   UNL     1      31.822  -5.649 -19.902  0.00  0.00    +0.295 HD
ENDBRANCH  31  32
ENDBRANCH  29  31
ENDBRANCH  22  29
ENDBRANCH  19  22
ENDBRANCH   2  20
TORSDOF 8
ENDMDL
MODEL 7
REMARK VINA RESULT:     -10.1      3.184      5.090
REMARK  Name = 448942
REMARK  8 active torsions:
REMARK  status: ('A' for Active; 'I' for Inactive)
REMARK    1  A    between atoms: C_2  and  C_20
REMARK    2  A    between atoms: C_3  and  C_6
REMARK    3  A    between atoms: C_7  and  C_13
REMARK    4  A    between atoms: N_19  and  C_22
REMARK    5  A    between atoms: C_22  and  C_23
REMARK    6  A    between atoms: C_22  and  C_29
REMARK    7  A    between atoms: C_29  and  C_31
REMARK    8  A    between atoms: C_31  and  O_32
REMARK                            x       y       z     vdW  Elec       q    Type
REMARK                         _______ _______ _______ _____ _____    ______ ____
ROOT
ATOM      1  S   UNL     1      36.825 -21.141 -19.532  0.00  0.00    -0.082 S 
ATOM      2  C   UNL     1      35.142 -21.166 -19.346  0.00  0.00    +0.083 C 
ATOM      3  C   UNL     1      35.416 -19.267 -20.583  0.00  0.00    +0.007 C 
ATOM      4  C   UNL     1      34.493 -20.138 -19.935  0.00  0.00    +0.012 C 
ATOM      5  C   UNL     1      36.717 -19.694 -20.442  0.00  0.00    +0.036 C 
ENDROOT
BRANCH   3   6
ATOM      6  C   UNL     1      35.109 -18.068 -21.315  0.00  0.00    +0.001 C 
ATOM      7  C   UNL     1      34.512 -15.744 -22.736  0.00  0.00    +0.000 C 
ATOM      8  C   UNL     1      35.033 -16.846 -20.650  0.00  0.00    +0.000 C 
ATOM      9  C   UNL     1      34.887 -18.131 -22.691  0.00  0.00    +0.000 C 
ATOM     10  C   UNL     1      34.734 -15.683 -21.359  0.00  0.00    +0.000 C 
ATOM     11  C   UNL     1      34.588 -16.968 -23.401  0.00  0.00    +0.000 C 
BRANCH   7  13
ATOM     12  N   UNL     1      33.597 -12.209 -24.893  0.00  0.00    -0.242 NA
ATOM     13  C   UNL     1      34.201 -14.539 -23.472  0.00  0.00    +0.003 C 
ATOM     14  C   UNL     1      34.315 -13.297 -22.857  0.00  0.00    +0.021 C 
ATOM     15  C   UNL     1      33.784 -14.617 -24.797  0.00  0.00    +0.021 C 
ATOM     16  C   UNL     1      34.005 -12.172 -23.604  0.00  0.00    +0.099 C 
ATOM     17  C   UNL     1      33.497 -13.433 -25.457  0.00  0.00    +0.099 C 
ENDBRANCH   7  13
ENDBRANCH   3   6
BRANCH   2  20
ATOM     18  O   UNL     1      33.860 -23.144 -19.113  0.00  0.00    -0.270 OA
ATOM     19  N   UNL     1      34.802 -22.262 -17.213  0.00  0.00    -0.298 N 
ATOM     20  C   UNL     1      34.553 -22.274 -18.582  0.00  0.00    +0.252 C 
ATOM     21  H   UNL     1      35.362 -21.545 -16.837  0.00  0.00    +0.150 HD
BRANCH  19  22
ATOM     22  C   UNL     1      34.263 -23.270 -16.325  0.00  0.00    +0.105 C 
BRANCH  22  23
ATOM     23  C   UNL     1      35.351 -23.789 -15.404  0.00  0.00    -0.004 C 
ATOM     24  C   UNL     1      36.567 -23.132 -15.363  0.00  0.00    -0.003 C 
ATOM     25  C   UNL     1      35.100 -24.906 -14.630  0.00  0.00    -0.003 C 
ATOM     26  C   UNL     1      37.568 -23.609 -14.517  0.00  0.00    -0.000 C 
ATOM     27  C   UNL     1      36.100 -25.384 -13.784  0.00  0.00    -0.000 C 
ATOM     28  C   UNL     1      37.335 -24.736 -13.728  0.00  0.00    -0.000 C 
ENDBRANCH  22  23
BRANCH  22  29
ATOM     29  C   UNL     1      33.036 -22.719 -15.579  0.00  0.00    +0.133 C 
BRANCH  29  31
ATOM     30  O   UNL     1      30.909 -23.892 -15.801  0.00  0.00    -0.250 OA
ATOM     31  C   UNL     1      31.721 -23.086 -16.234  0.00  0.00    +0.316 C 
BRANCH  31  32
ATOM     32  O   UNL     1      31.546 -22.419 -17.406  0.00  0.00    -0.480 OA
ATOM     33  H   UNL     1      32.212 -21.839 -17.717  0.00  0.00    +0.295 HD
ENDBRANCH  31  32
ENDBRANCH  29  31
ENDBRANCH  22  29
ENDBRANCH  19  22
ENDBRANCH   2  20
TORSDOF 8
ENDMDL
MODEL 8
REMARK VINA RESULT:     -10.0      7.865     12.126
REMARK  Name = 448942
REMARK  8 active torsions:
REMARK  status: ('A' for Active; 'I' for Inactive)
REMARK    1  A    between atoms: C_2  and  C_20
REMARK    2  A    between atoms: C_3  and  C_6
REMARK    3  A    between atoms: C_7  and  C_13
REMARK    4  A    between atoms: N_19  and  C_22
REMARK    5  A    between atoms: C_22  and  C_23
REMARK    6  A    between atoms: C_22  and  C_29
REMARK    7  A    between atoms: C_29  and  C_31
REMARK    8  A    between atoms: C_31  and  O_32
REMARK                            x       y       z     vdW  Elec       q    Type
REMARK                         _______ _______ _______ _____ _____    ______ ____
ROOT
ATOM      1  S   UNL     1      33.462 -14.628 -20.602  0.00  0.00    -0.082 S 
ATOM      2  C   UNL     1      34.195 -14.449 -22.117  0.00  0.00    +0.083 C 
ATOM      3  C   UNL     1      33.235 -12.394 -21.851  0.00  0.00    +0.007 C 
ATOM      4  C   UNL     1      34.018 -13.239 -22.691  0.00  0.00    +0.012 C 
ATOM      5  C   UNL     1      32.866 -13.025 -20.684  0.00  0.00    +0.036 C 
ENDROOT
BRANCH   3   6
ATOM      6  C   UNL     1      32.835 -11.038 -22.115  0.00  0.00    +0.001 C 
ATOM      7  C   UNL     1      32.058  -8.410 -22.626  0.00  0.00    +0.000 C 
ATOM      8  C   UNL     1      33.405 -10.339 -23.177  0.00  0.00    +0.000 C 
ATOM      9  C   UNL     1      31.877 -10.426 -21.307  0.00  0.00    +0.000 C 
ATOM     10  C   UNL     1      33.017  -9.024 -23.433  0.00  0.00    +0.000 C 
ATOM     11  C   UNL     1      31.490  -9.111 -21.563  0.00  0.00    +0.000 C 
BRANCH   7  13
ATOM     12  N   UNL     1      30.885  -4.409 -23.402  0.00  0.00    -0.242 NA
ATOM     13  C   UNL     1      31.657  -7.046 -22.890  0.00  0.00    +0.003 C 
ATOM     14  C   UNL     1      31.597  -6.578 -24.198  0.00  0.00    +0.021 C 
ATOM     15  C   UNL     1      31.332  -6.197 -21.838  0.00  0.00    +0.021 C 
ATOM     16  C   UNL     1      31.209  -5.263 -24.399  0.00  0.00    +0.099 C 
ATOM     17  C   UNL     1      30.956  -4.899 -22.144  0.00  0.00    +0.099 C 
ENDBRANCH   7  13
ENDBRANCH   3   6
BRANCH   2  20
ATOM     18  O   UNL     1      35.920 -15.453 -23.394  0.00  0.00    -0.270 OA
ATOM     19  N   UNL     1      34.450 -16.849 -22.313  0.00  0.00    -0.298 N 
ATOM     20  C   UNL     1      34.940 -15.593 -22.659  0.00  0.00    +0.252 C 
ATOM     21  H   UNL     1      33.665 -16.909 -21.723  0.00  0.00    +0.150 HD
BRANCH  19  22
ATOM     22  C   UNL     1      35.059 -18.071 -22.795  0.00  0.00    +0.105 C 
BRANCH  22  23
ATOM     23  C   UNL     1      35.501 -18.929 -21.626  0.00  0.00    -0.004 C 
ATOM     24  C   UNL     1      36.789 -18.790 -21.140  0.00  0.00    -0.003 C 
ATOM     25  C   UNL     1      34.608 -19.829 -21.075  0.00  0.00    -0.003 C 
ATOM     26  C   UNL     1      37.197 -19.580 -20.065  0.00  0.00    -0.000 C 
ATOM     27  C   UNL     1      35.016 -20.619 -20.001  0.00  0.00    -0.000 C 
ATOM     28  C   UNL     1      36.311 -20.495 -19.496  0.00  0.00    -0.000 C 
ENDBRANCH  22  23
BRANCH  22  29
ATOM     29  C   UNL     1      34.106 -18.793 -23.764  0.00  0.00    +0.133 C 
BRANCH  29  31
ATOM     30  O   UNL     1      33.828 -16.774 -25.102  0.00  0.00    -0.250 OA
ATOM     31  C   UNL     1      33.404 -17.857 -24.724  0.00  0.00    +0.316 C 
BRANCH  31  32
ATOM     32  O   UNL     1      32.200 -18.355 -25.113  0.00  0.00    -0.480 OA
ATOM     33  H   UNL     1      31.826 -18.091 -25.930  0.00  0.00    +0.295 HD
ENDBRANCH  31  32
ENDBRANCH  29  31
ENDBRANCH  22  29
ENDBRANCH  19  22
ENDBRANCH   2  20
TORSDOF 8
ENDMDL
MODEL 9
REMARK VINA RESULT:      -9.8      6.331     12.916
REMARK  Name = 448942
REMARK  8 active torsions:
REMARK  status: ('A' for Active; 'I' for Inactive)
REMARK    1  A    between atoms: C_2  and  C_20
REMARK    2  A    between atoms: C_3  and  C_6
REMARK    3  A    between atoms: C_7  and  C_13
REMARK    4  A    between atoms: N_19  and  C_22
REMARK    5  A    between atoms: C_22  and  C_23
REMARK    6  A    between atoms: C_22  and  C_29
REMARK    7  A    between atoms: C_29  and  C_31
REMARK    8  A    between atoms: C_31  and  O_32
REMARK                            x       y       z     vdW  Elec       q    Type
REMARK                         _______ _______ _______ _____ _____    ______ ____
ROOT
ATOM      1  S   UNL     1      34.195 -17.981 -24.852  0.00  0.00    -0.082 S 
ATOM      2  C   UNL     1      34.175 -16.743 -23.697  0.00  0.00    +0.083 C 
ATOM      3  C   UNL     1      34.655 -18.552 -22.389  0.00  0.00    +0.007 C 
ATOM      4  C   UNL     1      34.428 -17.145 -22.433  0.00  0.00    +0.012 C 
ATOM      5  C   UNL     1      34.557 -19.130 -23.634  0.00  0.00    +0.036 C 
ENDROOT
BRANCH   3   6
ATOM      6  C   UNL     1      34.953 -19.346 -21.228  0.00  0.00    +0.001 C 
ATOM      7  C   UNL     1      35.533 -20.885 -18.976  0.00  0.00    +0.000 C 
ATOM      8  C   UNL     1      33.950 -20.101 -20.624  0.00  0.00    +0.000 C 
ATOM      9  C   UNL     1      36.247 -19.358 -20.707  0.00  0.00    +0.000 C 
ATOM     10  C   UNL     1      34.239 -20.871 -19.498  0.00  0.00    +0.000 C 
ATOM     11  C   UNL     1      36.536 -20.128 -19.581  0.00  0.00    +0.000 C 
BRANCH   7  13
ATOM     12  N   UNL     1      36.410 -23.220 -15.546  0.00  0.00    -0.242 NA
ATOM     13  C   UNL     1      35.833 -21.681 -17.807  0.00  0.00    +0.003 C 
ATOM     14  C   UNL     1      34.842 -22.462 -17.222  0.00  0.00    +0.021 C 
ATOM     15  C   UNL     1      37.112 -21.670 -17.262  0.00  0.00    +0.021 C 
ATOM     16  C   UNL     1      35.178 -23.206 -16.103  0.00  0.00    +0.099 C 
ATOM     17  C   UNL     1      37.347 -22.449 -16.142  0.00  0.00    +0.099 C 
ENDBRANCH   7  13
ENDBRANCH   3   6
BRANCH   2  20
ATOM     18  O   UNL     1      33.991 -15.051 -25.345  0.00  0.00    -0.270 OA
ATOM     19  N   UNL     1      33.537 -14.467 -23.170  0.00  0.00    -0.298 N 
ATOM     20  C   UNL     1      33.894 -15.378 -24.161  0.00  0.00    +0.252 C 
ATOM     21  H   UNL     1      33.473 -14.777 -22.238  0.00  0.00    +0.150 HD
BRANCH  19  22
ATOM     22  C   UNL     1      33.260 -13.078 -23.467  0.00  0.00    +0.105 C 
BRANCH  22  23
ATOM     23  C   UNL     1      32.668 -12.392 -22.251  0.00  0.00    -0.004 C 
ATOM     24  C   UNL     1      32.247 -11.080 -22.359  0.00  0.00    -0.003 C 
ATOM     25  C   UNL     1      32.565 -13.096 -21.066  0.00  0.00    -0.003 C 
ATOM     26  C   UNL     1      31.702 -10.449 -21.240  0.00  0.00    -0.000 C 
ATOM     27  C   UNL     1      32.021 -12.465 -19.947  0.00  0.00    -0.000 C 
ATOM     28  C   UNL     1      31.591 -11.141 -20.034  0.00  0.00    -0.000 C 
ENDBRANCH  22  23
BRANCH  22  29
ATOM     29  C   UNL     1      34.523 -12.388 -24.010  0.00  0.00    +0.133 C 
BRANCH  29  31
ATOM     30  O   UNL     1      34.768 -10.455 -25.478  0.00  0.00    -0.250 OA
ATOM     31  C   UNL     1      34.265 -11.545 -25.241  0.00  0.00    +0.316 C 
BRANCH  31  32
ATOM     32  O   UNL     1      33.366 -12.139 -26.070  0.00  0.00    -0.480 OA
ATOM     33  H   UNL     1      32.666 -12.649 -25.713  0.00  0.00    +0.295 HD
ENDBRANCH  31  32
ENDBRANCH  29  31
ENDBRANCH  22  29
ENDBRANCH  19  22
ENDBRANCH   2  20
TORSDOF 8
ENDMDL
