MODEL 1
REMARK VINA RESULT:     -11.5      0.000      0.000
REMARK  Name = 3351
REMARK  5 active torsions:
REMARK  status: ('A' for Active; 'I' for Inactive)
REMARK    1  A    between atoms: N_2  and  C_10
REMARK    2  A    between atoms: C_8  and  C_20
REMARK    3  A    between atoms: C_10  and  C_13
REMARK    4  A    between atoms: C_20  and  O_21
REMARK    5  A    between atoms: O_21  and  C_23
REMARK                            x       y       z     vdW  Elec       q    Type
REMARK                         _______ _______ _______ _____ _____    ______ ____
ROOT
ATOM      1  O   UNL     1      35.320 -16.870 -23.482  0.00  0.00    -0.271 OA
ATOM      2  N   UNL     1      32.936 -12.828 -21.781  0.00  0.00    +0.392 N 
ATOM      3  N   UNL     1      34.611 -15.127 -22.119  0.00  0.00    -0.281 N 
ATOM      4  C   UNL     1      33.008 -13.514 -23.079  0.00  0.00    -0.055 C 
ATOM      5  C   UNL     1      33.112 -13.788 -20.681  0.00  0.00    -0.055 C 
ATOM      6  C   UNL     1      34.350 -14.226 -23.241  0.00  0.00    +0.071 C 
ATOM      7  C   UNL     1      34.455 -14.514 -20.798  0.00  0.00    +0.071 C 
ATOM      8  C   UNL     1      35.090 -16.414 -22.359  0.00  0.00    +0.270 C 
ATOM      9  H   UNL     1      33.692 -12.143 -21.735  0.00  0.00    -0.079 HD
ENDROOT
BRANCH   2  10
ATOM     10  C   UNL     1      31.665 -12.119 -21.643  0.00  0.00    -0.050 C 
BRANCH  10  13
ATOM     11  O   UNL     1      32.367  -7.233 -21.501  0.00  0.00    -0.435 OA
ATOM     12  O   UNL     1      32.292  -7.176 -19.093  0.00  0.00    -0.435 OA
ATOM     13  C   UNL     1      31.830 -10.806 -20.924  0.00  0.00    -0.040 C 
ATOM     14  C   UNL     1      32.023  -9.644 -21.664  0.00  0.00    +0.034 C 
ATOM     15  C   UNL     1      31.785 -10.785 -19.525  0.00  0.00    -0.003 C 
ATOM     16  C   UNL     1      32.169  -8.466 -20.960  0.00  0.00    +0.176 C 
ATOM     17  C   UNL     1      32.126  -8.434 -19.586  0.00  0.00    +0.176 C 
ATOM     18  C   UNL     1      31.935  -9.577 -18.838  0.00  0.00    +0.040 C 
ATOM     19  C   UNL     1      32.444  -6.421 -20.312  0.00  0.00    +0.429 C 
ENDBRANCH  10  13
ENDBRANCH   2  10
BRANCH   8  20
ATOM     20  C   UNL     1      35.328 -17.282 -21.149  0.00  0.00    +0.290 C 
BRANCH  20  21
ATOM     21  O   UNL     1      35.362 -18.611 -21.606  0.00  0.00    -0.466 OA
BRANCH  21  23
ATOM     22 CL   UNL     1      33.525 -22.791 -17.914  0.00  0.00    -0.082 Cl
ATOM     23  C   UNL     1      34.932 -19.590 -20.739  0.00  0.00    +0.139 C 
ATOM     24  C   UNL     1      35.864 -20.310 -20.007  0.00  0.00    +0.038 C 
ATOM     25  C   UNL     1      33.573 -19.840 -20.614  0.00  0.00    +0.038 C 
ATOM     26  C   UNL     1      35.427 -21.303 -19.130  0.00  0.00    +0.015 C 
ATOM     27  C   UNL     1      33.137 -20.834 -19.737  0.00  0.00    +0.015 C 
ATOM     28  C   UNL     1      34.063 -21.565 -18.995  0.00  0.00    +0.058 C 
ENDBRANCH  21  23
ENDBRANCH  20  21
ENDBRANCH   8  20
TORSDOF 5
ENDMDL
MODEL 2
REMARK VINA RESULT:     -11.0      4.346     10.367
REMARK  Name = 3351
REMARK  5 active torsions:
REMARK  status: ('A' for Active; 'I' for Inactive)
REMARK    1  A    between atoms: N_2  and  C_10
REMARK    2  A    between atoms: C_8  and  C_20
REMARK    3  A    between atoms: C_10  and  C_13
REMARK    4  A    between atoms: C_20  and  O_21
REMARK    5  A    between atoms: O_21  and  C_23
REMARK                            x       y       z     vdW  Elec       q    Type
REMARK                         _______ _______ _______ _____ _____    ______ ____
ROOT
ATOM      1  O   UNL     1      33.405 -13.158 -25.327  0.00  0.00    -0.271 OA
ATOM      2  N   UNL     1      34.917 -17.138 -22.722  0.00  0.00    +0.392 N 
ATOM      3  N   UNL     1      33.868 -14.613 -23.576  0.00  0.00    -0.281 N 
ATOM      4  C   UNL     1      34.794 -16.828 -24.154  0.00  0.00    -0.055 C 
ATOM      5  C   UNL     1      35.199 -15.918 -21.953  0.00  0.00    -0.055 C 
ATOM      6  C   UNL     1      33.678 -15.811 -24.393  0.00  0.00    +0.071 C 
ATOM      7  C   UNL     1      34.094 -14.877 -22.153  0.00  0.00    +0.071 C 
ATOM      8  C   UNL     1      33.707 -13.351 -24.146  0.00  0.00    +0.270 C 
ATOM      9  H   UNL     1      34.030 -17.526 -22.399  0.00  0.00    -0.079 HD
ENDROOT
BRANCH   2  10
ATOM     10  C   UNL     1      35.962 -18.137 -22.501  0.00  0.00    -0.050 C 
BRANCH  10  13
ATOM     11  O   UNL     1      32.714 -20.783 -19.888  0.00  0.00    -0.435 OA
ATOM     12  O   UNL     1      34.436 -21.736 -18.496  0.00  0.00    -0.435 OA
ATOM     13  C   UNL     1      35.588 -19.109 -21.414  0.00  0.00    -0.040 C 
ATOM     14  C   UNL     1      34.250 -19.442 -21.231  0.00  0.00    +0.034 C 
ATOM     15  C   UNL     1      36.595 -19.656 -20.611  0.00  0.00    -0.003 C 
ATOM     16  C   UNL     1      33.955 -20.337 -20.222  0.00  0.00    +0.176 C 
ATOM     17  C   UNL     1      34.938 -20.881 -19.427  0.00  0.00    +0.176 C 
ATOM     18  C   UNL     1      36.270 -20.560 -19.597  0.00  0.00    +0.040 C 
ATOM     19  C   UNL     1      33.025 -21.669 -18.794  0.00  0.00    +0.429 C 
ENDBRANCH  10  13
ENDBRANCH   2  10
BRANCH   8  20
ATOM     20  C   UNL     1      33.926 -12.168 -23.238  0.00  0.00    +0.290 C 
BRANCH  20  21
ATOM     21  O   UNL     1      34.265 -11.082 -24.065  0.00  0.00    -0.466 OA
BRANCH  21  23
ATOM     22 CL   UNL     1      33.000  -5.691 -22.112  0.00  0.00    -0.082 Cl
ATOM     23  C   UNL     1      33.969  -9.819 -23.606  0.00  0.00    +0.139 C 
ATOM     24  C   UNL     1      32.710  -9.561 -23.086  0.00  0.00    +0.038 C 
ATOM     25  C   UNL     1      34.935  -8.826 -23.672  0.00  0.00    +0.038 C 
ATOM     26  C   UNL     1      32.408  -8.280 -22.622  0.00  0.00    +0.015 C 
ATOM     27  C   UNL     1      34.633  -7.545 -23.208  0.00  0.00    +0.015 C 
ATOM     28  C   UNL     1      33.371  -7.272 -22.683  0.00  0.00    +0.058 C 
ENDBRANCH  21  23
ENDBRANCH  20  21
ENDBRANCH   8  20
TORSDOF 5
ENDMDL
MODEL 3
REMARK VINA RESULT:     -10.8      5.491      8.267
REMARK  Name = 3351
REMARK  5 active torsions:
REMARK  status: ('A' for Active; 'I' for Inactive)
REMARK    1  A    between atoms: N_2  and  C_10
REMARK    2  A    between atoms: C_8  and  C_20
REMARK    3  A    between atoms: C_10  and  C_13
REMARK    4  A    between atoms: C_20  and  O_21
REMARK    5  A    between atoms: O_21  and  C_23
REMARK                            x       y       z     vdW  Elec       q    Type
REMARK                         _______ _______ _______ _____ _____    ______ ____
ROOT
ATOM      1  O   UNL     1      31.545 -22.232 -17.270  0.00  0.00    -0.271 OA
ATOM      2  N   UNL     1      34.999 -20.491 -20.424  0.00  0.00    +0.392 N 
ATOM      3  N   UNL     1      33.413 -22.077 -18.642  0.00  0.00    -0.281 N 
ATOM      4  C   UNL     1      33.719 -19.982 -19.912  0.00  0.00    -0.055 C 
ATOM      5  C   UNL     1      35.643 -21.359 -19.428  0.00  0.00    -0.055 C 
ATOM      6  C   UNL     1      32.779 -21.135 -19.564  0.00  0.00    +0.071 C 
ATOM      7  C   UNL     1      34.739 -22.538 -19.062  0.00  0.00    +0.071 C 
ATOM      8  C   UNL     1      32.705 -22.553 -17.540  0.00  0.00    +0.270 C 
ATOM      9  H   UNL     1      34.815 -21.044 -21.262  0.00  0.00    -0.079 HD
ENDROOT
BRANCH   2  10
ATOM     10  C   UNL     1      35.884 -19.386 -20.790  0.00  0.00    -0.050 C 
BRANCH  10  13
ATOM     11  O   UNL     1      34.859 -15.184 -23.171  0.00  0.00    -0.435 OA
ATOM     12  O   UNL     1      33.926 -16.348 -25.064  0.00  0.00    -0.435 OA
ATOM     13  C   UNL     1      35.348 -18.601 -21.957  0.00  0.00    -0.040 C 
ATOM     14  C   UNL     1      35.401 -17.211 -21.924  0.00  0.00    +0.034 C 
ATOM     15  C   UNL     1      34.808 -19.287 -23.051  0.00  0.00    -0.003 C 
ATOM     16  C   UNL     1      34.898 -16.535 -23.017  0.00  0.00    +0.176 C 
ATOM     17  C   UNL     1      34.366 -17.200 -24.097  0.00  0.00    +0.176 C 
ATOM     18  C   UNL     1      34.306 -18.578 -24.145  0.00  0.00    +0.040 C 
ATOM     19  C   UNL     1      34.243 -15.072 -24.470  0.00  0.00    +0.429 C 
ENDBRANCH  10  13
ENDBRANCH   2  10
BRANCH   8  20
ATOM     20  C   UNL     1      33.433 -23.516 -16.636  0.00  0.00    +0.290 C 
BRANCH  20  21
ATOM     21  O   UNL     1      34.206 -22.739 -15.757  0.00  0.00    -0.466 OA
BRANCH  21  23
ATOM     22 CL   UNL     1      39.219 -25.082 -13.791  0.00  0.00    -0.082 Cl
ATOM     23  C   UNL     1      35.382 -23.287 -15.295  0.00  0.00    +0.139 C 
ATOM     24  C   UNL     1      36.579 -22.625 -15.523  0.00  0.00    +0.038 C 
ATOM     25  C   UNL     1      35.348 -24.492 -14.609  0.00  0.00    +0.038 C 
ATOM     26  C   UNL     1      37.770 -23.182 -15.057  0.00  0.00    +0.015 C 
ATOM     27  C   UNL     1      36.539 -25.049 -14.143  0.00  0.00    +0.015 C 
ATOM     28  C   UNL     1      37.749 -24.395 -14.366  0.00  0.00    +0.058 C 
ENDBRANCH  21  23
ENDBRANCH  20  21
ENDBRANCH   8  20
TORSDOF 5
ENDMDL
MODEL 4
REMARK VINA RESULT:     -10.5      4.231      6.218
REMARK  Name = 3351
REMARK  5 active torsions:
REMARK  status: ('A' for Active; 'I' for Inactive)
REMARK    1  A    between atoms: N_2  and  C_10
REMARK    2  A    between atoms: C_8  and  C_20
REMARK    3  A    between atoms: C_10  and  C_13
REMARK    4  A    between atoms: C_20  and  O_21
REMARK    5  A    between atoms: O_21  and  C_23
REMARK                            x       y       z     vdW  Elec       q    Type
REMARK                         _______ _______ _______ _____ _____    ______ ____
ROOT
ATOM      1  O   UNL     1      36.867 -21.662 -18.731  0.00  0.00    -0.271 OA
ATOM      2  N   UNL     1      35.113 -18.307 -21.984  0.00  0.00    +0.392 N 
ATOM      3  N   UNL     1      35.445 -20.244 -19.900  0.00  0.00    -0.281 N 
ATOM      4  C   UNL     1      36.452 -18.802 -21.632  0.00  0.00    -0.055 C 
ATOM      5  C   UNL     1      34.106 -19.358 -21.778  0.00  0.00    -0.055 C 
ATOM      6  C   UNL     1      36.494 -19.262 -20.176  0.00  0.00    +0.071 C 
ATOM      7  C   UNL     1      34.104 -19.836 -20.324  0.00  0.00    +0.071 C 
ATOM      8  C   UNL     1      35.747 -21.396 -19.174  0.00  0.00    +0.270 C 
ATOM      9  H   UNL     1      34.888 -17.521 -21.373  0.00  0.00    -0.079 HD
ENDROOT
BRANCH   2  10
ATOM     10  C   UNL     1      35.086 -17.835 -23.367  0.00  0.00    -0.050 C 
BRANCH  10  13
ATOM     11  O   UNL     1      33.496 -13.846 -25.804  0.00  0.00    -0.435 OA
ATOM     12  O   UNL     1      33.629 -12.452 -23.842  0.00  0.00    -0.435 OA
ATOM     13  C   UNL     1      34.702 -16.383 -23.458  0.00  0.00    -0.040 C 
ATOM     14  C   UNL     1      34.274 -15.867 -24.678  0.00  0.00    +0.034 C 
ATOM     15  C   UNL     1      34.783 -15.582 -22.313  0.00  0.00    -0.003 C 
ATOM     16  C   UNL     1      33.933 -14.530 -24.712  0.00  0.00    +0.176 C 
ATOM     17  C   UNL     1      34.009 -13.735 -23.592  0.00  0.00    +0.176 C 
ATOM     18  C   UNL     1      34.431 -14.231 -22.375  0.00  0.00    +0.040 C 
ATOM     19  C   UNL     1      33.305 -12.530 -25.246  0.00  0.00    +0.429 C 
ENDBRANCH  10  13
ENDBRANCH   2  10
BRANCH   8  20
ATOM     20  C   UNL     1      34.612 -22.360 -18.937  0.00  0.00    +0.290 C 
BRANCH  20  21
ATOM     21  O   UNL     1      34.806 -22.902 -17.654  0.00  0.00    -0.466 OA
BRANCH  21  23
ATOM     22 CL   UNL     1      30.167 -23.041 -14.057  0.00  0.00    -0.082 Cl
ATOM     23  C   UNL     1      33.719 -22.933 -16.810  0.00  0.00    +0.139 C 
ATOM     24  C   UNL     1      33.903 -23.245 -15.472  0.00  0.00    +0.038 C 
ATOM     25  C   UNL     1      32.457 -22.652 -17.314  0.00  0.00    +0.038 C 
ATOM     26  C   UNL     1      32.802 -23.279 -14.617  0.00  0.00    +0.015 C 
ATOM     27  C   UNL     1      31.355 -22.686 -16.459  0.00  0.00    +0.015 C 
ATOM     28  C   UNL     1      31.526 -22.999 -15.111  0.00  0.00    +0.058 C 
ENDBRANCH  21  23
ENDBRANCH  20  21
ENDBRANCH   8  20
TORSDOF 5
ENDMDL
MODEL 5
REMARK VINA RESULT:     -10.4      7.740     11.497
REMARK  Name = 3351
REMARK  5 active torsions:
REMARK  status: ('A' for Active; 'I' for Inactive)
REMARK    1  A    between atoms: N_2  and  C_10
REMARK    2  A    between atoms: C_8  and  C_20
REMARK    3  A    between atoms: C_10  and  C_13
REMARK    4  A    between atoms: C_20  and  O_21
REMARK    5  A    between atoms: O_21  and  C_23
REMARK                            x       y       z     vdW  Elec       q    Type
REMARK                         _______ _______ _______ _____ _____    ______ ____
ROOT
ATOM      1  O   UNL     1      37.383 -21.327 -16.906  0.00  0.00    -0.271 OA
ATOM      2  N   UNL     1      33.537 -23.587 -14.667  0.00  0.00    +0.392 N 
ATOM      3  N   UNL     1      35.494 -22.624 -16.524  0.00  0.00    -0.281 N 
ATOM      4  C   UNL     1      34.678 -22.786 -14.199  0.00  0.00    -0.055 C 
ATOM      5  C   UNL     1      33.138 -23.174 -16.020  0.00  0.00    -0.055 C 
ATOM      6  C   UNL     1      35.869 -22.937 -15.145  0.00  0.00    +0.071 C 
ATOM      7  C   UNL     1      34.300 -23.325 -17.004  0.00  0.00    +0.071 C 
ATOM      8  C   UNL     1      36.322 -21.815 -17.301  0.00  0.00    +0.270 C 
ATOM      9  H   UNL     1      33.822 -24.567 -14.700  0.00  0.00    -0.079 HD
ENDROOT
BRANCH   2  10
ATOM     10  C   UNL     1      32.412 -23.468 -13.741  0.00  0.00    -0.050 C 
BRANCH  10  13
ATOM     11  O   UNL     1      28.605 -22.010 -16.528  0.00  0.00    -0.435 OA
ATOM     12  O   UNL     1      27.508 -24.149 -16.352  0.00  0.00    -0.435 OA
ATOM     13  C   UNL     1      31.092 -23.687 -14.431  0.00  0.00    -0.040 C 
ATOM     14  C   UNL     1      30.525 -22.647 -15.161  0.00  0.00    +0.034 C 
ATOM     15  C   UNL     1      30.463 -24.933 -14.322  0.00  0.00    -0.003 C 
ATOM     16  C   UNL     1      29.314 -22.895 -15.776  0.00  0.00    +0.176 C 
ATOM     17  C   UNL     1      28.688 -24.116 -15.675  0.00  0.00    +0.176 C 
ATOM     18  C   UNL     1      29.237 -25.157 -14.954  0.00  0.00    +0.040 C 
ATOM     19  C   UNL     1      27.462 -22.811 -16.890  0.00  0.00    +0.429 C 
ENDBRANCH  10  13
ENDBRANCH   2  10
BRANCH   8  20
ATOM     20  C   UNL     1      35.861 -21.536 -18.710  0.00  0.00    +0.290 C 
BRANCH  20  21
ATOM     21  O   UNL     1      36.475 -20.333 -19.103  0.00  0.00    -0.466 OA
BRANCH  21  23
ATOM     22 CL   UNL     1      34.519 -17.788 -24.020  0.00  0.00    -0.082 Cl
ATOM     23  C   UNL     1      36.015 -19.735 -20.255  0.00  0.00    +0.139 C 
ATOM     24  C   UNL     1      34.727 -20.000 -20.693  0.00  0.00    +0.038 C 
ATOM     25  C   UNL     1      36.850 -18.879 -20.958  0.00  0.00    +0.038 C 
ATOM     26  C   UNL     1      34.262 -19.396 -21.861  0.00  0.00    +0.015 C 
ATOM     27  C   UNL     1      36.385 -18.275 -22.126  0.00  0.00    +0.015 C 
ATOM     28  C   UNL     1      35.092 -18.533 -22.578  0.00  0.00    +0.058 C 
ENDBRANCH  21  23
ENDBRANCH  20  21
ENDBRANCH   8  20
TORSDOF 5
ENDMDL
MODEL 6
REMARK VINA RESULT:     -10.3      3.692      5.709
REMARK  Name = 3351
REMARK  5 active torsions:
REMARK  status: ('A' for Active; 'I' for Inactive)
REMARK    1  A    between atoms: N_2  and  C_10
REMARK    2  A    between atoms: C_8  and  C_20
REMARK    3  A    between atoms: C_10  and  C_13
REMARK    4  A    between atoms: C_20  and  O_21
REMARK    5  A    between atoms: O_21  and  C_23
REMARK                            x       y       z     vdW  Elec       q    Type
REMARK                         _______ _______ _______ _____ _____    ______ ____
ROOT
ATOM      1  O   UNL     1      32.409 -13.001 -21.734  0.00  0.00    -0.271 OA
ATOM      2  N   UNL     1      33.364  -8.216 -22.787  0.00  0.00    +0.392 N 
ATOM      3  N   UNL     1      33.035 -11.061 -22.849  0.00  0.00    -0.281 N 
ATOM      4  C   UNL     1      32.745  -8.920 -21.654  0.00  0.00    -0.055 C 
ATOM      5  C   UNL     1      34.373  -9.067 -23.432  0.00  0.00    -0.055 C 
ATOM      6  C   UNL     1      32.088 -10.219 -22.118  0.00  0.00    +0.071 C 
ATOM      7  C   UNL     1      33.752 -10.375 -23.927  0.00  0.00    +0.071 C 
ATOM      8  C   UNL     1      33.106 -12.426 -22.574  0.00  0.00    +0.270 C 
ATOM      9  H   UNL     1      32.637  -8.003 -23.471  0.00  0.00    -0.079 HD
ENDROOT
BRANCH   2  10
ATOM     10  C   UNL     1      33.961  -6.957 -22.345  0.00  0.00    -0.050 C 
BRANCH  10  13
ATOM     11  O   UNL     1      30.968  -3.270 -23.697  0.00  0.00    -0.435 OA
ATOM     12  O   UNL     1      32.370  -2.661 -25.560  0.00  0.00    -0.435 OA
ATOM     13  C   UNL     1      33.564  -5.806 -23.231  0.00  0.00    -0.040 C 
ATOM     14  C   UNL     1      32.390  -5.111 -22.958  0.00  0.00    +0.034 C 
ATOM     15  C   UNL     1      34.385  -5.461 -24.311  0.00  0.00    -0.003 C 
ATOM     16  C   UNL     1      32.068  -4.064 -23.798  0.00  0.00    +0.176 C 
ATOM     17  C   UNL     1      32.869  -3.717 -24.862  0.00  0.00    +0.176 C 
ATOM     18  C   UNL     1      34.035  -4.396 -25.145  0.00  0.00    +0.040 C 
ATOM     19  C   UNL     1      31.165  -2.383 -24.817  0.00  0.00    +0.429 C 
ENDBRANCH  10  13
ENDBRANCH   2  10
BRANCH   8  20
ATOM     20  C   UNL     1      34.112 -13.222 -23.367  0.00  0.00    +0.290 C 
BRANCH  20  21
ATOM     21  O   UNL     1      34.709 -14.124 -22.469  0.00  0.00    -0.466 OA
BRANCH  21  23
ATOM     22 CL   UNL     1      34.775 -19.797 -23.985  0.00  0.00    -0.082 Cl
ATOM     23  C   UNL     1      34.726 -15.454 -22.826  0.00  0.00    +0.139 C 
ATOM     24  C   UNL     1      34.191 -15.839 -24.045  0.00  0.00    +0.038 C 
ATOM     25  C   UNL     1      35.276 -16.386 -21.957  0.00  0.00    +0.038 C 
ATOM     26  C   UNL     1      34.206 -17.187 -24.406  0.00  0.00    +0.015 C 
ATOM     27  C   UNL     1      35.291 -17.733 -22.318  0.00  0.00    +0.015 C 
ATOM     28  C   UNL     1      34.757 -18.134 -23.541  0.00  0.00    +0.058 C 
ENDBRANCH  21  23
ENDBRANCH  20  21
ENDBRANCH   8  20
TORSDOF 5
ENDMDL
MODEL 7
REMARK VINA RESULT:     -10.2      3.954     10.180
REMARK  Name = 3351
REMARK  5 active torsions:
REMARK  status: ('A' for Active; 'I' for Inactive)
REMARK    1  A    between atoms: N_2  and  C_10
REMARK    2  A    between atoms: C_8  and  C_20
REMARK    3  A    between atoms: C_10  and  C_13
REMARK    4  A    between atoms: C_20  and  O_21
REMARK    5  A    between atoms: O_21  and  C_23
REMARK                            x       y       z     vdW  Elec       q    Type
REMARK                         _______ _______ _______ _____ _____    ______ ____
ROOT
ATOM      1  O   UNL     1      32.406 -12.785 -20.049  0.00  0.00    -0.271 OA
ATOM      2  N   UNL     1      35.185 -15.952 -22.725  0.00  0.00    +0.392 N 
ATOM      3  N   UNL     1      33.684 -13.715 -21.752  0.00  0.00    -0.281 N 
ATOM      4  C   UNL     1      34.652 -15.951 -21.355  0.00  0.00    -0.055 C 
ATOM      5  C   UNL     1      34.293 -15.207 -23.625  0.00  0.00    -0.055 C 
ATOM      6  C   UNL     1      34.491 -14.522 -20.838  0.00  0.00    +0.071 C 
ATOM      7  C   UNL     1      34.118 -13.763 -23.151  0.00  0.00    +0.071 C 
ATOM      8  C   UNL     1      32.678 -12.891 -21.248  0.00  0.00    +0.270 C 
ATOM      9  H   UNL     1      36.095 -15.490 -22.718  0.00  0.00    -0.079 HD
ENDROOT
BRANCH   2  10
ATOM     10  C   UNL     1      35.370 -17.321 -23.204  0.00  0.00    -0.050 C 
BRANCH  10  13
ATOM     11  O   UNL     1      33.959 -20.824 -20.022  0.00  0.00    -0.435 OA
ATOM     12  O   UNL     1      36.140 -20.939 -19.003  0.00  0.00    -0.435 OA
ATOM     13  C   UNL     1      35.613 -18.283 -22.072  0.00  0.00    -0.040 C 
ATOM     14  C   UNL     1      34.571 -19.093 -21.631  0.00  0.00    +0.034 C 
ATOM     15  C   UNL     1      36.884 -18.342 -21.487  0.00  0.00    -0.003 C 
ATOM     16  C   UNL     1      34.842 -19.958 -20.591  0.00  0.00    +0.176 C 
ATOM     17  C   UNL     1      36.087 -20.024 -20.009  0.00  0.00    +0.176 C 
ATOM     18  C   UNL     1      37.130 -19.228 -20.434  0.00  0.00    +0.040 C 
ATOM     19  C   UNL     1      34.788 -21.442 -19.018  0.00  0.00    +0.429 C 
ENDBRANCH  10  13
ENDBRANCH   2  10
BRANCH   8  20
ATOM     20  C   UNL     1      31.888 -12.096 -22.256  0.00  0.00    +0.290 C 
BRANCH  20  21
ATOM     21  O   UNL     1      31.629 -10.845 -21.669  0.00  0.00    -0.466 OA
BRANCH  21  23
ATOM     22 CL   UNL     1      34.807  -6.274 -23.536  0.00  0.00    -0.082 Cl
ATOM     23  C   UNL     1      32.373  -9.773 -22.108  0.00  0.00    +0.139 C 
ATOM     24  C   UNL     1      33.254  -9.943 -23.165  0.00  0.00    +0.038 C 
ATOM     25  C   UNL     1      32.229  -8.543 -21.484  0.00  0.00    +0.038 C 
ATOM     26  C   UNL     1      34.010  -8.857 -23.608  0.00  0.00    +0.015 C 
ATOM     27  C   UNL     1      32.984  -7.457 -21.928  0.00  0.00    +0.015 C 
ATOM     28  C   UNL     1      33.874  -7.613 -22.989  0.00  0.00    +0.058 C 
ENDBRANCH  21  23
ENDBRANCH  20  21
ENDBRANCH   8  20
TORSDOF 5
ENDMDL
MODEL 8
REMARK VINA RESULT:     -10.1      8.456     14.046
REMARK  Name = 3351
REMARK  5 active torsions:
REMARK  status: ('A' for Active; 'I' for Inactive)
REMARK    1  A    between atoms: N_2  and  C_10
REMARK    2  A    between atoms: C_8  and  C_20
REMARK    3  A    between atoms: C_10  and  C_13
REMARK    4  A    between atoms: C_20  and  O_21
REMARK    5  A    between atoms: O_21  and  C_23
REMARK                            x       y       z     vdW  Elec       q    Type
REMARK                         _______ _______ _______ _____ _____    ______ ____
ROOT
ATOM      1  O   UNL     1      31.474 -23.125 -16.022  0.00  0.00    -0.271 OA
ATOM      2  N   UNL     1      35.422 -24.134 -13.140  0.00  0.00    +0.392 N 
ATOM      3  N   UNL     1      33.651 -23.290 -15.227  0.00  0.00    -0.281 N 
ATOM      4  C   UNL     1      33.966 -24.228 -12.965  0.00  0.00    -0.055 C 
ATOM      5  C   UNL     1      35.785 -24.337 -14.550  0.00  0.00    -0.055 C 
ATOM      6  C   UNL     1      33.250 -23.187 -13.824  0.00  0.00    +0.071 C 
ATOM      7  C   UNL     1      35.100 -23.302 -15.446  0.00  0.00    +0.071 C 
ATOM      8  C   UNL     1      32.684 -23.248 -16.231  0.00  0.00    +0.270 C 
ATOM      9  H   UNL     1      35.722 -23.200 -12.861  0.00  0.00    -0.079 HD
ENDROOT
BRANCH   2  10
ATOM     10  C   UNL     1      36.106 -25.108 -12.290  0.00  0.00    -0.050 C 
BRANCH  10  13
ATOM     11  O   UNL     1      39.103 -28.041 -14.898  0.00  0.00    -0.435 OA
ATOM     12  O   UNL     1      41.033 -26.675 -14.433  0.00  0.00    -0.435 OA
ATOM     13  C   UNL     1      37.447 -25.499 -12.851  0.00  0.00    -0.040 C 
ATOM     14  C   UNL     1      37.550 -26.647 -13.631  0.00  0.00    +0.034 C 
ATOM     15  C   UNL     1      38.562 -24.699 -12.575  0.00  0.00    -0.003 C 
ATOM     16  C   UNL     1      38.800 -26.965 -14.122  0.00  0.00    +0.176 C 
ATOM     17  C   UNL     1      39.902 -26.185 -13.857  0.00  0.00    +0.176 C 
ATOM     18  C   UNL     1      39.816 -25.044 -13.085  0.00  0.00    +0.040 C 
ATOM     19  C   UNL     1      40.519 -27.851 -15.092  0.00  0.00    +0.429 C 
ENDBRANCH  10  13
ENDBRANCH   2  10
BRANCH   8  20
ATOM     20  C   UNL     1      33.179 -23.367 -17.650  0.00  0.00    +0.290 C 
BRANCH  20  21
ATOM     21  O   UNL     1      32.676 -22.254 -18.346  0.00  0.00    -0.466 OA
BRANCH  21  23
ATOM     22 CL   UNL     1      36.531 -18.960 -21.308  0.00  0.00    -0.082 Cl
ATOM     23  C   UNL     1      33.580 -21.480 -19.040  0.00  0.00    +0.139 C 
ATOM     24  C   UNL     1      33.116 -20.530 -19.937  0.00  0.00    +0.038 C 
ATOM     25  C   UNL     1      34.938 -21.665 -18.830  0.00  0.00    +0.038 C 
ATOM     26  C   UNL     1      34.032 -19.747 -20.641  0.00  0.00    +0.015 C 
ATOM     27  C   UNL     1      35.854 -20.883 -19.534  0.00  0.00    +0.015 C 
ATOM     28  C   UNL     1      35.401 -19.924 -20.439  0.00  0.00    +0.058 C 
ENDBRANCH  21  23
ENDBRANCH  20  21
ENDBRANCH   8  20
TORSDOF 5
ENDMDL
MODEL 9
REMARK VINA RESULT:     -10.1      3.462      5.484
REMARK  Name = 3351
REMARK  5 active torsions:
REMARK  status: ('A' for Active; 'I' for Inactive)
REMARK    1  A    between atoms: N_2  and  C_10
REMARK    2  A    between atoms: C_8  and  C_20
REMARK    3  A    between atoms: C_10  and  C_13
REMARK    4  A    between atoms: C_20  and  O_21
REMARK    5  A    between atoms: O_21  and  C_23
REMARK                            x       y       z     vdW  Elec       q    Type
REMARK                         _______ _______ _______ _____ _____    ______ ____
ROOT
ATOM      1  O   UNL     1      32.338 -12.949 -21.809  0.00  0.00    -0.271 OA
ATOM      2  N   UNL     1      33.258  -8.121 -22.682  0.00  0.00    +0.392 N 
ATOM      3  N   UNL     1      32.939 -10.963 -22.855  0.00  0.00    -0.281 N 
ATOM      4  C   UNL     1      32.662  -8.873 -21.569  0.00  0.00    -0.055 C 
ATOM      5  C   UNL     1      34.259  -8.942 -23.380  0.00  0.00    -0.055 C 
ATOM      6  C   UNL     1      32.002 -10.156 -22.074  0.00  0.00    +0.071 C 
ATOM      7  C   UNL     1      33.634 -10.231 -23.917  0.00  0.00    +0.071 C 
ATOM      8  C   UNL     1      33.019 -12.338 -22.637  0.00  0.00    +0.270 C 
ATOM      9  H   UNL     1      32.519  -7.884 -23.344  0.00  0.00    -0.079 HD
ENDROOT
BRANCH   2  10
ATOM     10  C   UNL     1      33.859  -6.879 -22.200  0.00  0.00    -0.050 C 
BRANCH  10  13
ATOM     11  O   UNL     1      32.538  -3.178 -25.190  0.00  0.00    -0.435 OA
ATOM     12  O   UNL     1      30.843  -2.398 -23.665  0.00  0.00    -0.435 OA
ATOM     13  C   UNL     1      33.028  -5.676 -22.562  0.00  0.00    -0.040 C 
ATOM     14  C   UNL     1      33.254  -5.034 -23.775  0.00  0.00    +0.034 C 
ATOM     15  C   UNL     1      32.047  -5.231 -21.668  0.00  0.00    -0.003 C 
ATOM     16  C   UNL     1      32.468  -3.936 -24.062  0.00  0.00    +0.176 C 
ATOM     17  C   UNL     1      31.501  -3.491 -23.191  0.00  0.00    +0.176 C 
ATOM     18  C   UNL     1      31.265  -4.117 -21.985  0.00  0.00    +0.040 C 
ATOM     19  C   UNL     1      31.505  -2.205 -24.932  0.00  0.00    +0.429 C 
ENDBRANCH  10  13
ENDBRANCH   2  10
BRANCH   8  20
ATOM     20  C   UNL     1      34.013 -13.097 -23.479  0.00  0.00    +0.290 C 
BRANCH  20  21
ATOM     21  O   UNL     1      34.726 -13.934 -22.603  0.00  0.00    -0.466 OA
BRANCH  21  23
ATOM     22 CL   UNL     1      34.774 -19.682 -23.806  0.00  0.00    -0.082 Cl
ATOM     23  C   UNL     1      34.736 -15.282 -22.884  0.00  0.00    +0.139 C 
ATOM     24  C   UNL     1      35.193 -16.175 -21.926  0.00  0.00    +0.038 C 
ATOM     25  C   UNL     1      34.290 -15.723 -24.121  0.00  0.00    +0.038 C 
ATOM     26  C   UNL     1      35.205 -17.540 -22.212  0.00  0.00    +0.015 C 
ATOM     27  C   UNL     1      34.302 -17.089 -24.407  0.00  0.00    +0.015 C 
ATOM     28  C   UNL     1      34.759 -17.997 -23.453  0.00  0.00    +0.058 C 
ENDBRANCH  21  23
ENDBRANCH  20  21
ENDBRANCH   8  20
TORSDOF 5
ENDMDL
