MODEL 1
REMARK VINA RESULT:     -12.3      0.000      0.000
REMARK  Name = 22479942
REMARK  4 active torsions:
REMARK  status: ('A' for Active; 'I' for Inactive)
REMARK    1  A    between atoms: C_4  and  C_17
REMARK    2  A    between atoms: C_7  and  C_14
REMARK    3  A    between atoms: C_20  and  N_24
REMARK    4  A    between atoms: C_25  and  C_28
REMARK                            x       y       z     vdW  Elec       q    Type
REMARK                         _______ _______ _______ _____ _____    ______ ____
ROOT
ATOM      1  N   UNL     1      31.074 -22.923 -16.826  0.00  0.00    -0.276 N 
ATOM      2  N   UNL     1      31.857 -22.352 -17.757  0.00  0.00    -0.173 NA
ATOM      3  C   UNL     1      33.085 -23.064 -15.963  0.00  0.00    +0.036 A 
ATOM      4  C   UNL     1      33.079 -22.440 -17.228  0.00  0.00    +0.102 A 
ATOM      5  C   UNL     1      31.751 -23.371 -15.723  0.00  0.00    +0.075 A 
ATOM      6  C   UNL     1      34.052 -23.401 -15.001  0.00  0.00    +0.006 C 
ATOM      7  C   UNL     1      33.633 -24.041 -13.827  0.00  0.00    +0.033 C 
ATOM      8  C   UNL     1      31.311 -24.007 -14.560  0.00  0.00    +0.019 C 
ATOM      9  C   UNL     1      32.285 -24.337 -13.612  0.00  0.00    +0.004 C 
ATOM     10  H   UNL     1      30.099 -23.011 -16.928  0.00  0.00    +0.189 HD
ENDROOT
BRANCH   7  14
ATOM     11  N   UNL     1      35.654 -25.231 -13.070  0.00  0.00    -0.218 N 
ATOM     12  N   UNL     1      34.650 -23.993 -11.576  0.00  0.00    -0.206 NA
ATOM     13  N   UNL     1      36.411 -25.397 -11.975  0.00  0.00    -0.157 NA
ATOM     14  C   UNL     1      34.610 -24.395 -12.825  0.00  0.00    +0.149 C 
ATOM     15  C   UNL     1      35.761 -24.627 -11.099  0.00  0.00    +0.218 C 
ATOM     16  H   UNL     1      35.832 -25.659 -13.939  0.00  0.00    +0.176 HD
ENDBRANCH   7  14
BRANCH   4  17
ATOM     17  C   UNL     1      34.217 -21.927 -17.949  0.00  0.00    +0.021 C 
ATOM     18  C   UNL     1      34.027 -21.188 -19.117  0.00  0.00    +0.016 C 
ATOM     19  C   UNL     1      35.507 -22.167 -17.478  0.00  0.00    +0.002 C 
ATOM     20  C   UNL     1      35.128 -20.690 -19.814  0.00  0.00    +0.051 C 
ATOM     21  C   UNL     1      36.608 -21.670 -18.176  0.00  0.00    +0.001 C 
ATOM     22  C   UNL     1      36.419 -20.931 -19.343  0.00  0.00    +0.015 C 
BRANCH  20  24
ATOM     23  O   UNL     1      35.740 -17.847 -20.382  0.00  0.00    -0.266 OA
ATOM     24  N   UNL     1      34.939 -19.950 -20.982  0.00  0.00    -0.278 N 
ATOM     25  C   UNL     1      35.242 -18.595 -21.221  0.00  0.00    +0.284 C 
ATOM     26  H   UNL     1      34.543 -20.441 -21.739  0.00  0.00    +0.155 HD
BRANCH  25  28
ATOM     27  O   UNL     1      35.170 -16.806 -22.858  0.00  0.00    -0.446 OA
ATOM     28  C   UNL     1      34.881 -18.099 -22.559  0.00  0.00    +0.199 C 
ATOM     29  C   UNL     1      34.275 -18.717 -23.628  0.00  0.00    +0.045 C 
ATOM     30  C   UNL     1      34.187 -17.741 -24.649  0.00  0.00    +0.044 C 
ATOM     31  C   UNL     1      34.746 -16.595 -24.131  0.00  0.00    +0.180 C 
ENDBRANCH  25  28
ENDBRANCH  20  24
ENDBRANCH   4  17
TORSDOF 4
ENDMDL
MODEL 2
REMARK VINA RESULT:     -10.9      3.066      5.763
REMARK  Name = 22479942
REMARK  4 active torsions:
REMARK  status: ('A' for Active; 'I' for Inactive)
REMARK    1  A    between atoms: C_4  and  C_17
REMARK    2  A    between atoms: C_7  and  C_14
REMARK    3  A    between atoms: C_20  and  N_24
REMARK    4  A    between atoms: C_25  and  C_28
REMARK                            x       y       z     vdW  Elec       q    Type
REMARK                         _______ _______ _______ _____ _____    ______ ____
ROOT
ATOM      1  N   UNL     1      35.707 -24.161 -11.034  0.00  0.00    -0.276 N 
ATOM      2  N   UNL     1      34.573 -23.710 -11.598  0.00  0.00    -0.173 NA
ATOM      3  C   UNL     1      35.695 -25.124 -13.004  0.00  0.00    +0.036 A 
ATOM      4  C   UNL     1      34.570 -24.299 -12.795  0.00  0.00    +0.102 A 
ATOM      5  C   UNL     1      36.427 -25.014 -11.828  0.00  0.00    +0.075 A 
ATOM      6  C   UNL     1      36.176 -25.943 -14.040  0.00  0.00    +0.006 C 
ATOM      7  C   UNL     1      37.385 -26.625 -13.846  0.00  0.00    +0.033 C 
ATOM      8  C   UNL     1      37.634 -25.684 -11.615  0.00  0.00    +0.019 C 
ATOM      9  C   UNL     1      38.099 -26.495 -12.654  0.00  0.00    +0.004 C 
ATOM     10  H   UNL     1      35.995 -23.900 -10.130  0.00  0.00    +0.189 HD
ENDROOT
BRANCH   7  14
ATOM     11  N   UNL     1      37.119 -28.338 -15.599  0.00  0.00    -0.218 N 
ATOM     12  N   UNL     1      39.136 -27.542 -15.327  0.00  0.00    -0.206 NA
ATOM     13  N   UNL     1      37.838 -29.004 -16.515  0.00  0.00    -0.157 NA
ATOM     14  C   UNL     1      37.897 -27.471 -14.897  0.00  0.00    +0.149 C 
ATOM     15  C   UNL     1      39.051 -28.486 -16.310  0.00  0.00    +0.218 C 
ATOM     16  H   UNL     1      36.153 -28.461 -15.454  0.00  0.00    +0.176 HD
ENDBRANCH   7  14
BRANCH   4  17
ATOM     17  C   UNL     1      33.486 -24.059 -13.715  0.00  0.00    +0.021 C 
ATOM     18  C   UNL     1      33.697 -23.283 -14.855  0.00  0.00    +0.016 C 
ATOM     19  C   UNL     1      32.227 -24.603 -13.465  0.00  0.00    +0.002 C 
ATOM     20  C   UNL     1      32.649 -23.051 -15.745  0.00  0.00    +0.051 C 
ATOM     21  C   UNL     1      31.178 -24.371 -14.355  0.00  0.00    +0.001 C 
ATOM     22  C   UNL     1      31.388 -23.595 -15.495  0.00  0.00    +0.015 C 
BRANCH  20  24
ATOM     23  O   UNL     1      33.716 -23.826 -18.399  0.00  0.00    -0.266 OA
ATOM     24  N   UNL     1      32.859 -22.276 -16.886  0.00  0.00    -0.278 N 
ATOM     25  C   UNL     1      33.370 -22.677 -18.137  0.00  0.00    +0.284 C 
ATOM     26  H   UNL     1      32.617 -21.325 -16.806  0.00  0.00    +0.155 HD
BRANCH  25  28
ATOM     27  O   UNL     1      32.377 -21.135 -19.726  0.00  0.00    -0.446 OA
ATOM     28  C   UNL     1      33.507 -21.599 -19.130  0.00  0.00    +0.199 C 
ATOM     29  C   UNL     1      34.611 -20.928 -19.603  0.00  0.00    +0.045 C 
ATOM     30  C   UNL     1      34.129 -19.993 -20.550  0.00  0.00    +0.044 C 
ATOM     31  C   UNL     1      32.763 -20.158 -20.588  0.00  0.00    +0.180 C 
ENDBRANCH  25  28
ENDBRANCH  20  24
ENDBRANCH   4  17
TORSDOF 4
ENDMDL
MODEL 3
REMARK VINA RESULT:     -10.7      4.526      8.790
REMARK  Name = 22479942
REMARK  4 active torsions:
REMARK  status: ('A' for Active; 'I' for Inactive)
REMARK    1  A    between atoms: C_4  and  C_17
REMARK    2  A    between atoms: C_7  and  C_14
REMARK    3  A    between atoms: C_20  and  N_24
REMARK    4  A    between atoms: C_25  and  C_28
REMARK                            x       y       z     vdW  Elec       q    Type
REMARK                         _______ _______ _______ _____ _____    ______ ____
ROOT
ATOM      1  N   UNL     1      32.083 -24.376 -13.048  0.00  0.00    -0.276 N 
ATOM      2  N   UNL     1      33.224 -24.612 -12.379  0.00  0.00    -0.173 NA
ATOM      3  C   UNL     1      33.641 -23.702 -14.436  0.00  0.00    +0.036 A 
ATOM      4  C   UNL     1      34.169 -24.201 -13.226  0.00  0.00    +0.102 A 
ATOM      5  C   UNL     1      32.264 -23.830 -14.290  0.00  0.00    +0.075 A 
ATOM      6  C   UNL     1      34.160 -23.163 -15.625  0.00  0.00    +0.006 C 
ATOM      7  C   UNL     1      33.264 -22.770 -16.628  0.00  0.00    +0.033 C 
ATOM      8  C   UNL     1      31.354 -23.446 -15.277  0.00  0.00    +0.019 C 
ATOM      9  C   UNL     1      31.886 -22.911 -16.455  0.00  0.00    +0.004 C 
ATOM     10  H   UNL     1      31.194 -24.578 -12.677  0.00  0.00    +0.189 HD
ENDROOT
BRANCH   7  14
ATOM     11  N   UNL     1      33.006 -21.513 -18.732  0.00  0.00    -0.218 N 
ATOM     12  N   UNL     1      35.004 -22.293 -18.316  0.00  0.00    -0.206 NA
ATOM     13  N   UNL     1      33.720 -21.109 -19.794  0.00  0.00    -0.157 NA
ATOM     14  C   UNL     1      33.775 -22.215 -17.858  0.00  0.00    +0.149 C 
ATOM     15  C   UNL     1      34.922 -21.606 -19.493  0.00  0.00    +0.218 C 
ATOM     16  H   UNL     1      32.048 -21.324 -18.602  0.00  0.00    +0.176 HD
ENDBRANCH   7  14
BRANCH   4  17
ATOM     17  C   UNL     1      35.559 -24.292 -12.858  0.00  0.00    +0.021 C 
ATOM     18  C   UNL     1      36.362 -25.292 -13.409  0.00  0.00    +0.016 C 
ATOM     19  C   UNL     1      36.102 -23.382 -11.952  0.00  0.00    +0.002 C 
ATOM     20  C   UNL     1      37.708 -25.380 -13.052  0.00  0.00    +0.051 C 
ATOM     21  C   UNL     1      37.448 -23.470 -11.595  0.00  0.00    +0.001 C 
ATOM     22  C   UNL     1      38.251 -24.469 -12.145  0.00  0.00    +0.015 C 
BRANCH  20  24
ATOM     23  O   UNL     1      40.015 -25.158 -14.900  0.00  0.00    -0.266 OA
ATOM     24  N   UNL     1      38.513 -26.378 -13.603  0.00  0.00    -0.278 N 
ATOM     25  C   UNL     1      39.606 -26.238 -14.481  0.00  0.00    +0.284 C 
ATOM     26  H   UNL     1      38.287 -27.300 -13.343  0.00  0.00    +0.155 HD
BRANCH  25  28
ATOM     27  O   UNL     1      40.920 -27.502 -16.083  0.00  0.00    -0.446 OA
ATOM     28  C   UNL     1      40.225 -27.502 -14.915  0.00  0.00    +0.199 C 
ATOM     29  C   UNL     1      40.242 -28.753 -14.344  0.00  0.00    +0.045 C 
ATOM     30  C   UNL     1      40.996 -29.574 -15.216  0.00  0.00    +0.044 C 
ATOM     31  C   UNL     1      41.387 -28.765 -16.259  0.00  0.00    +0.180 C 
ENDBRANCH  25  28
ENDBRANCH  20  24
ENDBRANCH   4  17
TORSDOF 4
ENDMDL
MODEL 4
REMARK VINA RESULT:     -10.7      3.784      8.139
REMARK  Name = 22479942
REMARK  4 active torsions:
REMARK  status: ('A' for Active; 'I' for Inactive)
REMARK    1  A    between atoms: C_4  and  C_17
REMARK    2  A    between atoms: C_7  and  C_14
REMARK    3  A    between atoms: C_20  and  N_24
REMARK    4  A    between atoms: C_25  and  C_28
REMARK                            x       y       z     vdW  Elec       q    Type
REMARK                         _______ _______ _______ _____ _____    ______ ____
ROOT
ATOM      1  N   UNL     1      36.476 -23.405 -14.697  0.00  0.00    -0.276 N 
ATOM      2  N   UNL     1      35.436 -23.868 -13.984  0.00  0.00    -0.173 NA
ATOM      3  C   UNL     1      34.735 -22.850 -15.910  0.00  0.00    +0.036 A 
ATOM      4  C   UNL     1      34.379 -23.529 -14.725  0.00  0.00    +0.102 A 
ATOM      5  C   UNL     1      36.122 -22.782 -15.865  0.00  0.00    +0.075 A 
ATOM      6  C   UNL     1      34.053 -22.290 -17.003  0.00  0.00    +0.006 C 
ATOM      7  C   UNL     1      34.803 -21.680 -18.017  0.00  0.00    +0.033 C 
ATOM      8  C   UNL     1      36.889 -22.179 -16.864  0.00  0.00    +0.019 C 
ATOM      9  C   UNL     1      36.197 -21.627 -17.946  0.00  0.00    +0.004 C 
ATOM     10  H   UNL     1      37.411 -23.505 -14.406  0.00  0.00    +0.189 HD
ENDROOT
BRANCH   7  14
ATOM     11  N   UNL     1      32.774 -21.140 -19.307  0.00  0.00    -0.218 N 
ATOM     12  N   UNL     1      34.667 -20.465 -20.164  0.00  0.00    -0.206 NA
ATOM     13  N   UNL     1      32.396 -20.529 -20.440  0.00  0.00    -0.157 NA
ATOM     14  C   UNL     1      34.124 -21.098 -19.149  0.00  0.00    +0.149 C 
ATOM     15  C   UNL     1      33.579 -20.137 -20.921  0.00  0.00    +0.218 C 
ATOM     16  H   UNL     1      32.152 -21.564 -18.671  0.00  0.00    +0.176 HD
ENDBRANCH   7  14
BRANCH   4  17
ATOM     17  C   UNL     1      33.049 -23.864 -14.282  0.00  0.00    +0.021 C 
ATOM     18  C   UNL     1      31.941 -23.297 -14.912  0.00  0.00    +0.016 C 
ATOM     19  C   UNL     1      32.870 -24.755 -13.225  0.00  0.00    +0.002 C 
ATOM     20  C   UNL     1      30.654 -23.622 -14.484  0.00  0.00    +0.051 C 
ATOM     21  C   UNL     1      31.583 -25.080 -12.796  0.00  0.00    +0.001 C 
ATOM     22  C   UNL     1      30.474 -24.514 -13.426  0.00  0.00    +0.015 C 
BRANCH  20  24
ATOM     23  O   UNL     1      28.576 -24.891 -16.174  0.00  0.00    -0.266 OA
ATOM     24  N   UNL     1      29.544 -23.057 -15.114  0.00  0.00    -0.278 N 
ATOM     25  C   UNL     1      28.572 -23.690 -15.913  0.00  0.00    +0.284 C 
ATOM     26  H   UNL     1      29.425 -22.088 -14.980  0.00  0.00    +0.155 HD
BRANCH  25  28
ATOM     27  O   UNL     1      27.281 -22.879 -17.800  0.00  0.00    -0.446 OA
ATOM     28  C   UNL     1      27.541 -22.798 -16.469  0.00  0.00    +0.199 C 
ATOM     29  C   UNL     1      26.744 -21.845 -15.878  0.00  0.00    +0.045 C 
ATOM     30  C   UNL     1      25.942 -21.306 -16.913  0.00  0.00    +0.044 C 
ATOM     31  C   UNL     1      26.306 -21.969 -18.062  0.00  0.00    +0.180 C 
ENDBRANCH  25  28
ENDBRANCH  20  24
ENDBRANCH   4  17
TORSDOF 4
ENDMDL
MODEL 5
REMARK VINA RESULT:     -10.4      8.937     15.025
REMARK  Name = 22479942
REMARK  4 active torsions:
REMARK  status: ('A' for Active; 'I' for Inactive)
REMARK    1  A    between atoms: C_4  and  C_17
REMARK    2  A    between atoms: C_7  and  C_14
REMARK    3  A    between atoms: C_20  and  N_24
REMARK    4  A    between atoms: C_25  and  C_28
REMARK                            x       y       z     vdW  Elec       q    Type
REMARK                         _______ _______ _______ _____ _____    ______ ____
ROOT
ATOM      1  N   UNL     1      35.324  -8.652 -24.837  0.00  0.00    -0.276 N 
ATOM      2  N   UNL     1      34.988  -9.882 -24.413  0.00  0.00    -0.173 NA
ATOM      3  C   UNL     1      33.663  -8.283 -23.452  0.00  0.00    +0.036 A 
ATOM      4  C   UNL     1      33.978  -9.654 -23.571  0.00  0.00    +0.102 A 
ATOM      5  C   UNL     1      34.566  -7.647 -24.296  0.00  0.00    +0.075 A 
ATOM      6  C   UNL     1      32.731  -7.514 -22.735  0.00  0.00    +0.006 C 
ATOM      7  C   UNL     1      32.744  -6.123 -22.901  0.00  0.00    +0.033 C 
ATOM      8  C   UNL     1      34.597  -6.262 -24.475  0.00  0.00    +0.019 C 
ATOM      9  C   UNL     1      33.663  -5.510 -23.756  0.00  0.00    +0.004 C 
ATOM     10  H   UNL     1      36.050  -8.487 -25.480  0.00  0.00    +0.189 HD
ENDROOT
BRANCH   7  14
ATOM     11  N   UNL     1      31.303  -4.139 -22.652  0.00  0.00    -0.218 N 
ATOM     12  N   UNL     1      31.280  -5.561 -20.992  0.00  0.00    -0.206 NA
ATOM     13  N   UNL     1      30.442  -3.584 -21.784  0.00  0.00    -0.157 NA
ATOM     14  C   UNL     1      31.796  -5.313 -22.174  0.00  0.00    +0.149 C 
ATOM     15  C   UNL     1      30.464  -4.484 -20.797  0.00  0.00    +0.218 C 
ATOM     16  H   UNL     1      31.545  -3.747 -23.522  0.00  0.00    +0.176 HD
ENDBRANCH   7  14
BRANCH   4  17
ATOM     17  C   UNL     1      33.334 -10.755 -22.900  0.00  0.00    +0.021 C 
ATOM     18  C   UNL     1      33.767 -12.061 -23.131  0.00  0.00    +0.016 C 
ATOM     19  C   UNL     1      32.280 -10.514 -22.020  0.00  0.00    +0.002 C 
ATOM     20  C   UNL     1      33.144 -13.126 -22.481  0.00  0.00    +0.051 C 
ATOM     21  C   UNL     1      31.657 -11.580 -21.370  0.00  0.00    +0.001 C 
ATOM     22  C   UNL     1      32.088 -12.886 -21.600  0.00  0.00    +0.015 C 
BRANCH  20  24
ATOM     23  O   UNL     1      33.531 -14.581 -25.034  0.00  0.00    -0.266 OA
ATOM     24  N   UNL     1      33.576 -14.433 -22.710  0.00  0.00    -0.278 N 
ATOM     25  C   UNL     1      33.750 -15.097 -23.940  0.00  0.00    +0.284 C 
ATOM     26  H   UNL     1      33.787 -14.960 -21.905  0.00  0.00    +0.155 HD
BRANCH  25  28
ATOM     27  O   UNL     1      33.627 -17.402 -24.689  0.00  0.00    -0.446 OA
ATOM     28  C   UNL     1      34.183 -16.501 -23.838  0.00  0.00    +0.199 C 
ATOM     29  C   UNL     1      35.090 -17.118 -23.008  0.00  0.00    +0.045 C 
ATOM     30  C   UNL     1      35.090 -18.485 -23.372  0.00  0.00    +0.044 C 
ATOM     31  C   UNL     1      34.184 -18.607 -24.400  0.00  0.00    +0.180 C 
ENDBRANCH  25  28
ENDBRANCH  20  24
ENDBRANCH   4  17
TORSDOF 4
ENDMDL
MODEL 6
REMARK VINA RESULT:     -10.3      8.662     14.875
REMARK  Name = 22479942
REMARK  4 active torsions:
REMARK  status: ('A' for Active; 'I' for Inactive)
REMARK    1  A    between atoms: C_4  and  C_17
REMARK    2  A    between atoms: C_7  and  C_14
REMARK    3  A    between atoms: C_20  and  N_24
REMARK    4  A    between atoms: C_25  and  C_28
REMARK                            x       y       z     vdW  Elec       q    Type
REMARK                         _______ _______ _______ _____ _____    ______ ____
ROOT
ATOM      1  N   UNL     1      31.793  -9.301 -20.434  0.00  0.00    -0.276 N 
ATOM      2  N   UNL     1      32.098 -10.448 -21.064  0.00  0.00    -0.173 NA
ATOM      3  C   UNL     1      32.696  -8.629 -22.317  0.00  0.00    +0.036 A 
ATOM      4  C   UNL     1      32.647 -10.036 -22.208  0.00  0.00    +0.102 A 
ATOM      5  C   UNL     1      32.126  -8.172 -21.134  0.00  0.00    +0.075 A 
ATOM      6  C   UNL     1      33.150  -7.699 -23.267  0.00  0.00    +0.006 C 
ATOM      7  C   UNL     1      33.012  -6.334 -22.985  0.00  0.00    +0.033 C 
ATOM      8  C   UNL     1      31.979  -6.816 -20.834  0.00  0.00    +0.019 C 
ATOM      9  C   UNL     1      32.435  -5.903 -21.789  0.00  0.00    +0.004 C 
ATOM     10  H   UNL     1      31.368  -9.274 -19.547  0.00  0.00    +0.189 HD
ENDROOT
BRANCH   7  14
ATOM     11  N   UNL     1      34.605  -5.520 -24.681  0.00  0.00    -0.218 N 
ATOM     12  N   UNL     1      32.900  -4.220 -24.259  0.00  0.00    -0.206 NA
ATOM     13  N   UNL     1      34.806  -4.476 -25.499  0.00  0.00    -0.157 NA
ATOM     14  C   UNL     1      33.470  -5.361 -23.948  0.00  0.00    +0.149 C 
ATOM     15  C   UNL     1      33.747  -3.717 -25.205  0.00  0.00    +0.218 C 
ATOM     16  H   UNL     1      35.201  -6.301 -24.620  0.00  0.00    +0.176 HD
ENDBRANCH   7  14
BRANCH   4  17
ATOM     17  C   UNL     1      33.116 -10.998 -23.173  0.00  0.00    +0.021 C 
ATOM     18  C   UNL     1      33.477 -12.281 -22.759  0.00  0.00    +0.016 C 
ATOM     19  C   UNL     1      33.207 -10.648 -24.519  0.00  0.00    +0.002 C 
ATOM     20  C   UNL     1      33.930 -13.213 -23.693  0.00  0.00    +0.051 C 
ATOM     21  C   UNL     1      33.661 -11.580 -25.453  0.00  0.00    +0.001 C 
ATOM     22  C   UNL     1      34.022 -12.863 -25.040  0.00  0.00    +0.015 C 
BRANCH  20  24
ATOM     23  O   UNL     1      33.932 -15.763 -25.203  0.00  0.00    -0.266 OA
ATOM     24  N   UNL     1      34.290 -14.496 -23.281  0.00  0.00    -0.278 N 
ATOM     25  C   UNL     1      34.280 -15.692 -24.026  0.00  0.00    +0.284 C 
ATOM     26  H   UNL     1      34.592 -14.576 -22.347  0.00  0.00    +0.155 HD
BRANCH  25  28
ATOM     27  O   UNL     1      35.270 -16.727 -22.068  0.00  0.00    -0.446 OA
ATOM     28  C   UNL     1      34.684 -16.897 -23.281  0.00  0.00    +0.199 C 
ATOM     29  C   UNL     1      34.581 -18.235 -23.584  0.00  0.00    +0.045 C 
ATOM     30  C   UNL     1      35.139 -18.931 -22.486  0.00  0.00    +0.044 C 
ATOM     31  C   UNL     1      35.543 -17.969 -21.590  0.00  0.00    +0.180 C 
ENDBRANCH  25  28
ENDBRANCH  20  24
ENDBRANCH   4  17
TORSDOF 4
ENDMDL
MODEL 7
REMARK VINA RESULT:     -10.2      3.214      4.770
REMARK  Name = 22479942
REMARK  4 active torsions:
REMARK  status: ('A' for Active; 'I' for Inactive)
REMARK    1  A    between atoms: C_4  and  C_17
REMARK    2  A    between atoms: C_7  and  C_14
REMARK    3  A    between atoms: C_20  and  N_24
REMARK    4  A    between atoms: C_25  and  C_28
REMARK                            x       y       z     vdW  Elec       q    Type
REMARK                         _______ _______ _______ _____ _____    ______ ____
ROOT
ATOM      1  N   UNL     1      37.088 -23.032 -12.742  0.00  0.00    -0.276 N 
ATOM      2  N   UNL     1      36.243 -22.443 -13.606  0.00  0.00    -0.173 NA
ATOM      3  C   UNL     1      36.806 -24.549 -14.301  0.00  0.00    +0.036 A 
ATOM      4  C   UNL     1      36.075 -23.368 -14.552  0.00  0.00    +0.102 A 
ATOM      5  C   UNL     1      37.464 -24.298 -13.102  0.00  0.00    +0.075 A 
ATOM      6  C   UNL     1      36.988 -25.787 -14.940  0.00  0.00    +0.006 C 
ATOM      7  C   UNL     1      37.832 -26.731 -14.341  0.00  0.00    +0.033 C 
ATOM      8  C   UNL     1      38.309 -25.225 -12.488  0.00  0.00    +0.019 C 
ATOM      9  C   UNL     1      38.480 -26.453 -13.136  0.00  0.00    +0.004 C 
ATOM     10  H   UNL     1      37.407 -22.592 -11.922  0.00  0.00    +0.189 HD
ENDROOT
BRANCH   7  14
ATOM     11  N   UNL     1      37.307 -28.425 -16.053  0.00  0.00    -0.218 N 
ATOM     12  N   UNL     1      38.904 -28.935 -14.652  0.00  0.00    -0.206 NA
ATOM     13  N   UNL     1      37.690 -29.646 -16.456  0.00  0.00    -0.157 NA
ATOM     14  C   UNL     1      38.033 -28.009 -14.981  0.00  0.00    +0.149 C 
ATOM     15  C   UNL     1      38.659 -29.910 -15.575  0.00  0.00    +0.218 C 
ATOM     16  H   UNL     1      36.592 -27.898 -16.479  0.00  0.00    +0.176 HD
ENDBRANCH   7  14
BRANCH   4  17
ATOM     17  C   UNL     1      35.213 -23.103 -15.677  0.00  0.00    +0.021 C 
ATOM     18  C   UNL     1      35.646 -22.262 -16.703  0.00  0.00    +0.016 C 
ATOM     19  C   UNL     1      33.949 -23.686 -15.739  0.00  0.00    +0.002 C 
ATOM     20  C   UNL     1      34.813 -22.006 -17.791  0.00  0.00    +0.051 C 
ATOM     21  C   UNL     1      33.115 -23.429 -16.828  0.00  0.00    +0.001 C 
ATOM     22  C   UNL     1      33.547 -22.589 -17.855  0.00  0.00    +0.015 C 
BRANCH  20  24
ATOM     23  O   UNL     1      33.243 -20.526 -19.824  0.00  0.00    -0.266 OA
ATOM     24  N   UNL     1      35.245 -21.166 -18.819  0.00  0.00    -0.278 N 
ATOM     25  C   UNL     1      34.469 -20.475 -19.772  0.00  0.00    +0.284 C 
ATOM     26  H   UNL     1      36.219 -21.040 -18.886  0.00  0.00    +0.155 HD
BRANCH  25  28
ATOM     27  O   UNL     1      36.457 -19.226 -20.385  0.00  0.00    -0.446 OA
ATOM     28  C   UNL     1      35.238 -19.697 -20.758  0.00  0.00    +0.199 C 
ATOM     29  C   UNL     1      34.954 -19.331 -22.053  0.00  0.00    +0.045 C 
ATOM     30  C   UNL     1      36.070 -18.587 -22.505  0.00  0.00    +0.044 C 
ATOM     31  C   UNL     1      36.957 -18.552 -21.454  0.00  0.00    +0.180 C 
ENDBRANCH  25  28
ENDBRANCH  20  24
ENDBRANCH   4  17
TORSDOF 4
ENDMDL
MODEL 8
REMARK VINA RESULT:     -10.2      3.266      6.639
REMARK  Name = 22479942
REMARK  4 active torsions:
REMARK  status: ('A' for Active; 'I' for Inactive)
REMARK    1  A    between atoms: C_4  and  C_17
REMARK    2  A    between atoms: C_7  and  C_14
REMARK    3  A    between atoms: C_20  and  N_24
REMARK    4  A    between atoms: C_25  and  C_28
REMARK                            x       y       z     vdW  Elec       q    Type
REMARK                         _______ _______ _______ _____ _____    ______ ____
ROOT
ATOM      1  N   UNL     1      37.958 -19.147 -20.728  0.00  0.00    -0.276 N 
ATOM      2  N   UNL     1      37.402 -18.529 -21.783  0.00  0.00    -0.173 NA
ATOM      3  C   UNL     1      35.846 -19.725 -20.607  0.00  0.00    +0.036 A 
ATOM      4  C   UNL     1      36.118 -18.883 -21.706  0.00  0.00    +0.102 A 
ATOM      5  C   UNL     1      37.077 -19.882 -19.981  0.00  0.00    +0.075 A 
ATOM      6  C   UNL     1      34.715 -20.367 -20.075  0.00  0.00    +0.006 C 
ATOM      7  C   UNL     1      34.871 -21.148 -18.922  0.00  0.00    +0.033 C 
ATOM      8  C   UNL     1      37.254 -20.656 -18.832  0.00  0.00    +0.019 C 
ATOM      9  C   UNL     1      36.120 -21.288 -18.313  0.00  0.00    +0.004 C 
ATOM     10  H   UNL     1      38.915 -19.076 -20.510  0.00  0.00    +0.189 HD
ENDROOT
BRANCH   7  14
ATOM     11  N   UNL     1      32.453 -21.349 -18.488  0.00  0.00    -0.218 N 
ATOM     12  N   UNL     1      33.715 -22.930 -17.661  0.00  0.00    -0.206 NA
ATOM     13  N   UNL     1      31.573 -22.153 -17.873  0.00  0.00    -0.157 NA
ATOM     14  C   UNL     1      33.724 -21.817 -18.358  0.00  0.00    +0.149 C 
ATOM     15  C   UNL     1      32.387 -23.094 -17.388  0.00  0.00    +0.218 C 
ATOM     16  H   UNL     1      32.210 -20.526 -18.972  0.00  0.00    +0.176 HD
ENDBRANCH   7  14
BRANCH   4  17
ATOM     17  C   UNL     1      35.176 -18.404 -22.688  0.00  0.00    +0.021 C 
ATOM     18  C   UNL     1      35.078 -17.037 -22.951  0.00  0.00    +0.016 C 
ATOM     19  C   UNL     1      34.366 -19.307 -23.374  0.00  0.00    +0.002 C 
ATOM     20  C   UNL     1      34.167 -16.574 -23.900  0.00  0.00    +0.051 C 
ATOM     21  C   UNL     1      33.454 -18.843 -24.324  0.00  0.00    +0.001 C 
ATOM     22  C   UNL     1      33.355 -17.477 -24.587  0.00  0.00    +0.015 C 
BRANCH  20  24
ATOM     23  O   UNL     1      33.710 -14.307 -22.046  0.00  0.00    -0.266 OA
ATOM     24  N   UNL     1      34.068 -15.208 -24.165  0.00  0.00    -0.278 N 
ATOM     25  C   UNL     1      33.849 -14.152 -23.258  0.00  0.00    +0.284 C 
ATOM     26  H   UNL     1      34.163 -14.948 -25.110  0.00  0.00    +0.155 HD
BRANCH  25  28
ATOM     27  O   UNL     1      33.640 -12.738 -25.218  0.00  0.00    -0.446 OA
ATOM     28  C   UNL     1      33.754 -12.814 -23.866  0.00  0.00    +0.199 C 
ATOM     29  C   UNL     1      33.757 -11.556 -23.310  0.00  0.00    +0.045 C 
ATOM     30  C   UNL     1      33.637 -10.648 -24.389  0.00  0.00    +0.044 C 
ATOM     31  C   UNL     1      33.568 -11.417 -25.529  0.00  0.00    +0.180 C 
ENDBRANCH  25  28
ENDBRANCH  20  24
ENDBRANCH   4  17
TORSDOF 4
ENDMDL
MODEL 9
REMARK VINA RESULT:     -10.0      4.367      7.048
REMARK  Name = 22479942
REMARK  4 active torsions:
REMARK  status: ('A' for Active; 'I' for Inactive)
REMARK    1  A    between atoms: C_4  and  C_17
REMARK    2  A    between atoms: C_7  and  C_14
REMARK    3  A    between atoms: C_20  and  N_24
REMARK    4  A    between atoms: C_25  and  C_28
REMARK                            x       y       z     vdW  Elec       q    Type
REMARK                         _______ _______ _______ _____ _____    ______ ____
ROOT
ATOM      1  N   UNL     1      37.530 -23.067 -12.596  0.00  0.00    -0.276 N 
ATOM      2  N   UNL     1      36.758 -22.387 -13.461  0.00  0.00    -0.173 NA
ATOM      3  C   UNL     1      37.179 -24.506 -14.213  0.00  0.00    +0.036 A 
ATOM      4  C   UNL     1      36.547 -23.265 -14.442  0.00  0.00    +0.102 A 
ATOM      5  C   UNL     1      37.819 -24.346 -12.990  0.00  0.00    +0.075 A 
ATOM      6  C   UNL     1      37.284 -25.733 -14.890  0.00  0.00    +0.006 C 
ATOM      7  C   UNL     1      38.035 -26.759 -14.301  0.00  0.00    +0.033 C 
ATOM      8  C   UNL     1      38.573 -25.355 -12.386  0.00  0.00    +0.019 C 
ATOM      9  C   UNL     1      38.668 -26.570 -13.071  0.00  0.00    +0.004 C 
ATOM     10  H   UNL     1      37.858 -22.679 -11.753  0.00  0.00    +0.189 HD
ENDROOT
BRANCH   7  14
ATOM     11  N   UNL     1      37.278 -28.451 -15.926  0.00  0.00    -0.218 N 
ATOM     12  N   UNL     1      39.088 -28.937 -14.803  0.00  0.00    -0.206 NA
ATOM     13  N   UNL     1      37.615 -29.660 -16.398  0.00  0.00    -0.157 NA
ATOM     14  C   UNL     1      38.157 -28.027 -14.979  0.00  0.00    +0.149 C 
ATOM     15  C   UNL     1      38.718 -29.910 -15.686  0.00  0.00    +0.218 C 
ATOM     16  H   UNL     1      36.494 -27.936 -16.227  0.00  0.00    +0.176 HD
ENDBRANCH   7  14
BRANCH   4  17
ATOM     17  C   UNL     1      35.741 -22.898 -15.580  0.00  0.00    +0.021 C 
ATOM     18  C   UNL     1      34.367 -23.142 -15.569  0.00  0.00    +0.016 C 
ATOM     19  C   UNL     1      36.335 -22.300 -16.690  0.00  0.00    +0.002 C 
ATOM     20  C   UNL     1      33.588 -22.786 -16.670  0.00  0.00    +0.051 C 
ATOM     21  C   UNL     1      35.555 -21.944 -17.791  0.00  0.00    +0.001 C 
ATOM     22  C   UNL     1      34.182 -22.187 -17.781  0.00  0.00    +0.015 C 
BRANCH  20  24
ATOM     23  O   UNL     1      31.642 -22.603 -14.442  0.00  0.00    -0.266 OA
ATOM     24  N   UNL     1      32.214 -23.028 -16.660  0.00  0.00    -0.278 N 
ATOM     25  C   UNL     1      31.313 -22.931 -15.580  0.00  0.00    +0.284 C 
ATOM     26  H   UNL     1      31.822 -23.300 -17.521  0.00  0.00    +0.155 HD
BRANCH  25  28
ATOM     27  O   UNL     1      29.196 -22.439 -16.657  0.00  0.00    -0.446 OA
ATOM     28  C   UNL     1      29.921 -23.296 -15.892  0.00  0.00    +0.199 C 
ATOM     29  C   UNL     1      29.165 -24.391 -15.546  0.00  0.00    +0.045 C 
ATOM     30  C   UNL     1      27.894 -24.195 -16.136  0.00  0.00    +0.044 C 
ATOM     31  C   UNL     1      27.964 -22.993 -16.802  0.00  0.00    +0.180 C 
ENDBRANCH  25  28
ENDBRANCH  20  24
ENDBRANCH   4  17
TORSDOF 4
ENDMDL
