MODEL 1
REMARK VINA RESULT:     -11.2      0.000      0.000
REMARK  Name = 24880024
REMARK  5 active torsions:
REMARK  status: ('A' for Active; 'I' for Inactive)
REMARK    1  A    between atoms: N_5  and  C_12
REMARK    2  A    between atoms: C_6  and  C_22
REMARK    3  A    between atoms: C_13  and  C_21
REMARK    4  A    between atoms: C_22  and  C_23
REMARK    5  A    between atoms: C_23  and  N_25
REMARK                            x       y       z     vdW  Elec       q    Type
REMARK                         _______ _______ _______ _____ _____    ______ ____
ROOT
ATOM      1  S   UNL     1      34.526 -14.538 -22.823  0.00  0.00    -0.056 S 
ATOM      2  O   UNL     1      33.300 -10.526 -24.873  0.00  0.00    -0.252 OA
ATOM      3  N   UNL     1      33.547 -13.513 -24.985  0.00  0.00    -0.223 NA
ATOM      4  N   UNL     1      34.119 -11.979 -23.218  0.00  0.00    -0.248 N 
ATOM      5  N   UNL     1      34.053  -9.678 -22.827  0.00  0.00    -0.268 N 
ATOM      6  C   UNL     1      34.105 -15.605 -24.098  0.00  0.00    +0.031 C 
ATOM      7  C   UNL     1      33.605 -14.881 -25.160  0.00  0.00    +0.103 C 
ATOM      8  C   UNL     1      34.007 -13.218 -23.789  0.00  0.00    +0.166 C 
ATOM      9  C   UNL     1      33.774 -10.695 -23.754  0.00  0.00    +0.310 C 
ATOM     10  H   UNL     1      34.491 -11.967 -22.306  0.00  0.00    +0.158 HD
ATOM     11  H   UNL     1      34.432  -9.969 -21.967  0.00  0.00    +0.156 HD
ENDROOT
BRANCH   5  12
ATOM     12  C   UNL     1      33.853  -8.285 -22.977  0.00  0.00    +0.052 C 
ATOM     13  C   UNL     1      32.720  -6.252 -22.332  0.00  0.00    +0.073 C 
ATOM     14  C   UNL     1      32.916  -7.625 -22.184  0.00  0.00    +0.019 C 
ATOM     15  C   UNL     1      34.596  -7.573 -23.918  0.00  0.00    +0.015 C 
ATOM     16  C   UNL     1      33.463  -5.539 -23.273  0.00  0.00    +0.004 C 
ATOM     17  C   UNL     1      34.401  -6.199 -24.066  0.00  0.00    +0.001 C 
BRANCH  13  21
ATOM     18  F   UNL     1      31.859  -5.789 -20.149  0.00  0.00    -0.166 F 
ATOM     19  F   UNL     1      31.762  -4.184 -21.604  0.00  0.00    -0.166 F 
ATOM     20  F   UNL     1      30.433  -5.896 -21.786  0.00  0.00    -0.166 F 
ATOM     21  C   UNL     1      31.717  -5.545 -21.484  0.00  0.00    +0.419 C 
ENDBRANCH  13  21
ENDBRANCH   5  12
BRANCH   6  22
ATOM     22  C   UNL     1      34.305 -17.094 -23.950  0.00  0.00    +0.056 C 
BRANCH  22  23
ATOM     23  C   UNL     1      35.168 -17.466 -22.745  0.00  0.00    +0.093 C 
BRANCH  23  25
ATOM     24  S   UNL     1      32.831 -20.536 -20.168  0.00  0.00    -0.101 S 
ATOM     25  N   UNL     1      34.506 -18.431 -21.920  0.00  0.00    -0.320 N 
ATOM     26  N   UNL     1      36.518 -19.098 -20.837  0.00  0.00    -0.233 NA
ATOM     27  N   UNL     1      36.563 -20.806 -19.124  0.00  0.00    -0.247 NA
ATOM     28  C   UNL     1      35.185 -19.230 -20.981  0.00  0.00    +0.118 C 
ATOM     29  C   UNL     1      34.505 -20.156 -20.199  0.00  0.00    +0.145 C 
ATOM     30  C   UNL     1      35.218 -20.928 -19.282  0.00  0.00    +0.073 C 
ATOM     31  C   UNL     1      34.369 -21.823 -18.565  0.00  0.00    +0.022 C 
ATOM     32  C   UNL     1      33.052 -21.713 -18.948  0.00  0.00    +0.033 C 
ATOM     33  C   UNL     1      37.120 -19.885 -19.926  0.00  0.00    +0.251 C 
ATOM     34  H   UNL     1      33.533 -18.541 -22.014  0.00  0.00    +0.148 HD
ENDBRANCH  23  25
ENDBRANCH  22  23
ENDBRANCH   6  22
TORSDOF 5
ENDMDL
MODEL 2
REMARK VINA RESULT:     -11.1      1.465      1.845
REMARK  Name = 24880024
REMARK  5 active torsions:
REMARK  status: ('A' for Active; 'I' for Inactive)
REMARK    1  A    between atoms: N_5  and  C_12
REMARK    2  A    between atoms: C_6  and  C_22
REMARK    3  A    between atoms: C_13  and  C_21
REMARK    4  A    between atoms: C_22  and  C_23
REMARK    5  A    between atoms: C_23  and  N_25
REMARK                            x       y       z     vdW  Elec       q    Type
REMARK                         _______ _______ _______ _____ _____    ______ ____
ROOT
ATOM      1  S   UNL     1      34.970 -16.104 -22.353  0.00  0.00    -0.056 S 
ATOM      2  O   UNL     1      33.576 -12.409 -24.845  0.00  0.00    -0.252 OA
ATOM      3  N   UNL     1      33.947 -15.376 -24.614  0.00  0.00    -0.223 NA
ATOM      4  N   UNL     1      34.456 -13.626 -23.038  0.00  0.00    -0.248 N 
ATOM      5  N   UNL     1      34.294 -11.300 -22.915  0.00  0.00    -0.268 N 
ATOM      6  C   UNL     1      34.592 -17.327 -23.494  0.00  0.00    +0.031 C 
ATOM      7  C   UNL     1      34.062 -16.752 -24.630  0.00  0.00    +0.103 C 
ATOM      8  C   UNL     1      34.395 -14.927 -23.462  0.00  0.00    +0.166 C 
ATOM      9  C   UNL     1      34.057 -12.429 -23.717  0.00  0.00    +0.310 C 
ATOM     10  H   UNL     1      34.827 -13.494 -22.136  0.00  0.00    +0.158 HD
ATOM     11  H   UNL     1      34.686 -11.475 -22.029  0.00  0.00    +0.156 HD
ENDROOT
BRANCH   5  12
ATOM     12  C   UNL     1      34.037  -9.944 -23.223  0.00  0.00    +0.052 C 
ATOM     13  C   UNL     1      32.599  -8.006 -23.102  0.00  0.00    +0.073 C 
ATOM     14  C   UNL     1      32.852  -9.344 -22.798  0.00  0.00    +0.019 C 
ATOM     15  C   UNL     1      34.970  -9.206 -23.952  0.00  0.00    +0.015 C 
ATOM     16  C   UNL     1      33.532  -7.268 -23.831  0.00  0.00    +0.004 C 
ATOM     17  C   UNL     1      34.717  -7.868 -24.256  0.00  0.00    +0.001 C 
BRANCH  13  21
ATOM     18  F   UNL     1      31.268  -7.172 -21.298  0.00  0.00    -0.166 F 
ATOM     19  F   UNL     1      31.120  -6.129 -23.193  0.00  0.00    -0.166 F 
ATOM     20  F   UNL     1      30.227  -8.099 -22.967  0.00  0.00    -0.166 F 
ATOM     21  C   UNL     1      31.332  -7.364 -22.648  0.00  0.00    +0.419 C 
ENDBRANCH  13  21
ENDBRANCH   5  12
BRANCH   6  22
ATOM     22  C   UNL     1      34.854 -18.779 -23.177  0.00  0.00    +0.056 C 
BRANCH  22  23
ATOM     23  C   UNL     1      35.514 -18.986 -21.814  0.00  0.00    +0.093 C 
BRANCH  23  25
ATOM     24  S   UNL     1      32.595 -21.380 -19.117  0.00  0.00    -0.101 S 
ATOM     25  N   UNL     1      34.667 -19.746 -20.945  0.00  0.00    -0.320 N 
ATOM     26  N   UNL     1      36.484 -20.530 -19.623  0.00  0.00    -0.233 NA
ATOM     27  N   UNL     1      36.169 -22.003 -17.730  0.00  0.00    -0.247 NA
ATOM     28  C   UNL     1      35.159 -20.504 -19.867  0.00  0.00    +0.118 C 
ATOM     29  C   UNL     1      34.303 -21.229 -19.046  0.00  0.00    +0.145 C 
ATOM     30  C   UNL     1      34.835 -21.967 -17.989  0.00  0.00    +0.073 C 
ATOM     31  C   UNL     1      33.820 -22.648 -17.251  0.00  0.00    +0.022 C 
ATOM     32  C   UNL     1      32.562 -22.415 -17.757  0.00  0.00    +0.033 C 
ATOM     33  C   UNL     1      36.905 -21.270 -18.581  0.00  0.00    +0.251 C 
ATOM     34  H   UNL     1      33.697 -19.738 -21.110  0.00  0.00    +0.148 HD
ENDBRANCH  23  25
ENDBRANCH  22  23
ENDBRANCH   6  22
TORSDOF 5
ENDMDL
MODEL 3
REMARK VINA RESULT:     -10.9      7.482     13.224
REMARK  Name = 24880024
REMARK  5 active torsions:
REMARK  status: ('A' for Active; 'I' for Inactive)
REMARK    1  A    between atoms: N_5  and  C_12
REMARK    2  A    between atoms: C_6  and  C_22
REMARK    3  A    between atoms: C_13  and  C_21
REMARK    4  A    between atoms: C_22  and  C_23
REMARK    5  A    between atoms: C_23  and  N_25
REMARK                            x       y       z     vdW  Elec       q    Type
REMARK                         _______ _______ _______ _____ _____    ______ ____
ROOT
ATOM      1  S   UNL     1      35.588 -20.638 -20.089  0.00  0.00    -0.056 S 
ATOM      2  O   UNL     1      31.765 -22.026 -17.797  0.00  0.00    -0.252 OA
ATOM      3  N   UNL     1      33.004 -20.563 -20.103  0.00  0.00    -0.223 NA
ATOM      4  N   UNL     1      34.046 -21.760 -18.291  0.00  0.00    -0.248 N 
ATOM      5  N   UNL     1      33.391 -22.968 -16.403  0.00  0.00    -0.268 N 
ATOM      6  C   UNL     1      34.817 -19.797 -21.369  0.00  0.00    +0.031 C 
ATOM      7  C   UNL     1      33.449 -19.863 -21.207  0.00  0.00    +0.103 C 
ATOM      8  C   UNL     1      34.045 -21.016 -19.440  0.00  0.00    +0.166 C 
ATOM      9  C   UNL     1      32.940 -22.237 -17.515  0.00  0.00    +0.310 C 
ATOM     10  H   UNL     1      34.937 -22.004 -17.947  0.00  0.00    +0.158 HD
ATOM     11  H   UNL     1      34.367 -23.052 -16.309  0.00  0.00    +0.156 HD
ENDROOT
BRANCH   5  12
ATOM     12  C   UNL     1      32.613 -23.598 -15.403  0.00  0.00    +0.052 C 
ATOM     13  C   UNL     1      30.473 -24.375 -14.595  0.00  0.00    +0.073 C 
ATOM     14  C   UNL     1      31.239 -23.753 -15.581  0.00  0.00    +0.019 C 
ATOM     15  C   UNL     1      33.223 -24.066 -14.239  0.00  0.00    +0.015 C 
ATOM     16  C   UNL     1      31.083 -24.843 -13.431  0.00  0.00    +0.004 C 
ATOM     17  C   UNL     1      32.457 -24.689 -13.253  0.00  0.00    +0.001 C 
BRANCH  13  21
ATOM     18  F   UNL     1      28.444 -25.463 -13.949  0.00  0.00    -0.166 F 
ATOM     19  F   UNL     1      28.293 -23.393 -14.576  0.00  0.00    -0.166 F 
ATOM     20  F   UNL     1      28.679 -24.947 -16.047  0.00  0.00    -0.166 F 
ATOM     21  C   UNL     1      29.003 -24.541 -14.785  0.00  0.00    +0.419 C 
ENDBRANCH  13  21
ENDBRANCH   5  12
BRANCH   6  22
ATOM     22  C   UNL     1      35.632 -19.125 -22.447  0.00  0.00    +0.056 C 
BRANCH  22  23
ATOM     23  C   UNL     1      36.537 -18.017 -21.912  0.00  0.00    +0.093 C 
BRANCH  23  25
ATOM     24  S   UNL     1      34.162 -14.193 -20.789  0.00  0.00    -0.101 S 
ATOM     25  N   UNL     1      35.785 -16.832 -21.631  0.00  0.00    -0.320 N 
ATOM     26  N   UNL     1      35.076 -16.573 -23.888  0.00  0.00    -0.233 NA
ATOM     27  N   UNL     1      33.652 -14.751 -24.598  0.00  0.00    -0.247 NA
ATOM     28  C   UNL     1      35.068 -16.128 -22.617  0.00  0.00    +0.118 C 
ATOM     29  C   UNL     1      34.349 -14.980 -22.302  0.00  0.00    +0.145 C 
ATOM     30  C   UNL     1      33.654 -14.315 -23.311  0.00  0.00    +0.073 C 
ATOM     31  C   UNL     1      32.973 -13.162 -22.817  0.00  0.00    +0.022 C 
ATOM     32  C   UNL     1      33.166 -12.981 -21.467  0.00  0.00    +0.033 C 
ATOM     33  C   UNL     1      34.375 -15.865 -24.793  0.00  0.00    +0.251 C 
ATOM     34  H   UNL     1      35.769 -16.493 -20.707  0.00  0.00    +0.148 HD
ENDBRANCH  23  25
ENDBRANCH  22  23
ENDBRANCH   6  22
TORSDOF 5
ENDMDL
MODEL 4
REMARK VINA RESULT:     -10.8      9.033     14.960
REMARK  Name = 24880024
REMARK  5 active torsions:
REMARK  status: ('A' for Active; 'I' for Inactive)
REMARK    1  A    between atoms: N_5  and  C_12
REMARK    2  A    between atoms: C_6  and  C_22
REMARK    3  A    between atoms: C_13  and  C_21
REMARK    4  A    between atoms: C_22  and  C_23
REMARK    5  A    between atoms: C_23  and  N_25
REMARK                            x       y       z     vdW  Elec       q    Type
REMARK                         _______ _______ _______ _____ _____    ______ ____
ROOT
ATOM      1  S   UNL     1      36.507 -20.643 -19.046  0.00  0.00    -0.056 S 
ATOM      2  O   UNL     1      35.113 -23.493 -15.621  0.00  0.00    -0.252 OA
ATOM      3  N   UNL     1      34.487 -21.970 -18.128  0.00  0.00    -0.223 NA
ATOM      4  N   UNL     1      36.545 -22.124 -16.884  0.00  0.00    -0.248 N 
ATOM      5  N   UNL     1      37.336 -23.185 -14.961  0.00  0.00    -0.268 N 
ATOM      6  C   UNL     1      35.029 -20.557 -19.912  0.00  0.00    +0.031 C 
ATOM      7  C   UNL     1      34.075 -21.322 -19.275  0.00  0.00    +0.103 C 
ATOM      8  C   UNL     1      35.752 -21.685 -17.910  0.00  0.00    +0.166 C 
ATOM      9  C   UNL     1      36.221 -22.993 -15.792  0.00  0.00    +0.310 C 
ATOM     10  H   UNL     1      37.473 -21.795 -16.898  0.00  0.00    +0.158 HD
ATOM     11  H   UNL     1      38.160 -22.717 -15.228  0.00  0.00    +0.156 HD
ENDROOT
BRANCH   5  12
ATOM     12  C   UNL     1      37.422 -23.971 -13.787  0.00  0.00    +0.052 C 
ATOM     13  C   UNL     1      37.639 -26.130 -12.726  0.00  0.00    +0.073 C 
ATOM     14  C   UNL     1      37.554 -25.356 -13.883  0.00  0.00    +0.019 C 
ATOM     15  C   UNL     1      37.377 -23.360 -12.535  0.00  0.00    +0.015 C 
ATOM     16  C   UNL     1      37.594 -25.519 -11.473  0.00  0.00    +0.004 C 
ATOM     17  C   UNL     1      37.463 -24.134 -11.377  0.00  0.00    +0.001 C 
BRANCH  13  21
ATOM     18  F   UNL     1      38.989 -28.016 -13.312  0.00  0.00    -0.166 F 
ATOM     19  F   UNL     1      37.641 -28.257 -11.630  0.00  0.00    -0.166 F 
ATOM     20  F   UNL     1      36.848 -28.172 -13.653  0.00  0.00    -0.166 F 
ATOM     21  C   UNL     1      37.779 -27.612 -12.827  0.00  0.00    +0.419 C 
ENDBRANCH  13  21
ENDBRANCH   5  12
BRANCH   6  22
ATOM     22  C   UNL     1      34.924 -19.729 -21.170  0.00  0.00    +0.056 C 
BRANCH  22  23
ATOM     23  C   UNL     1      36.059 -18.717 -21.319  0.00  0.00    +0.093 C 
BRANCH  23  25
ATOM     24  S   UNL     1      34.459 -14.362 -21.258  0.00  0.00    -0.101 S 
ATOM     25  N   UNL     1      35.550 -17.379 -21.366  0.00  0.00    -0.320 N 
ATOM     26  N   UNL     1      35.010 -17.515 -23.681  0.00  0.00    -0.233 NA
ATOM     27  N   UNL     1      34.018 -15.668 -24.889  0.00  0.00    -0.247 NA
ATOM     28  C   UNL     1      35.036 -16.798 -22.540  0.00  0.00    +0.118 C 
ATOM     29  C   UNL     1      34.551 -15.495 -22.545  0.00  0.00    +0.145 C 
ATOM     30  C   UNL     1      34.051 -14.959 -23.730  0.00  0.00    +0.073 C 
ATOM     31  C   UNL     1      33.596 -13.616 -23.558  0.00  0.00    +0.022 C 
ATOM     32  C   UNL     1      33.761 -13.172 -22.267  0.00  0.00    +0.033 C 
ATOM     33  C   UNL     1      34.508 -16.913 -24.775  0.00  0.00    +0.251 C 
ATOM     34  H   UNL     1      35.563 -16.842 -20.542  0.00  0.00    +0.148 HD
ENDBRANCH  23  25
ENDBRANCH  22  23
ENDBRANCH   6  22
TORSDOF 5
ENDMDL
MODEL 5
REMARK VINA RESULT:     -10.8      1.442      2.004
REMARK  Name = 24880024
REMARK  5 active torsions:
REMARK  status: ('A' for Active; 'I' for Inactive)
REMARK    1  A    between atoms: N_5  and  C_12
REMARK    2  A    between atoms: C_6  and  C_22
REMARK    3  A    between atoms: C_13  and  C_21
REMARK    4  A    between atoms: C_22  and  C_23
REMARK    5  A    between atoms: C_23  and  N_25
REMARK                            x       y       z     vdW  Elec       q    Type
REMARK                         _______ _______ _______ _____ _____    ______ ____
ROOT
ATOM      1  S   UNL     1      34.200 -14.410 -22.622  0.00  0.00    -0.056 S 
ATOM      2  O   UNL     1      32.979 -10.313 -24.499  0.00  0.00    -0.252 OA
ATOM      3  N   UNL     1      33.503 -13.249 -24.824  0.00  0.00    -0.223 NA
ATOM      4  N   UNL     1      33.640 -11.861 -22.859  0.00  0.00    -0.248 N 
ATOM      5  N   UNL     1      33.308  -9.621 -22.289  0.00  0.00    -0.268 N 
ATOM      6  C   UNL     1      34.090 -15.373 -24.037  0.00  0.00    +0.031 C 
ATOM      7  C   UNL     1      33.709 -14.585 -25.103  0.00  0.00    +0.103 C 
ATOM      8  C   UNL     1      33.732 -13.042 -23.546  0.00  0.00    +0.166 C 
ATOM      9  C   UNL     1      33.276 -10.559 -23.334  0.00  0.00    +0.310 C 
ATOM     10  H   UNL     1      33.854 -11.913 -21.899  0.00  0.00    +0.158 HD
ATOM     11  H   UNL     1      33.565  -9.969 -21.405  0.00  0.00    +0.156 HD
ENDROOT
BRANCH   5  12
ATOM     12  C   UNL     1      33.014  -8.239 -22.351  0.00  0.00    +0.052 C 
ATOM     13  C   UNL     1      33.316  -6.080 -23.392  0.00  0.00    +0.073 C 
ATOM     14  C   UNL     1      33.606  -7.442 -23.331  0.00  0.00    +0.019 C 
ATOM     15  C   UNL     1      32.132  -7.672 -21.432  0.00  0.00    +0.015 C 
ATOM     16  C   UNL     1      32.433  -5.513 -22.473  0.00  0.00    +0.004 C 
ATOM     17  C   UNL     1      31.841  -6.309 -21.492  0.00  0.00    +0.001 C 
BRANCH  13  21
ATOM     18  F   UNL     1      33.566  -5.546 -25.711  0.00  0.00    -0.166 F 
ATOM     19  F   UNL     1      33.666  -3.897 -24.306  0.00  0.00    -0.166 F 
ATOM     20  F   UNL     1      35.311  -5.314 -24.435  0.00  0.00    -0.166 F 
ATOM     21  C   UNL     1      33.949  -5.227 -24.440  0.00  0.00    +0.419 C 
ENDBRANCH  13  21
ENDBRANCH   5  12
BRANCH   6  22
ATOM     22  C   UNL     1      34.392 -16.851 -23.985  0.00  0.00    +0.056 C 
BRANCH  22  23
ATOM     23  C   UNL     1      35.236 -17.248 -22.775  0.00  0.00    +0.093 C 
BRANCH  23  25
ATOM     24  S   UNL     1      32.871 -20.388 -20.311  0.00  0.00    -0.101 S 
ATOM     25  N   UNL     1      34.565 -18.235 -21.984  0.00  0.00    -0.320 N 
ATOM     26  N   UNL     1      36.566 -18.939 -20.905  0.00  0.00    -0.233 NA
ATOM     27  N   UNL     1      36.593 -20.698 -19.244  0.00  0.00    -0.247 NA
ATOM     28  C   UNL     1      35.234 -19.064 -21.065  0.00  0.00    +0.118 C 
ATOM     29  C   UNL     1      34.545 -20.012 -20.316  0.00  0.00    +0.145 C 
ATOM     30  C   UNL     1      35.249 -20.812 -19.417  0.00  0.00    +0.073 C 
ATOM     31  C   UNL     1      34.392 -21.726 -18.734  0.00  0.00    +0.022 C 
ATOM     32  C   UNL     1      33.079 -21.601 -19.125  0.00  0.00    +0.033 C 
ATOM     33  C   UNL     1      37.159 -19.755 -20.014  0.00  0.00    +0.251 C 
ATOM     34  H   UNL     1      33.592 -18.340 -22.090  0.00  0.00    +0.148 HD
ENDBRANCH  23  25
ENDBRANCH  22  23
ENDBRANCH   6  22
TORSDOF 5
ENDMDL
MODEL 6
REMARK VINA RESULT:     -10.7      8.079     14.167
REMARK  Name = 24880024
REMARK  5 active torsions:
REMARK  status: ('A' for Active; 'I' for Inactive)
REMARK    1  A    between atoms: N_5  and  C_12
REMARK    2  A    between atoms: C_6  and  C_22
REMARK    3  A    between atoms: C_13  and  C_21
REMARK    4  A    between atoms: C_22  and  C_23
REMARK    5  A    between atoms: C_23  and  N_25
REMARK                            x       y       z     vdW  Elec       q    Type
REMARK                         _______ _______ _______ _____ _____    ______ ____
ROOT
ATOM      1  S   UNL     1      36.696 -20.477 -19.522  0.00  0.00    -0.056 S 
ATOM      2  O   UNL     1      35.393 -23.187 -15.950  0.00  0.00    -0.252 OA
ATOM      3  N   UNL     1      34.673 -21.660 -18.429  0.00  0.00    -0.223 NA
ATOM      4  N   UNL     1      36.807 -21.930 -17.343  0.00  0.00    -0.248 N 
ATOM      5  N   UNL     1      37.675 -23.015 -15.467  0.00  0.00    -0.268 N 
ATOM      6  C   UNL     1      35.164 -20.308 -20.275  0.00  0.00    +0.031 C 
ATOM      7  C   UNL     1      34.215 -21.001 -19.553  0.00  0.00    +0.103 C 
ATOM      8  C   UNL     1      35.967 -21.454 -18.314  0.00  0.00    +0.166 C 
ATOM      9  C   UNL     1      36.513 -22.762 -16.214  0.00  0.00    +0.310 C 
ATOM     10  H   UNL     1      37.750 -21.661 -17.433  0.00  0.00    +0.158 HD
ATOM     11  H   UNL     1      38.503 -22.604 -15.805  0.00  0.00    +0.156 HD
ENDROOT
BRANCH   5  12
ATOM     12  C   UNL     1      37.801 -23.790 -14.290  0.00  0.00    +0.052 C 
ATOM     13  C   UNL     1      37.196 -24.216 -11.990  0.00  0.00    +0.073 C 
ATOM     14  C   UNL     1      37.072 -23.452 -13.151  0.00  0.00    +0.019 C 
ATOM     15  C   UNL     1      38.656 -24.892 -14.269  0.00  0.00    +0.015 C 
ATOM     16  C   UNL     1      38.050 -25.318 -11.970  0.00  0.00    +0.004 C 
ATOM     17  C   UNL     1      38.780 -25.657 -13.110  0.00  0.00    +0.001 C 
BRANCH  13  21
ATOM     18  F   UNL     1      35.107 -23.564 -11.025  0.00  0.00    -0.166 F 
ATOM     19  F   UNL     1      36.386 -24.845  -9.830  0.00  0.00    -0.166 F 
ATOM     20  F   UNL     1      36.918 -22.758 -10.133  0.00  0.00    -0.166 F 
ATOM     21  C   UNL     1      36.416 -23.855 -10.771  0.00  0.00    +0.419 C 
ENDBRANCH  13  21
ENDBRANCH   5  12
BRANCH   6  22
ATOM     22  C   UNL     1      35.014 -19.491 -21.535  0.00  0.00    +0.056 C 
BRANCH  22  23
ATOM     23  C   UNL     1      36.079 -18.404 -21.675  0.00  0.00    +0.093 C 
BRANCH  23  25
ATOM     24  S   UNL     1      34.244 -14.181 -21.103  0.00  0.00    -0.101 S 
ATOM     25  N   UNL     1      35.498 -17.100 -21.565  0.00  0.00    -0.320 N 
ATOM     26  N   UNL     1      34.957 -16.989 -23.881  0.00  0.00    -0.233 NA
ATOM     27  N   UNL     1      33.860 -15.070 -24.864  0.00  0.00    -0.247 NA
ATOM     28  C   UNL     1      34.947 -16.412 -22.663  0.00  0.00    +0.118 C 
ATOM     29  C   UNL     1      34.392 -15.146 -22.514  0.00  0.00    +0.145 C 
ATOM     30  C   UNL     1      33.858 -14.502 -23.629  0.00  0.00    +0.073 C 
ATOM     31  C   UNL     1      33.332 -13.216 -23.300  0.00  0.00    +0.022 C 
ATOM     32  C   UNL     1      33.478 -12.920 -21.964  0.00  0.00    +0.033 C 
ATOM     33  C   UNL     1      34.418 -16.291 -24.897  0.00  0.00    +0.251 C 
ATOM     34  H   UNL     1      35.484 -16.664 -20.683  0.00  0.00    +0.148 HD
ENDBRANCH  23  25
ENDBRANCH  22  23
ENDBRANCH   6  22
TORSDOF 5
ENDMDL
MODEL 7
REMARK VINA RESULT:     -10.6      5.708     11.954
REMARK  Name = 24880024
REMARK  5 active torsions:
REMARK  status: ('A' for Active; 'I' for Inactive)
REMARK    1  A    between atoms: N_5  and  C_12
REMARK    2  A    between atoms: C_6  and  C_22
REMARK    3  A    between atoms: C_13  and  C_21
REMARK    4  A    between atoms: C_22  and  C_23
REMARK    5  A    between atoms: C_23  and  N_25
REMARK                            x       y       z     vdW  Elec       q    Type
REMARK                         _______ _______ _______ _____ _____    ______ ____
ROOT
ATOM      1  S   UNL     1      33.929 -14.900 -24.563  0.00  0.00    -0.056 S 
ATOM      2  O   UNL     1      35.200 -16.622 -20.414  0.00  0.00    -0.252 OA
ATOM      3  N   UNL     1      34.523 -14.258 -22.130  0.00  0.00    -0.223 NA
ATOM      4  N   UNL     1      34.593 -16.602 -22.683  0.00  0.00    -0.248 N 
ATOM      5  N   UNL     1      35.063 -18.624 -21.616  0.00  0.00    -0.268 N 
ATOM      6  C   UNL     1      33.885 -13.240 -24.138  0.00  0.00    +0.031 C 
ATOM      7  C   UNL     1      34.230 -13.093 -22.811  0.00  0.00    +0.103 C 
ATOM      8  C   UNL     1      34.397 -15.274 -22.955  0.00  0.00    +0.166 C 
ATOM      9  C   UNL     1      34.978 -17.232 -21.455  0.00  0.00    +0.310 C 
ATOM     10  H   UNL     1      34.446 -17.214 -23.441  0.00  0.00    +0.158 HD
ATOM     11  H   UNL     1      34.855 -18.969 -22.514  0.00  0.00    +0.156 HD
ENDROOT
BRANCH   5  12
ATOM     12  C   UNL     1      35.411 -19.593 -20.644  0.00  0.00    +0.052 C 
ATOM     13  C   UNL     1      34.761 -21.325 -19.091  0.00  0.00    +0.073 C 
ATOM     14  C   UNL     1      34.419 -20.370 -20.048  0.00  0.00    +0.019 C 
ATOM     15  C   UNL     1      36.746 -19.771 -20.284  0.00  0.00    +0.015 C 
ATOM     16  C   UNL     1      36.097 -21.503 -18.731  0.00  0.00    +0.004 C 
ATOM     17  C   UNL     1      37.090 -20.726 -19.328  0.00  0.00    +0.001 C 
BRANCH  13  21
ATOM     18  F   UNL     1      33.511 -23.364 -19.060  0.00  0.00    -0.166 F 
ATOM     19  F   UNL     1      33.953 -22.453 -17.142  0.00  0.00    -0.166 F 
ATOM     20  F   UNL     1      32.480 -21.547 -18.460  0.00  0.00    -0.166 F 
ATOM     21  C   UNL     1      33.700 -22.157 -18.452  0.00  0.00    +0.419 C 
ENDBRANCH  13  21
ENDBRANCH   5  12
BRANCH   6  22
ATOM     22  C   UNL     1      33.509 -12.195 -25.161  0.00  0.00    +0.056 C 
BRANCH  22  23
ATOM     23  C   UNL     1      34.098 -10.818 -24.856  0.00  0.00    +0.093 C 
BRANCH  23  25
ATOM     24  S   UNL     1      32.022  -9.157 -21.054  0.00  0.00    -0.101 S 
ATOM     25  N   UNL     1      33.488 -10.245 -23.695  0.00  0.00    -0.320 N 
ATOM     26  N   UNL     1      34.514  -8.124 -24.026  0.00  0.00    -0.233 NA
ATOM     27  N   UNL     1      34.148  -6.260 -22.528  0.00  0.00    -0.247 NA
ATOM     28  C   UNL     1      33.702  -8.913 -23.296  0.00  0.00    +0.118 C 
ATOM     29  C   UNL     1      33.090  -8.395 -22.160  0.00  0.00    +0.145 C 
ATOM     30  C   UNL     1      33.332  -7.069 -21.802  0.00  0.00    +0.073 C 
ATOM     31  C   UNL     1      32.628  -6.701 -20.616  0.00  0.00    +0.022 C 
ATOM     32  C   UNL     1      31.881  -7.740 -20.109  0.00  0.00    +0.033 C 
ATOM     33  C   UNL     1      34.686  -6.858 -23.603  0.00  0.00    +0.251 C 
ATOM     34  H   UNL     1      32.893 -10.809 -23.150  0.00  0.00    +0.148 HD
ENDBRANCH  23  25
ENDBRANCH  22  23
ENDBRANCH   6  22
TORSDOF 5
ENDMDL
MODEL 8
REMARK VINA RESULT:     -10.5      7.655     13.400
REMARK  Name = 24880024
REMARK  5 active torsions:
REMARK  status: ('A' for Active; 'I' for Inactive)
REMARK    1  A    between atoms: N_5  and  C_12
REMARK    2  A    between atoms: C_6  and  C_22
REMARK    3  A    between atoms: C_13  and  C_21
REMARK    4  A    between atoms: C_22  and  C_23
REMARK    5  A    between atoms: C_23  and  N_25
REMARK                            x       y       z     vdW  Elec       q    Type
REMARK                         _______ _______ _______ _____ _____    ______ ____
ROOT
ATOM      1  S   UNL     1      33.637 -19.953 -20.458  0.00  0.00    -0.056 S 
ATOM      2  O   UNL     1      33.267 -23.003 -16.943  0.00  0.00    -0.252 OA
ATOM      3  N   UNL     1      34.978 -21.558 -18.939  0.00  0.00    -0.223 NA
ATOM      4  N   UNL     1      32.600 -21.440 -18.565  0.00  0.00    -0.248 N 
ATOM      5  N   UNL     1      31.017 -22.398 -17.143  0.00  0.00    -0.268 N 
ATOM      6  C   UNL     1      35.332 -20.056 -20.698  0.00  0.00    +0.031 C 
ATOM      7  C   UNL     1      35.871 -20.957 -19.803  0.00  0.00    +0.103 C 
ATOM      8  C   UNL     1      33.770 -21.104 -19.193  0.00  0.00    +0.166 C 
ATOM      9  C   UNL     1      32.378 -22.354 -17.485  0.00  0.00    +0.310 C 
ATOM     10  H   UNL     1      31.795 -20.986 -18.904  0.00  0.00    +0.158 HD
ATOM     11  H   UNL     1      30.420 -21.818 -17.669  0.00  0.00    +0.156 HD
ENDROOT
BRANCH   5  12
ATOM     12  C   UNL     1      30.397 -23.173 -16.134  0.00  0.00    +0.052 C 
ATOM     13  C   UNL     1      30.400 -24.081 -13.895  0.00  0.00    +0.073 C 
ATOM     14  C   UNL     1      31.011 -23.318 -14.890  0.00  0.00    +0.019 C 
ATOM     15  C   UNL     1      29.172 -23.791 -16.383  0.00  0.00    +0.015 C 
ATOM     16  C   UNL     1      29.175 -24.699 -14.144  0.00  0.00    +0.004 C 
ATOM     17  C   UNL     1      28.560 -24.554 -15.388  0.00  0.00    +0.001 C 
BRANCH  13  21
ATOM     18  F   UNL     1      31.781 -25.387 -12.443  0.00  0.00    -0.166 F 
ATOM     19  F   UNL     1      31.930 -23.231 -12.265  0.00  0.00    -0.166 F 
ATOM     20  F   UNL     1      30.158 -24.260 -11.536  0.00  0.00    -0.166 F 
ATOM     21  C   UNL     1      31.055 -24.237 -12.564  0.00  0.00    +0.419 C 
ENDBRANCH  13  21
ENDBRANCH   5  12
BRANCH   6  22
ATOM     22  C   UNL     1      36.008 -19.231 -21.765  0.00  0.00    +0.056 C 
BRANCH  22  23
ATOM     23  C   UNL     1      36.145 -17.756 -21.386  0.00  0.00    +0.093 C 
BRANCH  23  25
ATOM     24  S   UNL     1      34.258 -15.174 -24.747  0.00  0.00    -0.101 S 
ATOM     25  N   UNL     1      35.542 -16.915 -22.375  0.00  0.00    -0.320 N 
ATOM     26  N   UNL     1      34.773 -15.335 -20.769  0.00  0.00    -0.233 NA
ATOM     27  N   UNL     1      33.531 -13.355 -21.393  0.00  0.00    -0.247 NA
ATOM     28  C   UNL     1      34.867 -15.722 -22.057  0.00  0.00    +0.118 C 
ATOM     29  C   UNL     1      34.294 -14.933 -23.048  0.00  0.00    +0.145 C 
ATOM     30  C   UNL     1      33.634 -13.759 -22.687  0.00  0.00    +0.073 C 
ATOM     31  C   UNL     1      33.108 -13.073 -23.822  0.00  0.00    +0.022 C 
ATOM     32  C   UNL     1      33.375 -13.732 -25.000  0.00  0.00    +0.033 C 
ATOM     33  C   UNL     1      34.118 -14.187 -20.518  0.00  0.00    +0.251 C 
ATOM     34  H   UNL     1      35.601 -17.184 -23.320  0.00  0.00    +0.148 HD
ENDBRANCH  23  25
ENDBRANCH  22  23
ENDBRANCH   6  22
TORSDOF 5
ENDMDL
MODEL 9
REMARK VINA RESULT:     -10.4      8.458     14.037
REMARK  Name = 24880024
REMARK  5 active torsions:
REMARK  status: ('A' for Active; 'I' for Inactive)
REMARK    1  A    between atoms: N_5  and  C_12
REMARK    2  A    between atoms: C_6  and  C_22
REMARK    3  A    between atoms: C_13  and  C_21
REMARK    4  A    between atoms: C_22  and  C_23
REMARK    5  A    between atoms: C_23  and  N_25
REMARK                            x       y       z     vdW  Elec       q    Type
REMARK                         _______ _______ _______ _____ _____    ______ ____
ROOT
ATOM      1  S   UNL     1      36.231 -19.823 -20.432  0.00  0.00    -0.056 S 
ATOM      2  O   UNL     1      35.015 -22.563 -16.852  0.00  0.00    -0.252 OA
ATOM      3  N   UNL     1      34.262 -21.121 -19.372  0.00  0.00    -0.223 NA
ATOM      4  N   UNL     1      36.379 -21.234 -18.228  0.00  0.00    -0.248 N 
ATOM      5  N   UNL     1      37.267 -22.234 -16.315  0.00  0.00    -0.268 N 
ATOM      6  C   UNL     1      34.712 -19.765 -21.226  0.00  0.00    +0.031 C 
ATOM      7  C   UNL     1      33.792 -20.509 -20.517  0.00  0.00    +0.103 C 
ATOM      8  C   UNL     1      35.536 -20.828 -19.228  0.00  0.00    +0.166 C 
ATOM      9  C   UNL     1      36.111 -22.068 -17.094  0.00  0.00    +0.310 C 
ATOM     10  H   UNL     1      37.305 -20.906 -18.299  0.00  0.00    +0.158 HD
ATOM     11  H   UNL     1      38.076 -21.774 -16.637  0.00  0.00    +0.156 HD
ENDROOT
BRANCH   5  12
ATOM     12  C   UNL     1      37.413 -22.982 -15.122  0.00  0.00    +0.052 C 
ATOM     13  C   UNL     1      38.515 -24.729 -13.869  0.00  0.00    +0.073 C 
ATOM     14  C   UNL     1      38.371 -23.992 -15.045  0.00  0.00    +0.019 C 
ATOM     15  C   UNL     1      36.599 -22.708 -14.024  0.00  0.00    +0.015 C 
ATOM     16  C   UNL     1      37.701 -24.455 -12.771  0.00  0.00    +0.004 C 
ATOM     17  C   UNL     1      36.742 -23.444 -12.848  0.00  0.00    +0.001 C 
BRANCH  13  21
ATOM     18  F   UNL     1      39.933 -26.286 -15.003  0.00  0.00    -0.166 F 
ATOM     19  F   UNL     1      40.693 -25.422 -13.165  0.00  0.00    -0.166 F 
ATOM     20  F   UNL     1      39.098 -26.898 -13.091  0.00  0.00    -0.166 F 
ATOM     21  C   UNL     1      39.540 -25.810 -13.786  0.00  0.00    +0.419 C 
ENDBRANCH  13  21
ENDBRANCH   5  12
BRANCH   6  22
ATOM     22  C   UNL     1      34.542 -18.978 -22.502  0.00  0.00    +0.056 C 
BRANCH  22  23
ATOM     23  C   UNL     1      35.658 -17.958 -22.731  0.00  0.00    +0.093 C 
BRANCH  23  25
ATOM     24  S   UNL     1      34.002 -14.133 -24.768  0.00  0.00    -0.101 S 
ATOM     25  N   UNL     1      35.140 -16.750 -23.297  0.00  0.00    -0.320 N 
ATOM     26  N   UNL     1      34.842 -15.713 -21.176  0.00  0.00    -0.233 NA
ATOM     27  N   UNL     1      33.954 -13.475 -20.941  0.00  0.00    -0.247 NA
ATOM     28  C   UNL     1      34.740 -15.649 -22.518  0.00  0.00    +0.118 C 
ATOM     29  C   UNL     1      34.241 -14.493 -23.107  0.00  0.00    +0.145 C 
ATOM     30  C   UNL     1      33.857 -13.426 -22.296  0.00  0.00    +0.073 C 
ATOM     31  C   UNL     1      33.370 -12.324 -23.060  0.00  0.00    +0.022 C 
ATOM     32  C   UNL     1      33.394 -12.576 -24.413  0.00  0.00    +0.033 C 
ATOM     33  C   UNL     1      34.448 -14.634 -20.475  0.00  0.00    +0.251 C 
ATOM     34  H   UNL     1      35.057 -16.688 -24.276  0.00  0.00    +0.148 HD
ENDBRANCH  23  25
ENDBRANCH  22  23
ENDBRANCH   6  22
TORSDOF 5
ENDMDL
