MODEL 1
REMARK VINA RESULT:     -12.2      0.000      0.000
REMARK  Name = 11978813
REMARK  7 active torsions:
REMARK  status: ('A' for Active; 'I' for Inactive)
REMARK    1  A    between atoms: C_1  and  N_2
REMARK    2  A    between atoms: C_1  and  C_18
REMARK    3  A    between atoms: N_3  and  C_10
REMARK    4  A    between atoms: C_18  and  C_19
REMARK    5  A    between atoms: C_19  and  C_20
REMARK    6  A    between atoms: C_20  and  O_21
REMARK    7  A    between atoms: O_21  and  C_24
REMARK                            x       y       z     vdW  Elec       q    Type
REMARK                         _______ _______ _______ _____ _____    ______ ____
ROOT
ATOM      1  C   UNL     1      35.173 -16.901 -23.631  0.00  0.00    -0.077 C 
ENDROOT
BRANCH   1   2
ATOM      2  N   UNL     1      34.915 -15.476 -23.431  0.00  0.00    +0.389 N 
ATOM      3  N   UNL     1      33.410 -13.185 -22.626  0.00  0.00    -0.312 N 
ATOM      4  C   UNL     1      33.741 -15.051 -24.202  0.00  0.00    -0.055 C 
ATOM      5  C   UNL     1      34.711 -15.184 -22.007  0.00  0.00    -0.055 C 
ATOM      6  C   UNL     1      33.495 -13.549 -24.046  0.00  0.00    +0.068 C 
ATOM      7  C   UNL     1      34.496 -13.686 -21.777  0.00  0.00    +0.068 C 
ATOM      8  H   UNL     1      35.730 -14.957 -23.759  0.00  0.00    -0.080 HD
BRANCH   3  10
ATOM      9  S   UNL     1      33.171  -8.158 -23.142  0.00  0.00    -0.086 S 
ATOM     10  C   UNL     1      32.761 -11.992 -22.290  0.00  0.00    +0.048 C 
ATOM     11  C   UNL     1      33.186 -10.721 -22.796  0.00  0.00    +0.020 C 
ATOM     12  C   UNL     1      31.647 -12.028 -21.423  0.00  0.00    +0.015 C 
ATOM     13  C   UNL     1      32.491  -9.567 -22.418  0.00  0.00    +0.031 C 
ATOM     14  C   UNL     1      34.271 -10.406 -23.680  0.00  0.00    +0.009 C 
ATOM     15  C   UNL     1      30.973 -10.869 -21.061  0.00  0.00    +0.002 C 
ATOM     16  C   UNL     1      31.382  -9.626 -21.551  0.00  0.00    +0.007 C 
ATOM     17  C   UNL     1      34.372  -9.061 -23.945  0.00  0.00    +0.035 C 
ENDBRANCH   3  10
ENDBRANCH   1   2
BRANCH   1  18
ATOM     18  C   UNL     1      34.028 -17.543 -24.413  0.00  0.00    -0.019 C 
BRANCH  18  19
ATOM     19  C   UNL     1      33.928 -19.039 -24.118  0.00  0.00    +0.045 C 
BRANCH  19  20
ATOM     20  C   UNL     1      34.627 -19.402 -22.815  0.00  0.00    +0.205 C 
BRANCH  20  21
ATOM     21  O   UNL     1      33.693 -19.377 -21.744  0.00  0.00    -0.475 OA
BRANCH  21  24
ATOM     22  O   UNL     1      31.541 -23.322 -16.228  0.00  0.00    -0.270 OA
ATOM     23  N   UNL     1      32.220 -22.041 -18.017  0.00  0.00    -0.280 N 
ATOM     24  C   UNL     1      33.984 -20.152 -20.651  0.00  0.00    +0.140 C 
ATOM     25  C   UNL     1      32.949 -20.694 -19.899  0.00  0.00    +0.052 C 
ATOM     26  C   UNL     1      33.256 -21.484 -18.788  0.00  0.00    +0.054 C 
ATOM     27  C   UNL     1      35.312 -20.386 -20.310  0.00  0.00    +0.037 C 
ATOM     28  C   UNL     1      34.587 -21.728 -18.432  0.00  0.00    +0.014 C 
ATOM     29  C   UNL     1      35.617 -21.176 -19.199  0.00  0.00    +0.004 C 
ATOM     30  C   UNL     1      34.865 -22.560 -17.263  0.00  0.00    +0.006 C 
ATOM     31  C   UNL     1      32.442 -22.832 -16.906  0.00  0.00    +0.250 C 
ATOM     32  C   UNL     1      33.863 -23.080 -16.543  0.00  0.00    +0.058 C 
ATOM     33  H   UNL     1      31.289 -21.858 -18.282  0.00  0.00    +0.155 HD
ENDBRANCH  21  24
ENDBRANCH  20  21
ENDBRANCH  19  20
ENDBRANCH  18  19
ENDBRANCH   1  18
TORSDOF 7
ENDMDL
MODEL 2
REMARK VINA RESULT:     -12.0      1.033      2.209
REMARK  Name = 11978813
REMARK  7 active torsions:
REMARK  status: ('A' for Active; 'I' for Inactive)
REMARK    1  A    between atoms: C_1  and  N_2
REMARK    2  A    between atoms: C_1  and  C_18
REMARK    3  A    between atoms: N_3  and  C_10
REMARK    4  A    between atoms: C_18  and  C_19
REMARK    5  A    between atoms: C_19  and  C_20
REMARK    6  A    between atoms: C_20  and  O_21
REMARK    7  A    between atoms: O_21  and  C_24
REMARK                            x       y       z     vdW  Elec       q    Type
REMARK                         _______ _______ _______ _____ _____    ______ ____
ROOT
ATOM      1  C   UNL     1      34.048 -16.319 -24.368  0.00  0.00    -0.077 C 
ENDROOT
BRANCH   1   2
ATOM      2  N   UNL     1      33.638 -14.958 -24.028  0.00  0.00    +0.389 N 
ATOM      3  N   UNL     1      33.928 -12.124 -23.807  0.00  0.00    -0.312 N 
ATOM      4  C   UNL     1      34.546 -14.380 -23.030  0.00  0.00    -0.055 C 
ATOM      5  C   UNL     1      33.612 -14.112 -25.227  0.00  0.00    -0.055 C 
ATOM      6  C   UNL     1      34.093 -12.976 -22.623  0.00  0.00    +0.068 C 
ATOM      7  C   UNL     1      33.129 -12.699 -24.895  0.00  0.00    +0.068 C 
ATOM      8  H   UNL     1      32.698 -14.999 -23.634  0.00  0.00    -0.080 HD
BRANCH   3  10
ATOM      9  S   UNL     1      31.975  -8.058 -21.518  0.00  0.00    -0.086 S 
ATOM     10  C   UNL     1      33.963 -10.737 -23.630  0.00  0.00    +0.048 C 
ATOM     11  C   UNL     1      33.061 -10.054 -22.751  0.00  0.00    +0.020 C 
ATOM     12  C   UNL     1      34.916  -9.970 -24.336  0.00  0.00    +0.015 C 
ATOM     13  C   UNL     1      33.152  -8.664 -22.622  0.00  0.00    +0.031 C 
ATOM     14  C   UNL     1      32.012 -10.584 -21.927  0.00  0.00    +0.009 C 
ATOM     15  C   UNL     1      34.987  -8.591 -24.192  0.00  0.00    +0.002 C 
ATOM     16  C   UNL     1      34.111  -7.920 -23.337  0.00  0.00    +0.007 C 
ATOM     17  C   UNL     1      31.351  -9.614 -21.213  0.00  0.00    +0.035 C 
ENDBRANCH   3  10
ENDBRANCH   1   2
BRANCH   1  18
ATOM     18  C   UNL     1      34.973 -16.881 -23.288  0.00  0.00    -0.019 C 
BRANCH  18  19
ATOM     19  C   UNL     1      34.843 -18.400 -23.186  0.00  0.00    +0.045 C 
BRANCH  19  20
ATOM     20  C   UNL     1      35.001 -18.881 -21.750  0.00  0.00    +0.205 C 
BRANCH  20  21
ATOM     21  O   UNL     1      33.971 -19.809 -21.437  0.00  0.00    -0.475 OA
BRANCH  21  24
ATOM     22  O   UNL     1      31.171 -23.375 -15.953  0.00  0.00    -0.270 OA
ATOM     23  N   UNL     1      32.060 -22.216 -17.733  0.00  0.00    -0.280 N 
ATOM     24  C   UNL     1      34.130 -20.548 -20.293  0.00  0.00    +0.140 C 
ATOM     25  C   UNL     1      33.010 -20.998 -19.605  0.00  0.00    +0.052 C 
ATOM     26  C   UNL     1      33.184 -21.752 -18.441  0.00  0.00    +0.054 C 
ATOM     27  C   UNL     1      35.412 -20.837 -19.837  0.00  0.00    +0.037 C 
ATOM     28  C   UNL     1      34.466 -22.051 -17.969  0.00  0.00    +0.014 C 
ATOM     29  C   UNL     1      35.583 -21.591 -18.673  0.00  0.00    +0.004 C 
ATOM     30  C   UNL     1      34.604 -22.842 -16.748  0.00  0.00    +0.006 C 
ATOM     31  C   UNL     1      32.148 -22.965 -16.577  0.00  0.00    +0.250 C 
ATOM     32  C   UNL     1      33.520 -23.273 -16.090  0.00  0.00    +0.058 C 
ATOM     33  H   UNL     1      31.165 -21.994 -18.079  0.00  0.00    +0.155 HD
ENDBRANCH  21  24
ENDBRANCH  20  21
ENDBRANCH  19  20
ENDBRANCH  18  19
ENDBRANCH   1  18
TORSDOF 7
ENDMDL
MODEL 3
REMARK VINA RESULT:     -11.5      2.312      3.653
REMARK  Name = 11978813
REMARK  7 active torsions:
REMARK  status: ('A' for Active; 'I' for Inactive)
REMARK    1  A    between atoms: C_1  and  N_2
REMARK    2  A    between atoms: C_1  and  C_18
REMARK    3  A    between atoms: N_3  and  C_10
REMARK    4  A    between atoms: C_18  and  C_19
REMARK    5  A    between atoms: C_19  and  C_20
REMARK    6  A    between atoms: C_20  and  O_21
REMARK    7  A    between atoms: O_21  and  C_24
REMARK                            x       y       z     vdW  Elec       q    Type
REMARK                         _______ _______ _______ _____ _____    ______ ____
ROOT
ATOM      1  C   UNL     1      33.052 -13.699 -22.588  0.00  0.00    -0.077 C 
ENDROOT
BRANCH   1   2
ATOM      2  N   UNL     1      32.564 -12.321 -22.569  0.00  0.00    +0.389 N 
ATOM      3  N   UNL     1      32.476  -9.597 -21.712  0.00  0.00    -0.312 N 
ATOM      4  C   UNL     1      32.044 -11.977 -21.240  0.00  0.00    -0.055 C 
ATOM      5  C   UNL     1      33.636 -11.390 -22.942  0.00  0.00    -0.055 C 
ATOM      6  C   UNL     1      31.478 -10.556 -21.223  0.00  0.00    +0.068 C 
ATOM      7  C   UNL     1      33.124  -9.948 -22.981  0.00  0.00    +0.068 C 
ATOM      8  H   UNL     1      31.808 -12.242 -23.249  0.00  0.00    -0.080 HD
BRANCH   3  10
ATOM      9  S   UNL     1      31.278  -4.905 -23.173  0.00  0.00    -0.086 S 
ATOM     10  C   UNL     1      32.326  -8.252 -21.359  0.00  0.00    +0.048 C 
ATOM     11  C   UNL     1      31.913  -7.255 -22.302  0.00  0.00    +0.020 C 
ATOM     12  C   UNL     1      32.586  -7.849 -20.031  0.00  0.00    +0.015 C 
ATOM     13  C   UNL     1      31.783  -5.927 -21.880  0.00  0.00    +0.031 C 
ATOM     14  C   UNL     1      31.590  -7.391 -23.693  0.00  0.00    +0.009 C 
ATOM     15  C   UNL     1      32.450  -6.525 -19.636  0.00  0.00    +0.002 C 
ATOM     16  C   UNL     1      32.049  -5.548 -20.550  0.00  0.00    +0.007 C 
ATOM     17  C   UNL     1      31.232  -6.201 -24.278  0.00  0.00    +0.035 C 
ENDBRANCH   3  10
ENDBRANCH   1   2
BRANCH   1  18
ATOM     18  C   UNL     1      33.683 -14.021 -23.943  0.00  0.00    -0.019 C 
BRANCH  18  19
ATOM     19  C   UNL     1      33.953 -15.518 -24.085  0.00  0.00    +0.045 C 
BRANCH  19  20
ATOM     20  C   UNL     1      34.879 -16.028 -22.989  0.00  0.00    +0.205 C 
BRANCH  20  21
ATOM     21  O   UNL     1      35.379 -17.312 -23.339  0.00  0.00    -0.475 OA
BRANCH  21  24
ATOM     22  O   UNL     1      32.569 -22.037 -18.823  0.00  0.00    -0.270 OA
ATOM     23  N   UNL     1      33.461 -20.503 -20.290  0.00  0.00    -0.280 N 
ATOM     24  C   UNL     1      35.528 -18.216 -22.320  0.00  0.00    +0.140 C 
ATOM     25  C   UNL     1      34.415 -18.891 -21.833  0.00  0.00    +0.052 C 
ATOM     26  C   UNL     1      34.578 -19.812 -20.794  0.00  0.00    +0.054 C 
ATOM     27  C   UNL     1      36.792 -18.447 -21.787  0.00  0.00    +0.037 C 
ATOM     28  C   UNL     1      35.842 -20.054 -20.247  0.00  0.00    +0.014 C 
ATOM     29  C   UNL     1      36.952 -19.368 -20.749  0.00  0.00    +0.004 C 
ATOM     30  C   UNL     1      35.969 -21.025 -19.163  0.00  0.00    +0.006 C 
ATOM     31  C   UNL     1      33.540 -21.428 -19.268  0.00  0.00    +0.250 C 
ATOM     32  C   UNL     1      34.893 -21.673 -18.699  0.00  0.00    +0.058 C 
ATOM     33  H   UNL     1      32.579 -20.319 -20.687  0.00  0.00    +0.155 HD
ENDBRANCH  21  24
ENDBRANCH  20  21
ENDBRANCH  19  20
ENDBRANCH  18  19
ENDBRANCH   1  18
TORSDOF 7
ENDMDL
MODEL 4
REMARK VINA RESULT:     -11.4      1.816      2.282
REMARK  Name = 11978813
REMARK  7 active torsions:
REMARK  status: ('A' for Active; 'I' for Inactive)
REMARK    1  A    between atoms: C_1  and  N_2
REMARK    2  A    between atoms: C_1  and  C_18
REMARK    3  A    between atoms: N_3  and  C_10
REMARK    4  A    between atoms: C_18  and  C_19
REMARK    5  A    between atoms: C_19  and  C_20
REMARK    6  A    between atoms: C_20  and  O_21
REMARK    7  A    between atoms: O_21  and  C_24
REMARK                            x       y       z     vdW  Elec       q    Type
REMARK                         _______ _______ _______ _____ _____    ______ ____
ROOT
ATOM      1  C   UNL     1      34.981 -17.065 -23.815  0.00  0.00    -0.077 C 
ENDROOT
BRANCH   1   2
ATOM      2  N   UNL     1      34.792 -15.631 -23.598  0.00  0.00    +0.389 N 
ATOM      3  N   UNL     1      33.406 -13.282 -22.749  0.00  0.00    -0.312 N 
ATOM      4  C   UNL     1      33.628 -15.146 -24.347  0.00  0.00    -0.055 C 
ATOM      5  C   UNL     1      34.622 -15.345 -22.169  0.00  0.00    -0.055 C 
ATOM      6  C   UNL     1      33.454 -13.635 -24.174  0.00  0.00    +0.068 C 
ATOM      7  C   UNL     1      34.480 -13.841 -21.921  0.00  0.00    +0.068 C 
ATOM      8  H   UNL     1      35.625 -15.147 -23.934  0.00  0.00    -0.080 HD
BRANCH   3  10
ATOM      9  S   UNL     1      33.420  -8.242 -23.179  0.00  0.00    -0.086 S 
ATOM     10  C   UNL     1      32.818 -12.064 -22.392  0.00  0.00    +0.048 C 
ATOM     11  C   UNL     1      33.306 -10.807 -22.877  0.00  0.00    +0.020 C 
ATOM     12  C   UNL     1      31.703 -12.059 -21.525  0.00  0.00    +0.015 C 
ATOM     13  C   UNL     1      32.669  -9.627 -22.479  0.00  0.00    +0.031 C 
ATOM     14  C   UNL     1      34.406 -10.532 -23.756  0.00  0.00    +0.009 C 
ATOM     15  C   UNL     1      31.088 -10.874 -21.144  0.00  0.00    +0.002 C 
ATOM     16  C   UNL     1      31.558  -9.645 -21.612  0.00  0.00    +0.007 C 
ATOM     17  C   UNL     1      34.574  -9.190 -23.998  0.00  0.00    +0.035 C 
ENDBRANCH   3  10
ENDBRANCH   1   2
BRANCH   1  18
ATOM     18  C   UNL     1      34.944 -17.814 -22.484  0.00  0.00    -0.019 C 
BRANCH  18  19
ATOM     19  C   UNL     1      36.321 -18.370 -22.124  0.00  0.00    +0.045 C 
BRANCH  19  20
ATOM     20  C   UNL     1      36.305 -19.082 -20.778  0.00  0.00    +0.205 C 
BRANCH  20  21
ATOM     21  O   UNL     1      35.459 -20.222 -20.846  0.00  0.00    -0.475 OA
BRANCH  21  24
ATOM     22  O   UNL     1      37.929 -22.956 -14.760  0.00  0.00    -0.270 OA
ATOM     23  N   UNL     1      37.147 -22.067 -16.735  0.00  0.00    -0.280 N 
ATOM     24  C   UNL     1      35.246 -20.905 -19.676  0.00  0.00    +0.140 C 
ATOM     25  C   UNL     1      36.309 -21.133 -18.812  0.00  0.00    +0.052 C 
ATOM     26  C   UNL     1      36.081 -21.828 -17.621  0.00  0.00    +0.054 C 
ATOM     27  C   UNL     1      33.967 -21.360 -19.371  0.00  0.00    +0.037 C 
ATOM     28  C   UNL     1      34.801 -22.293 -17.300  0.00  0.00    +0.014 C 
ATOM     29  C   UNL     1      33.742 -22.055 -18.180  0.00  0.00    +0.004 C 
ATOM     30  C   UNL     1      34.606 -23.015 -16.045  0.00  0.00    +0.006 C 
ATOM     31  C   UNL     1      37.003 -22.745 -15.540  0.00  0.00    +0.250 C 
ATOM     32  C   UNL     1      35.634 -23.231 -15.216  0.00  0.00    +0.058 C 
ATOM     33  H   UNL     1      38.041 -21.733 -16.978  0.00  0.00    +0.155 HD
ENDBRANCH  21  24
ENDBRANCH  20  21
ENDBRANCH  19  20
ENDBRANCH  18  19
ENDBRANCH   1  18
TORSDOF 7
ENDMDL
MODEL 5
REMARK VINA RESULT:     -11.3      4.539     11.562
REMARK  Name = 11978813
REMARK  7 active torsions:
REMARK  status: ('A' for Active; 'I' for Inactive)
REMARK    1  A    between atoms: C_1  and  N_2
REMARK    2  A    between atoms: C_1  and  C_18
REMARK    3  A    between atoms: N_3  and  C_10
REMARK    4  A    between atoms: C_18  and  C_19
REMARK    5  A    between atoms: C_19  and  C_20
REMARK    6  A    between atoms: C_20  and  O_21
REMARK    7  A    between atoms: O_21  and  C_24
REMARK                            x       y       z     vdW  Elec       q    Type
REMARK                         _______ _______ _______ _____ _____    ______ ____
ROOT
ATOM      1  C   UNL     1      34.098 -15.803 -24.497  0.00  0.00    -0.077 C 
ENDROOT
BRANCH   1   2
ATOM      2  N   UNL     1      34.806 -16.804 -23.701  0.00  0.00    +0.389 N 
ATOM      3  N   UNL     1      35.131 -18.713 -21.600  0.00  0.00    -0.312 N 
ATOM      4  C   UNL     1      34.931 -16.360 -22.307  0.00  0.00    -0.055 C 
ATOM      5  C   UNL     1      34.107 -18.094 -23.753  0.00  0.00    -0.055 C 
ATOM      6  C   UNL     1      35.721 -17.374 -21.476  0.00  0.00    +0.068 C 
ATOM      7  C   UNL     1      34.868 -19.166 -22.970  0.00  0.00    +0.068 C 
ATOM      8  H   UNL     1      35.740 -16.920 -24.094  0.00  0.00    -0.080 HD
BRANCH   3  10
ATOM      9  S   UNL     1      33.355 -22.147 -18.338  0.00  0.00    -0.086 S 
ATOM     10  C   UNL     1      35.414 -19.651 -20.602  0.00  0.00    +0.048 C 
ATOM     11  C   UNL     1      34.388 -20.419 -19.960  0.00  0.00    +0.020 C 
ATOM     12  C   UNL     1      36.752 -19.859 -20.202  0.00  0.00    +0.015 C 
ATOM     13  C   UNL     1      34.742 -21.340 -18.969  0.00  0.00    +0.031 C 
ATOM     14  C   UNL     1      32.969 -20.405 -20.173  0.00  0.00    +0.009 C 
ATOM     15  C   UNL     1      37.079 -20.779 -19.215  0.00  0.00    +0.002 C 
ATOM     16  C   UNL     1      36.084 -21.531 -18.586  0.00  0.00    +0.007 C 
ATOM     17  C   UNL     1      32.298 -21.289 -19.363  0.00  0.00    +0.035 C 
ENDBRANCH   3  10
ENDBRANCH   1   2
BRANCH   1  18
ATOM     18  C   UNL     1      34.070 -14.463 -23.762  0.00  0.00    -0.019 C 
BRANCH  18  19
ATOM     19  C   UNL     1      33.332 -13.402 -24.577  0.00  0.00    +0.045 C 
BRANCH  19  20
ATOM     20  C   UNL     1      33.927 -12.017 -24.366  0.00  0.00    +0.205 C 
BRANCH  20  21
ATOM     21  O   UNL     1      33.264 -11.366 -23.290  0.00  0.00    -0.475 OA
BRANCH  21  24
ATOM     22  O   UNL     1      30.381  -5.038 -21.787  0.00  0.00    -0.270 OA
ATOM     23  N   UNL     1      31.298  -7.094 -22.270  0.00  0.00    -0.280 N 
ATOM     24  C   UNL     1      33.356  -9.999 -23.243  0.00  0.00    +0.140 C 
ATOM     25  C   UNL     1      32.277  -9.255 -22.781  0.00  0.00    +0.052 C 
ATOM     26  C   UNL     1      32.380  -7.862 -22.736  0.00  0.00    +0.054 C 
ATOM     27  C   UNL     1      34.527  -9.376 -23.658  0.00  0.00    +0.037 C 
ATOM     28  C   UNL     1      33.552  -7.220 -23.151  0.00  0.00    +0.014 C 
ATOM     29  C   UNL     1      34.628  -7.983 -23.613  0.00  0.00    +0.004 C 
ATOM     30  C   UNL     1      33.619  -5.762 -23.087  0.00  0.00    +0.006 C 
ATOM     31  C   UNL     1      31.323  -5.715 -22.195  0.00  0.00    +0.250 C 
ATOM     32  C   UNL     1      32.577  -5.050 -22.640  0.00  0.00    +0.058 C 
ATOM     33  H   UNL     1      30.481  -7.563 -21.983  0.00  0.00    +0.155 HD
ENDBRANCH  21  24
ENDBRANCH  20  21
ENDBRANCH  19  20
ENDBRANCH  18  19
ENDBRANCH   1  18
TORSDOF 7
ENDMDL
MODEL 6
REMARK VINA RESULT:     -11.2      1.167      2.411
REMARK  Name = 11978813
REMARK  7 active torsions:
REMARK  status: ('A' for Active; 'I' for Inactive)
REMARK    1  A    between atoms: C_1  and  N_2
REMARK    2  A    between atoms: C_1  and  C_18
REMARK    3  A    between atoms: N_3  and  C_10
REMARK    4  A    between atoms: C_18  and  C_19
REMARK    5  A    between atoms: C_19  and  C_20
REMARK    6  A    between atoms: C_20  and  O_21
REMARK    7  A    between atoms: O_21  and  C_24
REMARK                            x       y       z     vdW  Elec       q    Type
REMARK                         _______ _______ _______ _____ _____    ______ ____
ROOT
ATOM      1  C   UNL     1      34.927 -17.454 -23.409  0.00  0.00    -0.077 C 
ENDROOT
BRANCH   1   2
ATOM      2  N   UNL     1      34.253 -16.165 -23.267  0.00  0.00    +0.389 N 
ATOM      3  N   UNL     1      34.017 -13.320 -23.363  0.00  0.00    -0.312 N 
ATOM      4  C   UNL     1      34.940 -15.329 -22.276  0.00  0.00    -0.055 C 
ATOM      5  C   UNL     1      34.198 -15.467 -24.557  0.00  0.00    -0.055 C 
ATOM      6  C   UNL     1      34.210 -13.999 -22.076  0.00  0.00    +0.068 C 
ATOM      7  C   UNL     1      33.444 -14.141 -24.435  0.00  0.00    +0.068 C 
ATOM      8  H   UNL     1      33.300 -16.339 -22.947  0.00  0.00    -0.080 HD
BRANCH   3  10
ATOM      9  S   UNL     1      31.477  -9.425 -21.370  0.00  0.00    -0.086 S 
ATOM     10  C   UNL     1      33.790 -11.939 -23.350  0.00  0.00    +0.048 C 
ATOM     11  C   UNL     1      32.840 -11.328 -22.469  0.00  0.00    +0.020 C 
ATOM     12  C   UNL     1      34.515 -11.107 -24.231  0.00  0.00    +0.015 C 
ATOM     13  C   UNL     1      32.663  -9.941 -22.510  0.00  0.00    +0.031 C 
ATOM     14  C   UNL     1      31.983 -11.931 -21.489  0.00  0.00    +0.009 C 
ATOM     15  C   UNL     1      34.323  -9.733 -24.254  0.00  0.00    +0.002 C 
ATOM     16  C   UNL     1      33.398  -9.130 -23.398  0.00  0.00    +0.007 C 
ATOM     17  C   UNL     1      31.199 -11.016 -20.828  0.00  0.00    +0.035 C 
ENDBRANCH   3  10
ENDBRANCH   1   2
BRANCH   1  18
ATOM     18  C   UNL     1      34.955 -18.189 -22.070  0.00  0.00    -0.019 C 
BRANCH  18  19
ATOM     19  C   UNL     1      36.363 -18.680 -21.738  0.00  0.00    +0.045 C 
BRANCH  19  20
ATOM     20  C   UNL     1      36.371 -19.570 -20.502  0.00  0.00    +0.205 C 
BRANCH  20  21
ATOM     21  O   UNL     1      35.307 -20.509 -20.578  0.00  0.00    -0.475 OA
BRANCH  21  24
ATOM     22  O   UNL     1      30.358 -23.149 -16.201  0.00  0.00    -0.270 OA
ATOM     23  N   UNL     1      31.947 -22.287 -17.628  0.00  0.00    -0.280 N 
ATOM     24  C   UNL     1      34.969 -21.156 -19.417  0.00  0.00    +0.140 C 
ATOM     25  C   UNL     1      33.631 -21.385 -19.124  0.00  0.00    +0.052 C 
ATOM     26  C   UNL     1      33.297 -22.047 -17.939  0.00  0.00    +0.054 C 
ATOM     27  C   UNL     1      35.972 -21.574 -18.549  0.00  0.00    +0.037 C 
ATOM     28  C   UNL     1      34.293 -22.474 -17.055  0.00  0.00    +0.014 C 
ATOM     29  C   UNL     1      35.636 -22.236 -17.364  0.00  0.00    +0.004 C 
ATOM     30  C   UNL     1      33.902 -23.162 -15.827  0.00  0.00    +0.006 C 
ATOM     31  C   UNL     1      31.536 -22.934 -16.479  0.00  0.00    +0.250 C 
ATOM     32  C   UNL     1      32.611 -23.381 -15.551  0.00  0.00    +0.058 C 
ATOM     33  H   UNL     1      31.258 -21.979 -18.261  0.00  0.00    +0.155 HD
ENDBRANCH  21  24
ENDBRANCH  20  21
ENDBRANCH  19  20
ENDBRANCH  18  19
ENDBRANCH   1  18
TORSDOF 7
ENDMDL
MODEL 7
REMARK VINA RESULT:     -11.1      1.951      3.039
REMARK  Name = 11978813
REMARK  7 active torsions:
REMARK  status: ('A' for Active; 'I' for Inactive)
REMARK    1  A    between atoms: C_1  and  N_2
REMARK    2  A    between atoms: C_1  and  C_18
REMARK    3  A    between atoms: N_3  and  C_10
REMARK    4  A    between atoms: C_18  and  C_19
REMARK    5  A    between atoms: C_19  and  C_20
REMARK    6  A    between atoms: C_20  and  O_21
REMARK    7  A    between atoms: O_21  and  C_24
REMARK                            x       y       z     vdW  Elec       q    Type
REMARK                         _______ _______ _______ _____ _____    ______ ____
ROOT
ATOM      1  C   UNL     1      34.840 -17.291 -23.833  0.00  0.00    -0.077 C 
ENDROOT
BRANCH   1   2
ATOM      2  N   UNL     1      34.207 -16.000 -23.565  0.00  0.00    +0.389 N 
ATOM      3  N   UNL     1      34.012 -13.151 -23.516  0.00  0.00    -0.312 N 
ATOM      4  C   UNL     1      35.012 -15.218 -22.620  0.00  0.00    -0.055 C 
ATOM      5  C   UNL     1      34.027 -15.246 -24.811  0.00  0.00    -0.055 C 
ATOM      6  C   UNL     1      34.331 -13.888 -22.287  0.00  0.00    +0.068 C 
ATOM      7  C   UNL     1      33.313 -13.917 -24.553  0.00  0.00    +0.068 C 
ATOM      8  H   UNL     1      33.291 -16.176 -23.151  0.00  0.00    -0.080 HD
BRANCH   3  10
ATOM      9  S   UNL     1      31.442  -9.340 -21.403  0.00  0.00    -0.086 S 
ATOM     10  C   UNL     1      33.812 -11.769 -23.421  0.00  0.00    +0.048 C 
ATOM     11  C   UNL     1      32.827 -11.196 -22.553  0.00  0.00    +0.020 C 
ATOM     12  C   UNL     1      34.603 -10.897 -24.202  0.00  0.00    +0.015 C 
ATOM     13  C   UNL     1      32.680  -9.806 -22.509  0.00  0.00    +0.031 C 
ATOM     14  C   UNL     1      31.904 -11.844 -21.666  0.00  0.00    +0.009 C 
ATOM     15  C   UNL     1      34.439  -9.520 -24.141  0.00  0.00    +0.002 C 
ATOM     16  C   UNL     1      33.479  -8.955 -23.297  0.00  0.00    +0.007 C 
ATOM     17  C   UNL     1      31.103 -10.958 -20.987  0.00  0.00    +0.035 C 
ENDBRANCH   3  10
ENDBRANCH   1   2
BRANCH   1  18
ATOM     18  C   UNL     1      34.787 -18.177 -22.589  0.00  0.00    -0.019 C 
BRANCH  18  19
ATOM     19  C   UNL     1      36.191 -18.481 -22.067  0.00  0.00    +0.045 C 
BRANCH  19  20
ATOM     20  C   UNL     1      36.149 -19.139 -20.694  0.00  0.00    +0.205 C 
BRANCH  20  21
ATOM     21  O   UNL     1      35.380 -20.333 -20.756  0.00  0.00    -0.475 OA
BRANCH  21  24
ATOM     22  O   UNL     1      37.994 -23.062 -14.728  0.00  0.00    -0.270 OA
ATOM     23  N   UNL     1      37.165 -22.175 -16.685  0.00  0.00    -0.280 N 
ATOM     24  C   UNL     1      35.194 -21.011 -19.579  0.00  0.00    +0.140 C 
ATOM     25  C   UNL     1      36.278 -21.242 -18.742  0.00  0.00    +0.052 C 
ATOM     26  C   UNL     1      36.078 -21.932 -17.544  0.00  0.00    +0.054 C 
ATOM     27  C   UNL     1      33.921 -21.457 -19.239  0.00  0.00    +0.037 C 
ATOM     28  C   UNL     1      34.804 -22.388 -17.187  0.00  0.00    +0.014 C 
ATOM     29  C   UNL     1      33.723 -22.147 -18.040  0.00  0.00    +0.004 C 
ATOM     30  C   UNL     1      34.638 -23.105 -15.925  0.00  0.00    +0.006 C 
ATOM     31  C   UNL     1      37.049 -22.848 -15.484  0.00  0.00    +0.250 C 
ATOM     32  C   UNL     1      35.687 -23.325 -15.122  0.00  0.00    +0.058 C 
ATOM     33  H   UNL     1      38.055 -21.847 -16.953  0.00  0.00    +0.155 HD
ENDBRANCH  21  24
ENDBRANCH  20  21
ENDBRANCH  19  20
ENDBRANCH  18  19
ENDBRANCH   1  18
TORSDOF 7
ENDMDL
MODEL 8
REMARK VINA RESULT:     -11.0      2.372      4.080
REMARK  Name = 11978813
REMARK  7 active torsions:
REMARK  status: ('A' for Active; 'I' for Inactive)
REMARK    1  A    between atoms: C_1  and  N_2
REMARK    2  A    between atoms: C_1  and  C_18
REMARK    3  A    between atoms: N_3  and  C_10
REMARK    4  A    between atoms: C_18  and  C_19
REMARK    5  A    between atoms: C_19  and  C_20
REMARK    6  A    between atoms: C_20  and  O_21
REMARK    7  A    between atoms: O_21  and  C_24
REMARK                            x       y       z     vdW  Elec       q    Type
REMARK                         _______ _______ _______ _____ _____    ______ ____
ROOT
ATOM      1  C   UNL     1      32.920 -13.247 -22.808  0.00  0.00    -0.077 C 
ENDROOT
BRANCH   1   2
ATOM      2  N   UNL     1      33.372 -11.862 -22.684  0.00  0.00    +0.389 N 
ATOM      3  N   UNL     1      33.371  -9.058 -23.233  0.00  0.00    -0.312 N 
ATOM      4  C   UNL     1      33.852 -11.358 -23.976  0.00  0.00    -0.055 C 
ATOM      5  C   UNL     1      32.287 -11.008 -22.187  0.00  0.00    -0.055 C 
ATOM      6  C   UNL     1      34.381  -9.928 -23.846  0.00  0.00    +0.068 C 
ATOM      7  C   UNL     1      32.762  -9.566 -21.998  0.00  0.00    +0.068 C 
ATOM      8  H   UNL     1      34.142 -11.838 -22.015  0.00  0.00    -0.080 HD
BRANCH   3  10
ATOM      9  S   UNL     1      31.434  -4.455 -22.425  0.00  0.00    -0.086 S 
ATOM     10  C   UNL     1      33.479  -7.678 -23.437  0.00  0.00    +0.048 C 
ATOM     11  C   UNL     1      32.524  -6.750 -22.908  0.00  0.00    +0.020 C 
ATOM     12  C   UNL     1      34.561  -7.170 -24.187  0.00  0.00    +0.015 C 
ATOM     13  C   UNL     1      32.693  -5.383 -23.151  0.00  0.00    +0.031 C 
ATOM     14  C   UNL     1      31.349  -6.995 -22.123  0.00  0.00    +0.009 C 
ATOM     15  C   UNL     1      34.708  -5.808 -24.416  0.00  0.00    +0.002 C 
ATOM     16  C   UNL     1      33.781  -4.897 -23.903  0.00  0.00    +0.007 C 
ATOM     17  C   UNL     1      30.673  -5.845 -21.797  0.00  0.00    +0.035 C 
ENDBRANCH   3  10
ENDBRANCH   1   2
BRANCH   1  18
ATOM     18  C   UNL     1      33.932 -14.066 -23.608  0.00  0.00    -0.019 C 
BRANCH  18  19
ATOM     19  C   UNL     1      34.572 -15.150 -22.743  0.00  0.00    +0.045 C 
BRANCH  19  20
ATOM     20  C   UNL     1      34.449 -16.526 -23.384  0.00  0.00    +0.205 C 
BRANCH  20  21
ATOM     21  O   UNL     1      35.674 -17.234 -23.245  0.00  0.00    -0.475 OA
BRANCH  21  24
ATOM     22  O   UNL     1      32.476 -21.927 -18.959  0.00  0.00    -0.270 OA
ATOM     23  N   UNL     1      33.494 -20.403 -20.352  0.00  0.00    -0.280 N 
ATOM     24  C   UNL     1      35.740 -18.163 -22.238  0.00  0.00    +0.140 C 
ATOM     25  C   UNL     1      34.581 -18.801 -21.816  0.00  0.00    +0.052 C 
ATOM     26  C   UNL     1      34.659 -19.747 -20.791  0.00  0.00    +0.054 C 
ATOM     27  C   UNL     1      36.968 -18.453 -21.653  0.00  0.00    +0.037 C 
ATOM     28  C   UNL     1      35.886 -20.050 -20.191  0.00  0.00    +0.014 C 
ATOM     29  C   UNL     1      37.044 -19.399 -20.627  0.00  0.00    +0.004 C 
ATOM     30  C   UNL     1      35.924 -21.045 -19.123  0.00  0.00    +0.006 C 
ATOM     31  C   UNL     1      33.489 -21.349 -19.346  0.00  0.00    +0.250 C 
ATOM     32  C   UNL     1      34.804 -21.657 -18.721  0.00  0.00    +0.058 C 
ATOM     33  H   UNL     1      32.639 -20.176 -20.785  0.00  0.00    +0.155 HD
ENDBRANCH  21  24
ENDBRANCH  20  21
ENDBRANCH  19  20
ENDBRANCH  18  19
ENDBRANCH   1  18
TORSDOF 7
ENDMDL
MODEL 9
REMARK VINA RESULT:     -10.9      4.201     10.879
REMARK  Name = 11978813
REMARK  7 active torsions:
REMARK  status: ('A' for Active; 'I' for Inactive)
REMARK    1  A    between atoms: C_1  and  N_2
REMARK    2  A    between atoms: C_1  and  C_18
REMARK    3  A    between atoms: N_3  and  C_10
REMARK    4  A    between atoms: C_18  and  C_19
REMARK    5  A    between atoms: C_19  and  C_20
REMARK    6  A    between atoms: C_20  and  O_21
REMARK    7  A    between atoms: O_21  and  C_24
REMARK                            x       y       z     vdW  Elec       q    Type
REMARK                         _______ _______ _______ _____ _____    ______ ____
ROOT
ATOM      1  C   UNL     1      35.692 -18.652 -22.145  0.00  0.00    -0.077 C 
ENDROOT
BRANCH   1   2
ATOM      2  N   UNL     1      35.374 -19.819 -21.324  0.00  0.00    +0.389 N 
ATOM      3  N   UNL     1      34.747 -21.222 -18.916  0.00  0.00    -0.312 N 
ATOM      4  C   UNL     1      36.399 -20.018 -20.292  0.00  0.00    -0.055 C 
ATOM      5  C   UNL     1      34.057 -19.666 -20.697  0.00  0.00    -0.055 C 
ATOM      6  C   UNL     1      36.108 -21.271 -19.463  0.00  0.00    +0.068 C 
ATOM      7  C   UNL     1      33.687 -20.906 -19.880  0.00  0.00    +0.068 C 
ATOM      8  H   UNL     1      35.356 -20.639 -21.932  0.00  0.00    -0.080 HD
BRANCH   3  10
ATOM      9  S   UNL     1      36.394 -23.316 -14.616  0.00  0.00    -0.086 S 
ATOM     10  C   UNL     1      34.457 -22.017 -17.802  0.00  0.00    +0.048 C 
ATOM     11  C   UNL     1      35.431 -22.303 -16.791  0.00  0.00    +0.020 C 
ATOM     12  C   UNL     1      33.163 -22.564 -17.656  0.00  0.00    +0.015 C 
ATOM     13  C   UNL     1      35.073 -23.106 -15.703  0.00  0.00    +0.031 C 
ATOM     14  C   UNL     1      36.799 -21.881 -16.695  0.00  0.00    +0.009 C 
ATOM     15  C   UNL     1      32.830 -23.358 -16.567  0.00  0.00    +0.002 C 
ATOM     16  C   UNL     1      33.775 -23.640 -15.578  0.00  0.00    +0.007 C 
ATOM     17  C   UNL     1      37.429 -22.357 -15.571  0.00  0.00    +0.035 C 
ENDBRANCH   3  10
ENDBRANCH   1   2
BRANCH   1  18
ATOM     18  C   UNL     1      34.615 -18.442 -23.209  0.00  0.00    -0.019 C 
BRANCH  18  19
ATOM     19  C   UNL     1      34.634 -17.008 -23.738  0.00  0.00    +0.045 C 
BRANCH  19  20
ATOM     20  C   UNL     1      35.044 -16.017 -22.657  0.00  0.00    +0.205 C 
BRANCH  20  21
ATOM     21  O   UNL     1      35.034 -14.697 -23.186  0.00  0.00    -0.475 OA
BRANCH  21  24
ATOM     22  O   UNL     1      31.838  -8.341 -23.114  0.00  0.00    -0.270 OA
ATOM     23  N   UNL     1      32.882 -10.393 -23.152  0.00  0.00    -0.280 N 
ATOM     24  C   UNL     1      34.190 -13.797 -22.588  0.00  0.00    +0.140 C 
ATOM     25  C   UNL     1      33.975 -12.560 -23.181  0.00  0.00    +0.052 C 
ATOM     26  C   UNL     1      33.112 -11.650 -22.564  0.00  0.00    +0.054 C 
ATOM     27  C   UNL     1      33.561 -14.136 -21.394  0.00  0.00    +0.037 C 
ATOM     28  C   UNL     1      32.472 -11.975 -21.364  0.00  0.00    +0.014 C 
ATOM     29  C   UNL     1      32.699 -13.225 -20.779  0.00  0.00    +0.004 C 
ATOM     30  C   UNL     1      31.577 -10.996 -20.751  0.00  0.00    +0.006 C 
ATOM     31  C   UNL     1      32.044  -9.441 -22.605  0.00  0.00    +0.250 C 
ATOM     32  C   UNL     1      31.373  -9.805 -21.329  0.00  0.00    +0.058 C 
ATOM     33  H   UNL     1      33.342 -10.181 -23.997  0.00  0.00    +0.155 HD
ENDBRANCH  21  24
ENDBRANCH  20  21
ENDBRANCH  19  20
ENDBRANCH  18  19
ENDBRANCH   1  18
TORSDOF 7
ENDMDL
