MODEL 1
REMARK VINA RESULT:     -11.2      0.000      0.000
REMARK  Name = 54766013
REMARK  5 active torsions:
REMARK  status: ('A' for Active; 'I' for Inactive)
REMARK    1  A    between atoms: C_3  and  C_11
REMARK    2  A    between atoms: C_4  and  C_18
REMARK    3  A    between atoms: C_5  and  C_24
REMARK    4  A    between atoms: C_24  and  N_25
REMARK    5  A    between atoms: N_25  and  C_28
REMARK                            x       y       z     vdW  Elec       q    Type
REMARK                         _______ _______ _______ _____ _____    ______ ____
ROOT
ATOM      1  N   UNL     1      36.921 -22.418 -16.238  0.00  0.00    -0.315 N 
ATOM      2  N   UNL     1      34.822 -22.366 -16.961  0.00  0.00    -0.317 N 
ATOM      3  C   UNL     1      34.887 -23.004 -15.749  0.00  0.00    +0.063 C 
ATOM      4  C   UNL     1      36.179 -23.048 -15.279  0.00  0.00    +0.085 C 
ATOM      5  C   UNL     1      36.064 -22.025 -17.228  0.00  0.00    +0.164 C 
ATOM      6  H   UNL     1      37.895 -22.272 -16.219  0.00  0.00    +0.148 HD
ATOM      7  H   UNL     1      34.022 -22.200 -17.511  0.00  0.00    +0.148 HD
ENDROOT
BRANCH   3  11
ATOM      8  N   UNL     1      31.313 -23.869 -15.112  0.00  0.00    -0.170 N 
ATOM      9  N   UNL     1      30.035 -23.798 -15.563  0.00  0.00    -0.150 NA
ATOM     10  N   UNL     1      30.100 -24.899 -13.562  0.00  0.00    -0.206 NA
ATOM     11  C   UNL     1      33.673 -23.542 -15.105  0.00  0.00    +0.031 C 
ATOM     12  C   UNL     1      32.477 -23.375 -15.708  0.00  0.00    +0.092 C 
ATOM     13  C   UNL     1      33.694 -24.247 -13.821  0.00  0.00    +0.006 C 
ATOM     14  C   UNL     1      31.322 -24.545 -13.889  0.00  0.00    +0.157 C 
ATOM     15  C   UNL     1      32.576 -24.723 -13.246  0.00  0.00    +0.036 C 
ATOM     16  C   UNL     1      29.361 -24.426 -14.602  0.00  0.00    +0.219 C 
ENDBRANCH   3  11
BRANCH   4  18
ATOM     17  N   UNL     1      37.246 -24.851 -14.211  0.00  0.00    -0.409 NA
ATOM     18  C   UNL     1      36.758 -23.598 -14.079  0.00  0.00    +0.127 C 
ATOM     19  C   UNL     1      36.800 -22.869 -12.901  0.00  0.00    +0.086 C 
ATOM     20  C   UNL     1      37.800 -25.399 -13.106  0.00  0.00    +0.109 C 
ATOM     21  C   UNL     1      37.378 -23.467 -11.787  0.00  0.00    -0.016 C 
ATOM     22  C   UNL     1      37.890 -24.755 -11.882  0.00  0.00    +0.023 C 
ATOM     23  C   UNL     1      38.338 -26.784 -13.245  0.00  0.00    +0.066 C 
ENDBRANCH   4  18
BRANCH   5  24
ATOM     24  C   UNL     1      36.547 -21.309 -18.423  0.00  0.00    +0.128 C 
BRANCH  24  25
ATOM     25  N   UNL     1      35.446 -20.781 -19.211  0.00  0.00    -0.328 N 
ATOM     26  H   UNL     1      34.529 -21.033 -18.959  0.00  0.00    +0.147 HD
BRANCH  25  28
ATOM     27  F   UNL     1      33.356 -20.246 -20.945  0.00  0.00    -0.203 F 
ATOM     28  C   UNL     1      35.621 -19.947 -20.297  0.00  0.00    +0.073 C 
ATOM     29  C   UNL     1      34.557 -19.689 -21.161  0.00  0.00    +0.153 C 
ATOM     30  C   UNL     1      36.866 -19.363 -20.532  0.00  0.00    +0.017 C 
ATOM     31  C   UNL     1      34.735 -18.847 -22.257  0.00  0.00    +0.031 C 
ATOM     32  C   UNL     1      37.045 -18.520 -21.629  0.00  0.00    +0.001 C 
ATOM     33  C   UNL     1      35.980 -18.261 -22.491  0.00  0.00    +0.002 C 
ENDBRANCH  25  28
ENDBRANCH  24  25
ENDBRANCH   5  24
TORSDOF 5
ENDMDL
MODEL 2
REMARK VINA RESULT:     -11.2      3.008      6.884
REMARK  Name = 54766013
REMARK  5 active torsions:
REMARK  status: ('A' for Active; 'I' for Inactive)
REMARK    1  A    between atoms: C_3  and  C_11
REMARK    2  A    between atoms: C_4  and  C_18
REMARK    3  A    between atoms: C_5  and  C_24
REMARK    4  A    between atoms: C_24  and  N_25
REMARK    5  A    between atoms: N_25  and  C_28
REMARK                            x       y       z     vdW  Elec       q    Type
REMARK                         _______ _______ _______ _____ _____    ______ ____
ROOT
ATOM      1  N   UNL     1      35.277 -23.686 -14.298  0.00  0.00    -0.315 N 
ATOM      2  N   UNL     1      33.594 -24.378 -13.025  0.00  0.00    -0.317 N 
ATOM      3  C   UNL     1      33.123 -23.963 -14.245  0.00  0.00    +0.063 C 
ATOM      4  C   UNL     1      34.149 -23.530 -15.052  0.00  0.00    +0.085 C 
ATOM      5  C   UNL     1      34.895 -24.198 -13.089  0.00  0.00    +0.164 C 
ATOM      6  H   UNL     1      36.197 -23.470 -14.573  0.00  0.00    +0.148 HD
ATOM      7  H   UNL     1      33.072 -24.732 -12.268  0.00  0.00    +0.148 HD
ENDROOT
BRANCH   3  11
ATOM      8  N   UNL     1      29.769 -23.043 -15.598  0.00  0.00    -0.170 N 
ATOM      9  N   UNL     1      29.046 -22.145 -16.312  0.00  0.00    -0.150 NA
ATOM     10  N   UNL     1      27.696 -23.843 -15.595  0.00  0.00    -0.206 NA
ATOM     11  C   UNL     1      31.683 -24.012 -14.562  0.00  0.00    +0.031 C 
ATOM     12  C   UNL     1      31.132 -23.020 -15.293  0.00  0.00    +0.092 C 
ATOM     13  C   UNL     1      30.801 -25.091 -14.108  0.00  0.00    +0.006 C 
ATOM     14  C   UNL     1      28.920 -24.067 -15.172  0.00  0.00    +0.157 C 
ATOM     15  C   UNL     1      29.488 -25.115 -14.399  0.00  0.00    +0.036 C 
ATOM     16  C   UNL     1      27.824 -22.673 -16.277  0.00  0.00    +0.219 C 
ENDBRANCH   3  11
BRANCH   4  18
ATOM     17  N   UNL     1      35.346 -22.442 -16.760  0.00  0.00    -0.409 NA
ATOM     18  C   UNL     1      34.174 -23.008 -16.396  0.00  0.00    +0.127 C 
ATOM     19  C   UNL     1      33.067 -23.101 -17.225  0.00  0.00    +0.086 C 
ATOM     20  C   UNL     1      35.408 -21.944 -18.015  0.00  0.00    +0.109 C 
ATOM     21  C   UNL     1      33.171 -22.577 -18.509  0.00  0.00    -0.016 C 
ATOM     22  C   UNL     1      34.360 -21.987 -18.920  0.00  0.00    +0.023 C 
ATOM     23  C   UNL     1      36.700 -21.316 -18.421  0.00  0.00    +0.066 C 
ENDBRANCH   4  18
BRANCH   5  24
ATOM     24  C   UNL     1      35.880 -24.488 -12.032  0.00  0.00    +0.128 C 
BRANCH  24  25
ATOM     25  N   UNL     1      36.478 -25.802 -12.205  0.00  0.00    -0.328 N 
ATOM     26  H   UNL     1      35.995 -26.584 -11.854  0.00  0.00    +0.147 HD
BRANCH  25  28
ATOM     27  F   UNL     1      36.898 -28.039 -13.779  0.00  0.00    -0.203 F 
ATOM     28  C   UNL     1      37.688 -26.009 -12.836  0.00  0.00    +0.073 C 
ATOM     29  C   UNL     1      37.882 -27.142 -13.625  0.00  0.00    +0.153 C 
ATOM     30  C   UNL     1      38.720 -25.082 -12.681  0.00  0.00    +0.017 C 
ATOM     31  C   UNL     1      39.105 -27.349 -14.261  0.00  0.00    +0.031 C 
ATOM     32  C   UNL     1      39.944 -25.289 -13.318  0.00  0.00    +0.001 C 
ATOM     33  C   UNL     1      40.137 -26.422 -14.108  0.00  0.00    +0.002 C 
ENDBRANCH  25  28
ENDBRANCH  24  25
ENDBRANCH   5  24
TORSDOF 5
ENDMDL
MODEL 3
REMARK VINA RESULT:     -11.2      1.541      5.078
REMARK  Name = 54766013
REMARK  5 active torsions:
REMARK  status: ('A' for Active; 'I' for Inactive)
REMARK    1  A    between atoms: C_3  and  C_11
REMARK    2  A    between atoms: C_4  and  C_18
REMARK    3  A    between atoms: C_5  and  C_24
REMARK    4  A    between atoms: C_24  and  N_25
REMARK    5  A    between atoms: N_25  and  C_28
REMARK                            x       y       z     vdW  Elec       q    Type
REMARK                         _______ _______ _______ _____ _____    ______ ____
ROOT
ATOM      1  N   UNL     1      32.759 -22.589 -17.244  0.00  0.00    -0.315 N 
ATOM      2  N   UNL     1      34.978 -22.574 -17.175  0.00  0.00    -0.317 N 
ATOM      3  C   UNL     1      34.475 -23.191 -16.057  0.00  0.00    +0.063 C 
ATOM      4  C   UNL     1      33.101 -23.212 -16.078  0.00  0.00    +0.085 C 
ATOM      5  C   UNL     1      33.918 -22.223 -17.869  0.00  0.00    +0.164 C 
ATOM      6  H   UNL     1      31.845 -22.432 -17.575  0.00  0.00    +0.148 HD
ATOM      7  H   UNL     1      35.924 -22.426 -17.406  0.00  0.00    +0.148 HD
ENDROOT
BRANCH   3  11
ATOM      8  N   UNL     1      36.824 -23.376 -13.163  0.00  0.00    -0.170 N 
ATOM      9  N   UNL     1      37.502 -22.686 -12.211  0.00  0.00    -0.150 NA
ATOM     10  N   UNL     1      37.945 -24.920 -12.024  0.00  0.00    -0.206 NA
ATOM     11  C   UNL     1      35.373 -23.732 -15.018  0.00  0.00    +0.031 C 
ATOM     12  C   UNL     1      35.964 -22.886 -14.149  0.00  0.00    +0.092 C 
ATOM     13  C   UNL     1      35.672 -25.161 -14.885  0.00  0.00    +0.006 C 
ATOM     14  C   UNL     1      37.114 -24.736 -13.025  0.00  0.00    +0.157 C 
ATOM     15  C   UNL     1      36.499 -25.635 -13.937  0.00  0.00    +0.036 C 
ATOM     16  C   UNL     1      38.149 -23.655 -11.566  0.00  0.00    +0.219 C 
ENDBRANCH   3  11
BRANCH   4  18
ATOM     17  N   UNL     1      30.864 -23.794 -15.642  0.00  0.00    -0.409 NA
ATOM     18  C   UNL     1      32.124 -23.734 -15.155  0.00  0.00    +0.127 C 
ATOM     19  C   UNL     1      32.482 -24.138 -13.879  0.00  0.00    +0.086 C 
ATOM     20  C   UNL     1      29.920 -24.282 -14.806  0.00  0.00    +0.109 C 
ATOM     21  C   UNL     1      31.483 -24.635 -13.049  0.00  0.00    -0.016 C 
ATOM     22  C   UNL     1      30.175 -24.712 -13.513  0.00  0.00    +0.023 C 
ATOM     23  C   UNL     1      28.527 -24.349 -15.338  0.00  0.00    +0.066 C 
ENDBRANCH   4  18
BRANCH   5  24
ATOM     24  C   UNL     1      33.903 -21.522 -19.166  0.00  0.00    +0.128 C 
BRANCH  24  25
ATOM     25  N   UNL     1      35.087 -20.696 -19.341  0.00  0.00    -0.328 N 
ATOM     26  H   UNL     1      35.772 -20.708 -18.635  0.00  0.00    +0.147 HD
BRANCH  25  28
ATOM     27  F   UNL     1      37.453 -19.295 -19.651  0.00  0.00    -0.203 F 
ATOM     28  C   UNL     1      35.298 -19.896 -20.445  0.00  0.00    +0.073 C 
ATOM     29  C   UNL     1      36.497 -19.197 -20.585  0.00  0.00    +0.153 C 
ATOM     30  C   UNL     1      34.308 -19.785 -21.423  0.00  0.00    +0.017 C 
ATOM     31  C   UNL     1      36.708 -18.389 -21.701  0.00  0.00    +0.031 C 
ATOM     32  C   UNL     1      34.520 -18.977 -22.541  0.00  0.00    +0.001 C 
ATOM     33  C   UNL     1      35.719 -18.278 -22.680  0.00  0.00    +0.002 C 
ENDBRANCH  25  28
ENDBRANCH  24  25
ENDBRANCH   5  24
TORSDOF 5
ENDMDL
MODEL 4
REMARK VINA RESULT:     -11.0      2.833      7.378
REMARK  Name = 54766013
REMARK  5 active torsions:
REMARK  status: ('A' for Active; 'I' for Inactive)
REMARK    1  A    between atoms: C_3  and  C_11
REMARK    2  A    between atoms: C_4  and  C_18
REMARK    3  A    between atoms: C_5  and  C_24
REMARK    4  A    between atoms: C_24  and  N_25
REMARK    5  A    between atoms: N_25  and  C_28
REMARK                            x       y       z     vdW  Elec       q    Type
REMARK                         _______ _______ _______ _____ _____    ______ ____
ROOT
ATOM      1  N   UNL     1      33.526 -22.951 -14.312  0.00  0.00    -0.315 N 
ATOM      2  N   UNL     1      34.095 -24.668 -13.024  0.00  0.00    -0.317 N 
ATOM      3  C   UNL     1      35.085 -24.417 -13.940  0.00  0.00    +0.063 C 
ATOM      4  C   UNL     1      34.755 -23.356 -14.750  0.00  0.00    +0.085 C 
ATOM      5  C   UNL     1      33.170 -23.767 -13.274  0.00  0.00    +0.164 C 
ATOM      6  H   UNL     1      32.994 -22.206 -14.676  0.00  0.00    +0.148 HD
ATOM      7  H   UNL     1      34.079 -25.368 -12.331  0.00  0.00    +0.148 HD
ENDROOT
BRANCH   3  11
ATOM      8  N   UNL     1      37.558 -27.038 -14.913  0.00  0.00    -0.170 N 
ATOM      9  N   UNL     1      37.832 -28.085 -15.731  0.00  0.00    -0.150 NA
ATOM     10  N   UNL     1      39.588 -27.715 -14.316  0.00  0.00    -0.206 NA
ATOM     11  C   UNL     1      36.313 -25.236 -13.977  0.00  0.00    +0.031 C 
ATOM     12  C   UNL     1      36.408 -26.245 -14.867  0.00  0.00    +0.092 C 
ATOM     13  C   UNL     1      37.447 -25.015 -13.075  0.00  0.00    +0.006 C 
ATOM     14  C   UNL     1      38.646 -26.835 -14.060  0.00  0.00    +0.157 C 
ATOM     15  C   UNL     1      38.555 -25.777 -13.118  0.00  0.00    +0.036 C 
ATOM     16  C   UNL     1      39.050 -28.445 -15.330  0.00  0.00    +0.219 C 
ENDBRANCH   3  11
BRANCH   4  18
ATOM     17  N   UNL     1      34.716 -22.590 -16.973  0.00  0.00    -0.409 NA
ATOM     18  C   UNL     1      35.445 -22.717 -15.842  0.00  0.00    +0.127 C 
ATOM     19  C   UNL     1      36.752 -22.274 -15.708  0.00  0.00    +0.086 C 
ATOM     20  C   UNL     1      35.330 -21.992 -18.019  0.00  0.00    +0.109 C 
ATOM     21  C   UNL     1      37.347 -21.663 -16.806  0.00  0.00    -0.016 C 
ATOM     22  C   UNL     1      36.630 -21.515 -17.987  0.00  0.00    +0.023 C 
ATOM     23  C   UNL     1      34.530 -21.852 -19.272  0.00  0.00    +0.066 C 
ENDBRANCH   4  18
BRANCH   5  24
ATOM     24  C   UNL     1      31.887 -23.597 -12.569  0.00  0.00    +0.128 C 
BRANCH  24  25
ATOM     25  N   UNL     1      30.854 -24.455 -13.124  0.00  0.00    -0.328 N 
ATOM     26  H   UNL     1      30.738 -25.354 -12.742  0.00  0.00    +0.147 HD
BRANCH  25  28
ATOM     27  F   UNL     1      29.717 -26.338 -14.804  0.00  0.00    -0.203 F 
ATOM     28  C   UNL     1      30.027 -24.073 -14.162  0.00  0.00    +0.073 C 
ATOM     29  C   UNL     1      29.463 -25.036 -14.999  0.00  0.00    +0.153 C 
ATOM     30  C   UNL     1      29.757 -22.720 -14.374  0.00  0.00    +0.017 C 
ATOM     31  C   UNL     1      28.629 -24.648 -16.046  0.00  0.00    +0.031 C 
ATOM     32  C   UNL     1      28.922 -22.332 -15.423  0.00  0.00    +0.001 C 
ATOM     33  C   UNL     1      28.358 -23.296 -16.258  0.00  0.00    +0.002 C 
ENDBRANCH  25  28
ENDBRANCH  24  25
ENDBRANCH   5  24
TORSDOF 5
ENDMDL
MODEL 5
REMARK VINA RESULT:     -10.8      1.560      5.150
REMARK  Name = 54766013
REMARK  5 active torsions:
REMARK  status: ('A' for Active; 'I' for Inactive)
REMARK    1  A    between atoms: C_3  and  C_11
REMARK    2  A    between atoms: C_4  and  C_18
REMARK    3  A    between atoms: C_5  and  C_24
REMARK    4  A    between atoms: C_24  and  N_25
REMARK    5  A    between atoms: N_25  and  C_28
REMARK                            x       y       z     vdW  Elec       q    Type
REMARK                         _______ _______ _______ _____ _____    ______ ____
ROOT
ATOM      1  N   UNL     1      32.442 -22.679 -17.805  0.00  0.00    -0.315 N 
ATOM      2  N   UNL     1      34.546 -22.759 -17.099  0.00  0.00    -0.317 N 
ATOM      3  C   UNL     1      33.702 -23.222 -16.121  0.00  0.00    +0.063 C 
ATOM      4  C   UNL     1      32.391 -23.182 -16.536  0.00  0.00    +0.085 C 
ATOM      5  C   UNL     1      33.756 -22.440 -18.100  0.00  0.00    +0.164 C 
ATOM      6  H   UNL     1      31.674 -22.518 -18.400  0.00  0.00    +0.148 HD
ATOM      7  H   UNL     1      35.527 -22.682 -17.059  0.00  0.00    +0.148 HD
ENDROOT
BRANCH   3  11
ATOM      8  N   UNL     1      35.865 -24.871 -13.566  0.00  0.00    -0.170 N 
ATOM      9  N   UNL     1      36.979 -25.612 -13.335  0.00  0.00    -0.150 NA
ATOM     10  N   UNL     1      35.927 -25.143 -11.361  0.00  0.00    -0.206 NA
ATOM     11  C   UNL     1      34.225 -23.684 -14.820  0.00  0.00    +0.031 C 
ATOM     12  C   UNL     1      35.357 -24.417 -14.786  0.00  0.00    +0.092 C 
ATOM     13  C   UNL     1      33.562 -23.397 -13.545  0.00  0.00    +0.006 C 
ATOM     14  C   UNL     1      35.243 -24.601 -12.344  0.00  0.00    +0.157 C 
ATOM     15  C   UNL     1      34.049 -23.833 -12.370  0.00  0.00    +0.036 C 
ATOM     16  C   UNL     1      36.963 -25.741 -12.010  0.00  0.00    +0.219 C 
ENDBRANCH   3  11
BRANCH   4  18
ATOM     17  N   UNL     1      30.073 -22.862 -16.311  0.00  0.00    -0.409 NA
ATOM     18  C   UNL     1      31.157 -23.551 -15.891  0.00  0.00    +0.127 C 
ATOM     19  C   UNL     1      31.118 -24.543 -14.923  0.00  0.00    +0.086 C 
ATOM     20  C   UNL     1      28.895 -23.183 -15.731  0.00  0.00    +0.109 C 
ATOM     21  C   UNL     1      29.888 -24.844 -14.350  0.00  0.00    -0.016 C 
ATOM     22  C   UNL     1      28.750 -24.157 -14.755  0.00  0.00    +0.023 C 
ATOM     23  C   UNL     1      27.694 -22.424 -16.190  0.00  0.00    +0.066 C 
ENDBRANCH   4  18
BRANCH   5  24
ATOM     24  C   UNL     1      34.162 -21.889 -19.406  0.00  0.00    +0.128 C 
BRANCH  24  25
ATOM     25  N   UNL     1      34.856 -20.620 -19.258  0.00  0.00    -0.328 N 
ATOM     26  H   UNL     1      35.027 -20.285 -18.349  0.00  0.00    +0.147 HD
BRANCH  25  28
ATOM     27  F   UNL     1      33.123 -19.932 -21.303  0.00  0.00    -0.203 F 
ATOM     28  C   UNL     1      35.287 -19.862 -20.328  0.00  0.00    +0.073 C 
ATOM     29  C   UNL     1      34.400 -19.525 -21.350  0.00  0.00    +0.153 C 
ATOM     30  C   UNL     1      36.614 -19.433 -20.387  0.00  0.00    +0.017 C 
ATOM     31  C   UNL     1      34.836 -18.759 -22.430  0.00  0.00    +0.031 C 
ATOM     32  C   UNL     1      37.051 -18.667 -21.468  0.00  0.00    +0.001 C 
ATOM     33  C   UNL     1      36.163 -18.329 -22.489  0.00  0.00    +0.002 C 
ENDBRANCH  25  28
ENDBRANCH  24  25
ENDBRANCH   5  24
TORSDOF 5
ENDMDL
MODEL 6
REMARK VINA RESULT:     -10.8      2.495      6.676
REMARK  Name = 54766013
REMARK  5 active torsions:
REMARK  status: ('A' for Active; 'I' for Inactive)
REMARK    1  A    between atoms: C_3  and  C_11
REMARK    2  A    between atoms: C_4  and  C_18
REMARK    3  A    between atoms: C_5  and  C_24
REMARK    4  A    between atoms: C_24  and  N_25
REMARK    5  A    between atoms: N_25  and  C_28
REMARK                            x       y       z     vdW  Elec       q    Type
REMARK                         _______ _______ _______ _____ _____    ______ ____
ROOT
ATOM      1  N   UNL     1      33.988 -24.797 -13.094  0.00  0.00    -0.315 N 
ATOM      2  N   UNL     1      33.255 -23.079 -14.295  0.00  0.00    -0.317 N 
ATOM      3  C   UNL     1      34.491 -23.474 -14.741  0.00  0.00    +0.063 C 
ATOM      4  C   UNL     1      34.966 -24.539 -14.012  0.00  0.00    +0.085 C 
ATOM      5  C   UNL     1      32.981 -23.897 -13.302  0.00  0.00    +0.164 C 
ATOM      6  H   UNL     1      34.005 -25.504 -12.408  0.00  0.00    +0.148 HD
ATOM      7  H   UNL     1      32.696 -22.346 -14.641  0.00  0.00    +0.148 HD
ENDROOT
BRANCH   3  11
ATOM      8  N   UNL     1      35.055 -21.902 -18.078  0.00  0.00    -0.170 N 
ATOM      9  N   UNL     1      34.517 -21.580 -19.282  0.00  0.00    -0.150 NA
ATOM     10  N   UNL     1      36.699 -20.906 -19.194  0.00  0.00    -0.206 NA
ATOM     11  C   UNL     1      35.149 -22.784 -15.868  0.00  0.00    +0.031 C 
ATOM     12  C   UNL     1      34.449 -22.546 -16.997  0.00  0.00    +0.092 C 
ATOM     13  C   UNL     1      36.548 -22.348 -15.830  0.00  0.00    +0.006 C 
ATOM     14  C   UNL     1      36.387 -21.480 -18.053  0.00  0.00    +0.157 C 
ATOM     15  C   UNL     1      37.133 -21.728 -16.871  0.00  0.00    +0.036 C 
ATOM     16  C   UNL     1      35.539 -20.992 -19.900  0.00  0.00    +0.219 C 
ENDBRANCH   3  11
BRANCH   4  18
ATOM     17  N   UNL     1      36.180 -26.289 -15.007  0.00  0.00    -0.409 NA
ATOM     18  C   UNL     1      36.188 -25.299 -14.087  0.00  0.00    +0.127 C 
ATOM     19  C   UNL     1      37.268 -25.009 -13.269  0.00  0.00    +0.086 C 
ATOM     20  C   UNL     1      37.311 -27.023 -15.109  0.00  0.00    +0.109 C 
ATOM     21  C   UNL     1      38.414 -25.786 -13.404  0.00  0.00    -0.016 C 
ATOM     22  C   UNL     1      38.444 -26.814 -14.339  0.00  0.00    +0.023 C 
ATOM     23  C   UNL     1      37.307 -28.120 -16.122  0.00  0.00    +0.066 C 
ENDBRANCH   4  18
BRANCH   5  24
ATOM     24  C   UNL     1      31.762 -23.902 -12.472  0.00  0.00    +0.128 C 
BRANCH  24  25
ATOM     25  N   UNL     1      30.694 -24.666 -13.096  0.00  0.00    -0.328 N 
ATOM     26  H   UNL     1      30.523 -25.579 -12.772  0.00  0.00    +0.147 HD
BRANCH  25  28
ATOM     27  F   UNL     1      29.776 -26.332 -15.107  0.00  0.00    -0.203 F 
ATOM     28  C   UNL     1      29.910 -24.176 -14.121  0.00  0.00    +0.073 C 
ATOM     29  C   UNL     1      29.456 -25.030 -15.126  0.00  0.00    +0.153 C 
ATOM     30  C   UNL     1      29.571 -22.822 -14.152  0.00  0.00    +0.017 C 
ATOM     31  C   UNL     1      28.664 -24.534 -16.160  0.00  0.00    +0.031 C 
ATOM     32  C   UNL     1      28.779 -22.325 -15.187  0.00  0.00    +0.001 C 
ATOM     33  C   UNL     1      28.325 -23.180 -16.191  0.00  0.00    +0.002 C 
ENDBRANCH  25  28
ENDBRANCH  24  25
ENDBRANCH   5  24
TORSDOF 5
ENDMDL
MODEL 7
REMARK VINA RESULT:     -10.7      2.810      7.828
REMARK  Name = 54766013
REMARK  5 active torsions:
REMARK  status: ('A' for Active; 'I' for Inactive)
REMARK    1  A    between atoms: C_3  and  C_11
REMARK    2  A    between atoms: C_4  and  C_18
REMARK    3  A    between atoms: C_5  and  C_24
REMARK    4  A    between atoms: C_24  and  N_25
REMARK    5  A    between atoms: N_25  and  C_28
REMARK                            x       y       z     vdW  Elec       q    Type
REMARK                         _______ _______ _______ _____ _____    ______ ____
ROOT
ATOM      1  N   UNL     1      34.049 -24.435 -12.698  0.00  0.00    -0.315 N 
ATOM      2  N   UNL     1      35.787 -23.986 -14.006  0.00  0.00    -0.317 N 
ATOM      3  C   UNL     1      34.619 -23.634 -14.635  0.00  0.00    +0.063 C 
ATOM      4  C   UNL     1      33.528 -23.902 -13.842  0.00  0.00    +0.085 C 
ATOM      5  C   UNL     1      35.409 -24.466 -12.841  0.00  0.00    +0.164 C 
ATOM      6  H   UNL     1      33.540 -24.740 -11.912  0.00  0.00    +0.148 HD
ATOM      7  H   UNL     1      36.705 -23.900 -14.351  0.00  0.00    +0.148 HD
ENDROOT
BRANCH   3  11
ATOM      8  N   UNL     1      35.756 -21.812 -17.687  0.00  0.00    -0.170 N 
ATOM      9  N   UNL     1      36.758 -21.115 -18.280  0.00  0.00    -0.150 NA
ATOM     10  N   UNL     1      34.972 -21.277 -19.696  0.00  0.00    -0.206 NA
ATOM     11  C   UNL     1      34.631 -23.047 -15.989  0.00  0.00    +0.031 C 
ATOM     12  C   UNL     1      35.727 -22.382 -16.412  0.00  0.00    +0.092 C 
ATOM     13  C   UNL     1      33.494 -23.139 -16.910  0.00  0.00    +0.006 C 
ATOM     14  C   UNL     1      34.679 -21.895 -18.573  0.00  0.00    +0.157 C 
ATOM     15  C   UNL     1      33.520 -22.590 -18.138  0.00  0.00    +0.036 C 
ATOM     16  C   UNL     1      36.234 -20.824 -19.470  0.00  0.00    +0.219 C 
ENDBRANCH   3  11
BRANCH   4  18
ATOM     17  N   UNL     1      31.408 -24.863 -14.182  0.00  0.00    -0.409 NA
ATOM     18  C   UNL     1      32.113 -23.718 -14.044  0.00  0.00    +0.127 C 
ATOM     19  C   UNL     1      31.550 -22.451 -14.084  0.00  0.00    +0.086 C 
ATOM     20  C   UNL     1      30.076 -24.730 -14.370  0.00  0.00    +0.109 C 
ATOM     21  C   UNL     1      30.176 -22.356 -14.279  0.00  0.00    -0.016 C 
ATOM     22  C   UNL     1      29.418 -23.512 -14.425  0.00  0.00    +0.023 C 
ATOM     23  C   UNL     1      29.294 -25.992 -14.524  0.00  0.00    +0.066 C 
ENDBRANCH   4  18
BRANCH   5  24
ATOM     24  C   UNL     1      36.282 -24.987 -11.775  0.00  0.00    +0.128 C 
BRANCH  24  25
ATOM     25  N   UNL     1      36.887 -26.254 -12.151  0.00  0.00    -0.328 N 
ATOM     26  H   UNL     1      36.434 -27.086 -11.883  0.00  0.00    +0.147 HD
BRANCH  25  28
ATOM     27  F   UNL     1      37.456 -28.505 -13.658  0.00  0.00    -0.203 F 
ATOM     28  C   UNL     1      38.064 -26.351 -12.866  0.00  0.00    +0.073 C 
ATOM     29  C   UNL     1      38.335 -27.493 -13.619  0.00  0.00    +0.153 C 
ATOM     30  C   UNL     1      38.986 -25.304 -12.831  0.00  0.00    +0.017 C 
ATOM     31  C   UNL     1      39.524 -27.589 -14.340  0.00  0.00    +0.031 C 
ATOM     32  C   UNL     1      40.177 -25.400 -13.552  0.00  0.00    +0.001 C 
ATOM     33  C   UNL     1      40.446 -26.542 -14.306  0.00  0.00    +0.002 C 
ENDBRANCH  25  28
ENDBRANCH  24  25
ENDBRANCH   5  24
TORSDOF 5
ENDMDL
MODEL 8
REMARK VINA RESULT:     -10.6      1.243      4.537
REMARK  Name = 54766013
REMARK  5 active torsions:
REMARK  status: ('A' for Active; 'I' for Inactive)
REMARK    1  A    between atoms: C_3  and  C_11
REMARK    2  A    between atoms: C_4  and  C_18
REMARK    3  A    between atoms: C_5  and  C_24
REMARK    4  A    between atoms: C_24  and  N_25
REMARK    5  A    between atoms: N_25  and  C_28
REMARK                            x       y       z     vdW  Elec       q    Type
REMARK                         _______ _______ _______ _____ _____    ______ ____
ROOT
ATOM      1  N   UNL     1      34.460 -22.210 -17.272  0.00  0.00    -0.315 N 
ATOM      2  N   UNL     1      36.476 -22.565 -16.413  0.00  0.00    -0.317 N 
ATOM      3  C   UNL     1      35.515 -23.110 -15.600  0.00  0.00    +0.063 C 
ATOM      4  C   UNL     1      34.255 -22.902 -16.113  0.00  0.00    +0.085 C 
ATOM      5  C   UNL     1      35.808 -22.030 -17.412  0.00  0.00    +0.164 C 
ATOM      6  H   UNL     1      33.764 -21.898 -17.895  0.00  0.00    +0.148 HD
ATOM      7  H   UNL     1      37.452 -22.572 -16.279  0.00  0.00    +0.148 HD
ENDROOT
BRANCH   3  11
ATOM      8  N   UNL     1      36.764 -25.731 -13.256  0.00  0.00    -0.170 N 
ATOM      9  N   UNL     1      37.311 -26.966 -13.129  0.00  0.00    -0.150 NA
ATOM     10  N   UNL     1      36.982 -26.039 -11.066  0.00  0.00    -0.206 NA
ATOM     11  C   UNL     1      35.880 -23.811 -14.354  0.00  0.00    +0.031 C 
ATOM     12  C   UNL     1      36.419 -25.046 -14.424  0.00  0.00    +0.092 C 
ATOM     13  C   UNL     1      35.673 -23.233 -13.022  0.00  0.00    +0.006 C 
ATOM     14  C   UNL     1      36.574 -25.190 -11.982  0.00  0.00    +0.157 C 
ATOM     15  C   UNL     1      36.005 -23.891 -11.897  0.00  0.00    +0.036 C 
ATOM     16  C   UNL     1      37.418 -27.094 -11.808  0.00  0.00    +0.219 C 
ENDBRANCH   3  11
BRANCH   4  18
ATOM     17  N   UNL     1      32.933 -23.961 -14.481  0.00  0.00    -0.409 NA
ATOM     18  C   UNL     1      32.944 -23.272 -15.644  0.00  0.00    +0.127 C 
ATOM     19  C   UNL     1      31.803 -22.927 -16.352  0.00  0.00    +0.086 C 
ATOM     20  C   UNL     1      31.719 -24.322 -14.008  0.00  0.00    +0.109 C 
ATOM     21  C   UNL     1      30.573 -23.317 -15.832  0.00  0.00    -0.016 C 
ATOM     22  C   UNL     1      30.521 -24.027 -14.639  0.00  0.00    +0.023 C 
ATOM     23  C   UNL     1      31.702 -25.085 -12.725  0.00  0.00    +0.066 C 
ENDBRANCH   4  18
BRANCH   5  24
ATOM     24  C   UNL     1      36.371 -21.313 -18.570  0.00  0.00    +0.128 C 
BRANCH  24  25
ATOM     25  N   UNL     1      35.326 -20.789 -19.434  0.00  0.00    -0.328 N 
ATOM     26  H   UNL     1      34.402 -21.090 -19.283  0.00  0.00    +0.147 HD
BRANCH  25  28
ATOM     27  F   UNL     1      33.319 -20.079 -21.202  0.00  0.00    -0.203 F 
ATOM     28  C   UNL     1      35.565 -19.891 -20.455  0.00  0.00    +0.073 C 
ATOM     29  C   UNL     1      34.541 -19.545 -21.337  0.00  0.00    +0.153 C 
ATOM     30  C   UNL     1      36.834 -19.330 -20.605  0.00  0.00    +0.017 C 
ATOM     31  C   UNL     1      34.784 -18.639 -22.368  0.00  0.00    +0.031 C 
ATOM     32  C   UNL     1      37.077 -18.422 -21.637  0.00  0.00    +0.001 C 
ATOM     33  C   UNL     1      36.053 -18.077 -22.518  0.00  0.00    +0.002 C 
ENDBRANCH  25  28
ENDBRANCH  24  25
ENDBRANCH   5  24
TORSDOF 5
ENDMDL
MODEL 9
REMARK VINA RESULT:     -10.0     10.578     15.945
REMARK  Name = 54766013
REMARK  5 active torsions:
REMARK  status: ('A' for Active; 'I' for Inactive)
REMARK    1  A    between atoms: C_3  and  C_11
REMARK    2  A    between atoms: C_4  and  C_18
REMARK    3  A    between atoms: C_5  and  C_24
REMARK    4  A    between atoms: C_24  and  N_25
REMARK    5  A    between atoms: N_25  and  C_28
REMARK                            x       y       z     vdW  Elec       q    Type
REMARK                         _______ _______ _______ _____ _____    ______ ____
ROOT
ATOM      1  N   UNL     1      33.008 -11.400 -22.826  0.00  0.00    -0.315 N 
ATOM      2  N   UNL     1      33.603 -10.215 -24.607  0.00  0.00    -0.317 N 
ATOM      3  C   UNL     1      33.225  -9.378 -23.588  0.00  0.00    +0.063 C 
ATOM      4  C   UNL     1      32.852 -10.090 -22.472  0.00  0.00    +0.085 C 
ATOM      5  C   UNL     1      33.460 -11.426 -24.116  0.00  0.00    +0.164 C 
ATOM      6  H   UNL     1      32.828 -12.183 -22.256  0.00  0.00    +0.148 HD
ATOM      7  H   UNL     1      33.912  -9.965 -25.508  0.00  0.00    +0.148 HD
ENDROOT
BRANCH   3  11
ATOM      8  N   UNL     1      32.083  -5.851 -24.021  0.00  0.00    -0.170 N 
ATOM      9  N   UNL     1      31.022  -5.012 -24.131  0.00  0.00    -0.150 NA
ATOM     10  N   UNL     1      32.974  -3.830 -24.264  0.00  0.00    -0.206 NA
ATOM     11  C   UNL     1      33.249  -7.912 -23.759  0.00  0.00    +0.031 C 
ATOM     12  C   UNL     1      32.083  -7.238 -23.850  0.00  0.00    +0.092 C 
ATOM     13  C   UNL     1      34.491  -7.138 -23.850  0.00  0.00    +0.006 C 
ATOM     14  C   UNL     1      33.260  -5.103 -24.107  0.00  0.00    +0.157 C 
ATOM     15  C   UNL     1      34.492  -5.803 -24.014  0.00  0.00    +0.036 C 
ATOM     16  C   UNL     1      31.613  -3.827 -24.273  0.00  0.00    +0.219 C 
ENDBRANCH   3  11
BRANCH   4  18
ATOM     17  N   UNL     1      32.663  -8.399 -20.849  0.00  0.00    -0.409 NA
ATOM     18  C   UNL     1      32.386  -9.682 -21.171  0.00  0.00    +0.127 C 
ATOM     19  C   UNL     1      31.706 -10.561 -20.341  0.00  0.00    +0.086 C 
ATOM     20  C   UNL     1      32.238  -7.979 -19.636  0.00  0.00    +0.109 C 
ATOM     21  C   UNL     1      31.285 -10.091 -19.102  0.00  0.00    -0.016 C 
ATOM     22  C   UNL     1      31.552  -8.777 -18.735  0.00  0.00    +0.023 C 
ATOM     23  C   UNL     1      32.544  -6.563 -19.275  0.00  0.00    +0.066 C 
ENDBRANCH   4  18
BRANCH   5  24
ATOM     24  C   UNL     1      33.734 -12.699 -24.808  0.00  0.00    +0.128 C 
BRANCH  24  25
ATOM     25  N   UNL     1      33.128 -13.825 -24.116  0.00  0.00    -0.328 N 
ATOM     26  H   UNL     1      32.169 -13.778 -23.900  0.00  0.00    +0.147 HD
BRANCH  25  28
ATOM     27  F   UNL     1      34.514 -13.917 -21.722  0.00  0.00    -0.203 F 
ATOM     28  C   UNL     1      33.829 -14.955 -23.745  0.00  0.00    +0.073 C 
ATOM     29  C   UNL     1      34.522 -14.983 -22.535  0.00  0.00    +0.153 C 
ATOM     30  C   UNL     1      33.845 -16.070 -24.584  0.00  0.00    +0.017 C 
ATOM     31  C   UNL     1      35.230 -16.125 -22.163  0.00  0.00    +0.031 C 
ATOM     32  C   UNL     1      34.553 -17.213 -24.212  0.00  0.00    +0.001 C 
ATOM     33  C   UNL     1      35.245 -17.241 -23.001  0.00  0.00    +0.002 C 
ENDBRANCH  25  28
ENDBRANCH  24  25
ENDBRANCH   5  24
TORSDOF 5
ENDMDL
