MODEL 1
REMARK VINA RESULT:     -11.9      0.000      0.000
REMARK  Name = 24864821
REMARK  5 active torsions:
REMARK  status: ('A' for Active; 'I' for Inactive)
REMARK    1  A    between atoms: C_5  and  C_16
REMARK    2  A    between atoms: C_7  and  C_10
REMARK    3  A    between atoms: C_16  and  O_17
REMARK    4  A    between atoms: O_17  and  C_20
REMARK    5  A    between atoms: C_25  and  O_28
REMARK                            x       y       z     vdW  Elec       q    Type
REMARK                         _______ _______ _______ _____ _____    ______ ____
ROOT
ATOM      1  N   UNL     1      36.356 -22.977 -15.304  0.00  0.00    -0.191 N 
ATOM      2  N   UNL     1      35.021 -22.760 -15.407  0.00  0.00    -0.163 NA
ATOM      3  N   UNL     1      38.519 -22.792 -15.606  0.00  0.00    -0.128 NA
ATOM      4  N   UNL     1      38.296 -23.802 -14.693  0.00  0.00    -0.127 NA
ATOM      5  C   UNL     1      37.349 -22.310 -15.961  0.00  0.00    +0.208 A 
ATOM      6  C   UNL     1      36.997 -23.906 -14.518  0.00  0.00    +0.186 A 
ATOM      7  C   UNL     1      34.302 -23.543 -14.653  0.00  0.00    +0.101 C 
ATOM      8  C   UNL     1      36.192 -24.750 -13.727  0.00  0.00    +0.042 C 
ATOM      9  C   UNL     1      34.861 -24.610 -13.761  0.00  0.00    +0.024 C 
ENDROOT
BRANCH   7  10
ATOM     10  C   UNL     1      32.822 -23.401 -14.673  0.00  0.00    +0.019 C 
ATOM     11  C   UNL     1      32.164 -23.124 -15.871  0.00  0.00    +0.002 C 
ATOM     12  C   UNL     1      32.092 -23.546 -13.494  0.00  0.00    +0.002 C 
ATOM     13  C   UNL     1      30.776 -22.993 -15.890  0.00  0.00    +0.000 C 
ATOM     14  C   UNL     1      30.704 -23.415 -13.512  0.00  0.00    +0.000 C 
ATOM     15  C   UNL     1      30.045 -23.138 -14.710  0.00  0.00    +0.000 C 
ENDBRANCH   7  10
BRANCH   5  16
ATOM     16  C   UNL     1      37.086 -21.197 -16.933  0.00  0.00    +0.272 C 
BRANCH  16  17
ATOM     17  O   UNL     1      36.855 -21.755 -18.226  0.00  0.00    -0.467 OA
BRANCH  17  20
ATOM     18  N   UNL     1      33.321 -20.687 -20.113  0.00  0.00    -0.248 NA
ATOM     19  C   UNL     1      35.695 -20.384 -19.839  0.00  0.00    +0.030 C 
ATOM     20  C   UNL     1      35.705 -21.387 -18.859  0.00  0.00    +0.138 C 
ATOM     21  C   UNL     1      34.465 -20.061 -20.448  0.00  0.00    +0.066 C 
ATOM     22  C   UNL     1      36.870 -19.710 -20.213  0.00  0.00    +0.059 C 
ATOM     23  C   UNL     1      34.456 -19.065 -21.420  0.00  0.00    +0.109 C 
ATOM     24  C   UNL     1      34.527 -22.034 -18.512  0.00  0.00    +0.057 C 
ATOM     25  C   UNL     1      35.624 -18.395 -21.792  0.00  0.00    +0.118 C 
ATOM     26  C   UNL     1      36.833 -18.717 -21.187  0.00  0.00    +0.011 C 
ATOM     27  C   UNL     1      33.372 -21.650 -19.164  0.00  0.00    +0.102 C 
BRANCH  25  28
ATOM     28  O   UNL     1      35.577 -17.427 -22.748  0.00  0.00    -0.476 OA
ATOM     29  C   UNL     1      34.631 -17.601 -23.802  0.00  0.00    +0.252 C 
ENDBRANCH  25  28
ENDBRANCH  17  20
ENDBRANCH  16  17
ENDBRANCH   5  16
TORSDOF 5
ENDMDL
MODEL 2
REMARK VINA RESULT:     -11.4      5.770      9.668
REMARK  Name = 24864821
REMARK  5 active torsions:
REMARK  status: ('A' for Active; 'I' for Inactive)
REMARK    1  A    between atoms: C_5  and  C_16
REMARK    2  A    between atoms: C_7  and  C_10
REMARK    3  A    between atoms: C_16  and  O_17
REMARK    4  A    between atoms: O_17  and  C_20
REMARK    5  A    between atoms: C_25  and  O_28
REMARK                            x       y       z     vdW  Elec       q    Type
REMARK                         _______ _______ _______ _____ _____    ______ ____
ROOT
ATOM      1  N   UNL     1      34.590 -17.091 -23.017  0.00  0.00    -0.191 N 
ATOM      2  N   UNL     1      34.815 -17.759 -21.858  0.00  0.00    -0.163 NA
ATOM      3  N   UNL     1      34.320 -15.459 -24.454  0.00  0.00    -0.128 NA
ATOM      4  N   UNL     1      34.182 -16.655 -25.129  0.00  0.00    -0.127 NA
ATOM      5  C   UNL     1      34.563 -15.739 -23.194  0.00  0.00    +0.208 A 
ATOM      6  C   UNL     1      34.346 -17.628 -24.260  0.00  0.00    +0.186 A 
ATOM      7  C   UNL     1      34.792 -19.056 -21.985  0.00  0.00    +0.101 C 
ATOM      8  C   UNL     1      34.310 -19.032 -24.363  0.00  0.00    +0.042 C 
ATOM      9  C   UNL     1      34.522 -19.777 -23.270  0.00  0.00    +0.024 C 
ENDROOT
BRANCH   7  10
ATOM     10  C   UNL     1      35.030 -19.901 -20.785  0.00  0.00    +0.019 C 
ATOM     11  C   UNL     1      33.958 -20.523 -20.147  0.00  0.00    +0.002 C 
ATOM     12  C   UNL     1      36.326 -20.073 -20.299  0.00  0.00    +0.002 C 
ATOM     13  C   UNL     1      34.182 -21.317 -19.022  0.00  0.00    +0.000 C 
ATOM     14  C   UNL     1      36.550 -20.866 -19.175  0.00  0.00    +0.000 C 
ATOM     15  C   UNL     1      35.478 -21.489 -18.535  0.00  0.00    +0.000 C 
ENDBRANCH   7  10
BRANCH   5  16
ATOM     16  C   UNL     1      34.786 -14.761 -22.077  0.00  0.00    +0.272 C 
BRANCH  16  17
ATOM     17  O   UNL     1      34.515 -13.444 -22.553  0.00  0.00    -0.467 OA
BRANCH  17  20
ATOM     18  N   UNL     1      31.429 -11.430 -20.651  0.00  0.00    -0.248 NA
ATOM     19  C   UNL     1      33.126 -11.479 -22.361  0.00  0.00    +0.030 C 
ATOM     20  C   UNL     1      33.503 -12.763 -21.942  0.00  0.00    +0.138 C 
ATOM     21  C   UNL     1      32.070 -10.841 -21.678  0.00  0.00    +0.066 C 
ATOM     22  C   UNL     1      33.773 -10.834 -23.429  0.00  0.00    +0.059 C 
ATOM     23  C   UNL     1      31.696  -9.566 -22.094  0.00  0.00    +0.109 C 
ATOM     24  C   UNL     1      32.845 -13.373 -20.884  0.00  0.00    +0.057 C 
ATOM     25  C   UNL     1      32.338  -8.925 -23.156  0.00  0.00    +0.118 C 
ATOM     26  C   UNL     1      33.378  -9.560 -23.824  0.00  0.00    +0.011 C 
ATOM     27  C   UNL     1      31.823 -12.670 -20.278  0.00  0.00    +0.102 C 
BRANCH  25  28
ATOM     28  O   UNL     1      31.944  -7.679 -23.536  0.00  0.00    -0.476 OA
ATOM     29  C   UNL     1      31.198  -6.917 -22.587  0.00  0.00    +0.252 C 
ENDBRANCH  25  28
ENDBRANCH  17  20
ENDBRANCH  16  17
ENDBRANCH   5  16
TORSDOF 5
ENDMDL
MODEL 3
REMARK VINA RESULT:     -11.1      8.717     14.111
REMARK  Name = 24864821
REMARK  5 active torsions:
REMARK  status: ('A' for Active; 'I' for Inactive)
REMARK    1  A    between atoms: C_5  and  C_16
REMARK    2  A    between atoms: C_7  and  C_10
REMARK    3  A    between atoms: C_16  and  O_17
REMARK    4  A    between atoms: O_17  and  C_20
REMARK    5  A    between atoms: C_25  and  O_28
REMARK                            x       y       z     vdW  Elec       q    Type
REMARK                         _______ _______ _______ _____ _____    ______ ____
ROOT
ATOM      1  N   UNL     1      32.200  -9.222 -21.011  0.00  0.00    -0.191 N 
ATOM      2  N   UNL     1      32.497  -8.564 -22.159  0.00  0.00    -0.163 NA
ATOM      3  N   UNL     1      31.699 -10.832 -19.611  0.00  0.00    -0.128 NA
ATOM      4  N   UNL     1      31.798  -9.656 -18.897  0.00  0.00    -0.127 NA
ATOM      5  C   UNL     1      31.942 -10.555 -20.872  0.00  0.00    +0.208 A 
ATOM      6  C   UNL     1      32.099  -8.696 -19.745  0.00  0.00    +0.186 A 
ATOM      7  C   UNL     1      32.708  -7.288 -21.994  0.00  0.00    +0.101 C 
ATOM      8  C   UNL     1      32.314  -7.311 -19.600  0.00  0.00    +0.042 C 
ATOM      9  C   UNL     1      32.614  -6.576 -20.678  0.00  0.00    +0.024 C 
ENDROOT
BRANCH   7  10
ATOM     10  C   UNL     1      33.047  -6.455 -23.178  0.00  0.00    +0.019 C 
ATOM     11  C   UNL     1      32.031  -5.884 -23.943  0.00  0.00    +0.002 C 
ATOM     12  C   UNL     1      34.382  -6.245 -23.522  0.00  0.00    +0.002 C 
ATOM     13  C   UNL     1      32.350  -5.102 -25.052  0.00  0.00    +0.000 C 
ATOM     14  C   UNL     1      34.701  -5.463 -24.631  0.00  0.00    +0.000 C 
ATOM     15  C   UNL     1      33.686  -4.891 -25.398  0.00  0.00    +0.000 C 
ENDBRANCH   7  10
BRANCH   5  16
ATOM     16  C   UNL     1      31.949 -11.516 -22.025  0.00  0.00    +0.272 C 
BRANCH  16  17
ATOM     17  O   UNL     1      33.272 -12.019 -22.202  0.00  0.00    -0.467 OA
BRANCH  17  20
ATOM     18  N   UNL     1      33.859 -14.560 -25.425  0.00  0.00    -0.248 NA
ATOM     19  C   UNL     1      34.014 -14.151 -23.056  0.00  0.00    +0.030 C 
ATOM     20  C   UNL     1      33.474 -12.871 -23.247  0.00  0.00    +0.138 C 
ATOM     21  C   UNL     1      34.192 -14.973 -24.188  0.00  0.00    +0.066 C 
ATOM     22  C   UNL     1      34.372 -14.615 -21.779  0.00  0.00    +0.059 C 
ATOM     23  C   UNL     1      34.728 -16.243 -23.998  0.00  0.00    +0.109 C 
ATOM     24  C   UNL     1      33.131 -12.442 -24.521  0.00  0.00    +0.057 C 
ATOM     25  C   UNL     1      35.084 -16.705 -22.728  0.00  0.00    +0.118 C 
ATOM     26  C   UNL     1      34.906 -15.890 -21.617  0.00  0.00    +0.011 C 
ATOM     27  C   UNL     1      33.341 -13.318 -25.568  0.00  0.00    +0.102 C 
BRANCH  25  28
ATOM     28  O   UNL     1      35.604 -17.954 -22.581  0.00  0.00    -0.476 OA
ATOM     29  C   UNL     1      34.728 -19.055 -22.822  0.00  0.00    +0.252 C 
ENDBRANCH  25  28
ENDBRANCH  17  20
ENDBRANCH  16  17
ENDBRANCH   5  16
TORSDOF 5
ENDMDL
MODEL 4
REMARK VINA RESULT:     -10.7      1.823      4.322
REMARK  Name = 24864821
REMARK  5 active torsions:
REMARK  status: ('A' for Active; 'I' for Inactive)
REMARK    1  A    between atoms: C_5  and  C_16
REMARK    2  A    between atoms: C_7  and  C_10
REMARK    3  A    between atoms: C_16  and  O_17
REMARK    4  A    between atoms: O_17  and  C_20
REMARK    5  A    between atoms: C_25  and  O_28
REMARK                            x       y       z     vdW  Elec       q    Type
REMARK                         _______ _______ _______ _____ _____    ______ ____
ROOT
ATOM      1  N   UNL     1      33.797 -22.836 -16.850  0.00  0.00    -0.191 N 
ATOM      2  N   UNL     1      34.942 -23.181 -16.210  0.00  0.00    -0.163 NA
ATOM      3  N   UNL     1      32.414 -22.139 -18.400  0.00  0.00    -0.128 NA
ATOM      4  N   UNL     1      31.675 -22.482 -17.286  0.00  0.00    -0.127 NA
ATOM      5  C   UNL     1      33.679 -22.356 -18.121  0.00  0.00    +0.208 A 
ATOM      6  C   UNL     1      32.513 -22.899 -16.362  0.00  0.00    +0.186 A 
ATOM      7  C   UNL     1      34.755 -23.620 -14.997  0.00  0.00    +0.101 C 
ATOM      8  C   UNL     1      32.343 -23.361 -15.042  0.00  0.00    +0.042 C 
ATOM      9  C   UNL     1      33.417 -23.726 -14.330  0.00  0.00    +0.024 C 
ENDROOT
BRANCH   7  10
ATOM     10  C   UNL     1      35.934 -24.034 -14.192  0.00  0.00    +0.019 C 
ATOM     11  C   UNL     1      36.674 -25.156 -14.564  0.00  0.00    +0.002 C 
ATOM     12  C   UNL     1      36.302 -23.299 -13.065  0.00  0.00    +0.002 C 
ATOM     13  C   UNL     1      37.781 -25.543 -13.810  0.00  0.00    +0.000 C 
ATOM     14  C   UNL     1      37.409 -23.686 -12.311  0.00  0.00    +0.000 C 
ATOM     15  C   UNL     1      38.150 -24.808 -12.683  0.00  0.00    +0.000 C 
ENDBRANCH   7  10
BRANCH   5  16
ATOM     16  C   UNL     1      34.856 -22.132 -19.025  0.00  0.00    +0.272 C 
BRANCH  16  17
ATOM     17  O   UNL     1      34.474 -21.241 -20.072  0.00  0.00    -0.467 OA
BRANCH  17  20
ATOM     18  N   UNL     1      37.207 -18.267 -21.007  0.00  0.00    -0.248 NA
ATOM     19  C   UNL     1      35.147 -19.415 -21.499  0.00  0.00    +0.030 C 
ATOM     20  C   UNL     1      35.359 -20.256 -20.398  0.00  0.00    +0.138 C 
ATOM     21  C   UNL     1      36.110 -18.420 -21.771  0.00  0.00    +0.066 C 
ATOM     22  C   UNL     1      34.013 -19.546 -22.318  0.00  0.00    +0.059 C 
ATOM     23  C   UNL     1      35.898 -17.585 -22.865  0.00  0.00    +0.109 C 
ATOM     24  C   UNL     1      36.490 -20.101 -19.609  0.00  0.00    +0.057 C 
ATOM     25  C   UNL     1      34.771 -17.715 -23.678  0.00  0.00    +0.118 C 
ATOM     26  C   UNL     1      33.826 -18.698 -23.405  0.00  0.00    +0.011 C 
ATOM     27  C   UNL     1      37.376 -19.099 -19.954  0.00  0.00    +0.102 C 
BRANCH  25  28
ATOM     28  O   UNL     1      34.597 -16.879 -24.738  0.00  0.00    -0.476 OA
ATOM     29  C   UNL     1      34.112 -15.567 -24.457  0.00  0.00    +0.252 C 
ENDBRANCH  25  28
ENDBRANCH  17  20
ENDBRANCH  16  17
ENDBRANCH   5  16
TORSDOF 5
ENDMDL
MODEL 5
REMARK VINA RESULT:     -10.7      3.187      5.436
REMARK  Name = 24864821
REMARK  5 active torsions:
REMARK  status: ('A' for Active; 'I' for Inactive)
REMARK    1  A    between atoms: C_5  and  C_16
REMARK    2  A    between atoms: C_7  and  C_10
REMARK    3  A    between atoms: C_16  and  O_17
REMARK    4  A    between atoms: O_17  and  C_20
REMARK    5  A    between atoms: C_25  and  O_28
REMARK                            x       y       z     vdW  Elec       q    Type
REMARK                         _______ _______ _______ _____ _____    ______ ____
ROOT
ATOM      1  N   UNL     1      37.356 -24.804 -13.955  0.00  0.00    -0.191 N 
ATOM      2  N   UNL     1      37.577 -25.880 -14.751  0.00  0.00    -0.163 NA
ATOM      3  N   UNL     1      36.394 -23.061 -13.040  0.00  0.00    -0.128 NA
ATOM      4  N   UNL     1      37.617 -23.248 -12.429  0.00  0.00    -0.127 NA
ATOM      5  C   UNL     1      36.255 -23.999 -13.949  0.00  0.00    +0.208 A 
ATOM      6  C   UNL     1      38.186 -24.296 -12.984  0.00  0.00    +0.186 A 
ATOM      7  C   UNL     1      38.718 -26.471 -14.532  0.00  0.00    +0.101 C 
ATOM      8  C   UNL     1      39.420 -24.944 -12.782  0.00  0.00    +0.042 C 
ATOM      9  C   UNL     1      39.727 -26.018 -13.521  0.00  0.00    +0.024 C 
ENDROOT
BRANCH   7  10
ATOM     10  C   UNL     1      39.075 -27.667 -15.339  0.00  0.00    +0.019 C 
ATOM     11  C   UNL     1      38.073 -28.507 -15.822  0.00  0.00    +0.002 C 
ATOM     12  C   UNL     1      40.414 -27.949 -15.614  0.00  0.00    +0.002 C 
ATOM     13  C   UNL     1      38.408 -29.628 -16.581  0.00  0.00    +0.000 C 
ATOM     14  C   UNL     1      40.749 -29.069 -16.372  0.00  0.00    +0.000 C 
ATOM     15  C   UNL     1      39.747 -29.910 -16.856  0.00  0.00    +0.000 C 
ENDBRANCH   7  10
BRANCH   5  16
ATOM     16  C   UNL     1      35.085 -24.203 -14.868  0.00  0.00    +0.272 C 
BRANCH  16  17
ATOM     17  O   UNL     1      35.292 -23.446 -16.059  0.00  0.00    -0.467 OA
BRANCH  17  20
ATOM     18  N   UNL     1      31.871 -22.012 -17.911  0.00  0.00    -0.248 NA
ATOM     19  C   UNL     1      34.275 -22.149 -17.821  0.00  0.00    +0.030 C 
ATOM     20  C   UNL     1      34.181 -22.963 -16.684  0.00  0.00    +0.138 C 
ATOM     21  C   UNL     1      33.079 -21.689 -18.411  0.00  0.00    +0.066 C 
ATOM     22  C   UNL     1      35.519 -21.792 -18.370  0.00  0.00    +0.059 C 
ATOM     23  C   UNL     1      33.173 -20.881 -19.540  0.00  0.00    +0.109 C 
ATOM     24  C   UNL     1      32.938 -23.297 -16.167  0.00  0.00    +0.057 C 
ATOM     25  C   UNL     1      34.409 -20.526 -20.086  0.00  0.00    +0.118 C 
ATOM     26  C   UNL     1      35.584 -20.982 -19.500  0.00  0.00    +0.011 C 
ATOM     27  C   UNL     1      31.823 -22.800 -16.813  0.00  0.00    +0.102 C 
BRANCH  25  28
ATOM     28  O   UNL     1      34.462 -19.735 -21.192  0.00  0.00    -0.476 OA
ATOM     29  C   UNL     1      35.699 -19.074 -21.459  0.00  0.00    +0.252 C 
ENDBRANCH  25  28
ENDBRANCH  17  20
ENDBRANCH  16  17
ENDBRANCH   5  16
TORSDOF 5
ENDMDL
MODEL 6
REMARK VINA RESULT:     -10.6      2.728      6.701
REMARK  Name = 24864821
REMARK  5 active torsions:
REMARK  status: ('A' for Active; 'I' for Inactive)
REMARK    1  A    between atoms: C_5  and  C_16
REMARK    2  A    between atoms: C_7  and  C_10
REMARK    3  A    between atoms: C_16  and  O_17
REMARK    4  A    between atoms: O_17  and  C_20
REMARK    5  A    between atoms: C_25  and  O_28
REMARK                            x       y       z     vdW  Elec       q    Type
REMARK                         _______ _______ _______ _____ _____    ______ ____
ROOT
ATOM      1  N   UNL     1      36.263 -23.247 -15.490  0.00  0.00    -0.191 N 
ATOM      2  N   UNL     1      35.428 -22.811 -16.466  0.00  0.00    -0.163 NA
ATOM      3  N   UNL     1      37.024 -24.304 -13.727  0.00  0.00    -0.128 NA
ATOM      4  N   UNL     1      38.051 -23.547 -14.252  0.00  0.00    -0.127 NA
ATOM      5  C   UNL     1      35.963 -24.113 -14.479  0.00  0.00    +0.208 A 
ATOM      6  C   UNL     1      37.586 -22.916 -15.308  0.00  0.00    +0.186 A 
ATOM      7  C   UNL     1      35.989 -21.991 -17.310  0.00  0.00    +0.101 C 
ATOM      8  C   UNL     1      38.159 -22.013 -16.225  0.00  0.00    +0.042 C 
ATOM      9  C   UNL     1      37.412 -21.529 -17.226  0.00  0.00    +0.024 C 
ENDROOT
BRANCH   7  10
ATOM     10  C   UNL     1      35.178 -21.446 -18.430  0.00  0.00    +0.019 C 
ATOM     11  C   UNL     1      33.802 -21.674 -18.471  0.00  0.00    +0.002 C 
ATOM     12  C   UNL     1      35.792 -20.705 -19.440  0.00  0.00    +0.002 C 
ATOM     13  C   UNL     1      33.042 -21.161 -19.521  0.00  0.00    +0.000 C 
ATOM     14  C   UNL     1      35.031 -20.192 -20.490  0.00  0.00    +0.000 C 
ATOM     15  C   UNL     1      33.656 -20.420 -20.532  0.00  0.00    +0.000 C 
ENDBRANCH   7  10
BRANCH   5  16
ATOM     16  C   UNL     1      34.606 -24.727 -14.301  0.00  0.00    +0.272 C 
BRANCH  16  17
ATOM     17  O   UNL     1      33.617 -23.703 -14.389  0.00  0.00    -0.467 OA
BRANCH  17  20
ATOM     18  N   UNL     1      29.763 -24.785 -13.307  0.00  0.00    -0.248 NA
ATOM     19  C   UNL     1      31.243 -23.634 -14.820  0.00  0.00    +0.030 C 
ATOM     20  C   UNL     1      32.341 -24.047 -14.052  0.00  0.00    +0.138 C 
ATOM     21  C   UNL     1      29.955 -24.031 -14.405  0.00  0.00    +0.066 C 
ATOM     22  C   UNL     1      31.406 -22.846 -15.972  0.00  0.00    +0.059 C 
ATOM     23  C   UNL     1      28.865 -23.620 -15.168  0.00  0.00    +0.109 C 
ATOM     24  C   UNL     1      32.146 -24.824 -12.919  0.00  0.00    +0.057 C 
ATOM     25  C   UNL     1      29.027 -22.837 -16.314  0.00  0.00    +0.118 C 
ATOM     26  C   UNL     1      30.299 -22.449 -16.717  0.00  0.00    +0.011 C 
ATOM     27  C   UNL     1      30.848 -25.163 -12.593  0.00  0.00    +0.102 C 
BRANCH  25  28
ATOM     28  O   UNL     1      27.938 -22.456 -17.036  0.00  0.00    -0.476 OA
ATOM     29  C   UNL     1      26.779 -22.061 -16.302  0.00  0.00    +0.252 C 
ENDBRANCH  25  28
ENDBRANCH  17  20
ENDBRANCH  16  17
ENDBRANCH   5  16
TORSDOF 5
ENDMDL
MODEL 7
REMARK VINA RESULT:     -10.6      2.396      8.235
REMARK  Name = 24864821
REMARK  5 active torsions:
REMARK  status: ('A' for Active; 'I' for Inactive)
REMARK    1  A    between atoms: C_5  and  C_16
REMARK    2  A    between atoms: C_7  and  C_10
REMARK    3  A    between atoms: C_16  and  O_17
REMARK    4  A    between atoms: O_17  and  C_20
REMARK    5  A    between atoms: C_25  and  O_28
REMARK                            x       y       z     vdW  Elec       q    Type
REMARK                         _______ _______ _______ _____ _____    ______ ____
ROOT
ATOM      1  N   UNL     1      35.297 -20.764 -19.417  0.00  0.00    -0.191 N 
ATOM      2  N   UNL     1      34.703 -20.149 -20.470  0.00  0.00    -0.163 NA
ATOM      3  N   UNL     1      35.611 -22.050 -17.670  0.00  0.00    -0.128 NA
ATOM      4  N   UNL     1      36.791 -21.386 -17.934  0.00  0.00    -0.127 NA
ATOM      5  C   UNL     1      34.729 -21.666 -18.565  0.00  0.00    +0.208 A 
ATOM      6  C   UNL     1      36.594 -20.618 -18.983  0.00  0.00    +0.186 A 
ATOM      7  C   UNL     1      35.491 -19.338 -21.118  0.00  0.00    +0.101 C 
ATOM      8  C   UNL     1      37.416 -19.721 -19.692  0.00  0.00    +0.042 C 
ATOM      9  C   UNL     1      36.917 -19.067 -20.749  0.00  0.00    +0.024 C 
ENDROOT
BRANCH   7  10
ATOM     10  C   UNL     1      34.957 -18.606 -22.297  0.00  0.00    +0.019 C 
ATOM     11  C   UNL     1      35.263 -17.258 -22.478  0.00  0.00    +0.002 C 
ATOM     12  C   UNL     1      34.152 -19.269 -23.223  0.00  0.00    +0.002 C 
ATOM     13  C   UNL     1      34.764 -16.572 -23.584  0.00  0.00    +0.000 C 
ATOM     14  C   UNL     1      33.653 -18.584 -24.330  0.00  0.00    +0.000 C 
ATOM     15  C   UNL     1      33.958 -17.235 -24.511  0.00  0.00    +0.000 C 
ENDBRANCH   7  10
BRANCH   5  16
ATOM     16  C   UNL     1      33.303 -22.119 -18.682  0.00  0.00    +0.272 C 
BRANCH  16  17
ATOM     17  O   UNL     1      33.118 -23.284 -17.880  0.00  0.00    -0.467 OA
BRANCH  17  20
ATOM     18  N   UNL     1      30.860 -22.812 -14.435  0.00  0.00    -0.248 NA
ATOM     19  C   UNL     1      32.937 -23.445 -15.479  0.00  0.00    +0.030 C 
ATOM     20  C   UNL     1      32.394 -23.137 -16.734  0.00  0.00    +0.138 C 
ATOM     21  C   UNL     1      32.124 -23.265 -14.341  0.00  0.00    +0.066 C 
ATOM     22  C   UNL     1      34.253 -23.920 -15.342  0.00  0.00    +0.059 C 
ATOM     23  C   UNL     1      32.663 -23.571 -13.094  0.00  0.00    +0.109 C 
ATOM     24  C   UNL     1      31.092 -22.670 -16.835  0.00  0.00    +0.057 C 
ATOM     25  C   UNL     1      33.971 -24.043 -12.959  0.00  0.00    +0.118 C 
ATOM     26  C   UNL     1      34.767 -24.218 -14.085  0.00  0.00    +0.011 C 
ATOM     27  C   UNL     1      30.373 -22.526 -15.665  0.00  0.00    +0.102 C 
BRANCH  25  28
ATOM     28  O   UNL     1      34.465 -24.331 -11.724  0.00  0.00    -0.476 OA
ATOM     29  C   UNL     1      35.773 -23.847 -11.419  0.00  0.00    +0.252 C 
ENDBRANCH  25  28
ENDBRANCH  17  20
ENDBRANCH  16  17
ENDBRANCH   5  16
TORSDOF 5
ENDMDL
MODEL 8
REMARK VINA RESULT:     -10.3      1.845      4.260
REMARK  Name = 24864821
REMARK  5 active torsions:
REMARK  status: ('A' for Active; 'I' for Inactive)
REMARK    1  A    between atoms: C_5  and  C_16
REMARK    2  A    between atoms: C_7  and  C_10
REMARK    3  A    between atoms: C_16  and  O_17
REMARK    4  A    between atoms: O_17  and  C_20
REMARK    5  A    between atoms: C_25  and  O_28
REMARK                            x       y       z     vdW  Elec       q    Type
REMARK                         _______ _______ _______ _____ _____    ______ ____
ROOT
ATOM      1  N   UNL     1      33.166 -23.457 -15.814  0.00  0.00    -0.191 N 
ATOM      2  N   UNL     1      34.407 -23.912 -15.509  0.00  0.00    -0.163 NA
ATOM      3  N   UNL     1      31.441 -22.738 -16.959  0.00  0.00    -0.128 NA
ATOM      4  N   UNL     1      31.084 -22.786 -15.627  0.00  0.00    -0.127 NA
ATOM      5  C   UNL     1      32.688 -23.142 -17.052  0.00  0.00    +0.208 A 
ATOM      6  C   UNL     1      32.124 -23.218 -14.948  0.00  0.00    +0.186 A 
ATOM      7  C   UNL     1      34.586 -24.141 -14.238  0.00  0.00    +0.101 C 
ATOM      8  C   UNL     1      32.353 -23.457 -13.578  0.00  0.00    +0.042 C 
ATOM      9  C   UNL     1      33.549 -23.910 -13.181  0.00  0.00    +0.024 C 
ENDROOT
BRANCH   7  10
ATOM     10  C   UNL     1      35.905 -24.648 -13.777  0.00  0.00    +0.019 C 
ATOM     11  C   UNL     1      36.686 -25.431 -14.626  0.00  0.00    +0.002 C 
ATOM     12  C   UNL     1      36.361 -24.339 -12.496  0.00  0.00    +0.002 C 
ATOM     13  C   UNL     1      37.924 -25.905 -14.193  0.00  0.00    +0.000 C 
ATOM     14  C   UNL     1      37.600 -24.812 -12.063  0.00  0.00    +0.000 C 
ATOM     15  C   UNL     1      38.382 -25.596 -12.912  0.00  0.00    +0.000 C 
ENDBRANCH   7  10
BRANCH   5  16
ATOM     16  C   UNL     1      33.509 -23.260 -18.303  0.00  0.00    +0.272 C 
BRANCH  16  17
ATOM     17  O   UNL     1      33.489 -22.012 -18.992  0.00  0.00    -0.467 OA
BRANCH  17  20
ATOM     18  N   UNL     1      37.133 -20.063 -19.329  0.00  0.00    -0.248 NA
ATOM     19  C   UNL     1      34.886 -20.404 -20.127  0.00  0.00    +0.030 C 
ATOM     20  C   UNL     1      34.679 -21.359 -19.122  0.00  0.00    +0.138 C 
ATOM     21  C   UNL     1      36.145 -19.772 -20.195  0.00  0.00    +0.066 C 
ATOM     22  C   UNL     1      33.877 -20.075 -21.049  0.00  0.00    +0.059 C 
ATOM     23  C   UNL     1      36.349 -18.824 -21.194  0.00  0.00    +0.109 C 
ATOM     24  C   UNL     1      35.695 -21.661 -18.227  0.00  0.00    +0.057 C 
ATOM     25  C   UNL     1      35.347 -18.498 -22.110  0.00  0.00    +0.118 C 
ATOM     26  C   UNL     1      34.108 -19.124 -22.037  0.00  0.00    +0.011 C 
ATOM     27  C   UNL     1      36.894 -20.990 -18.372  0.00  0.00    +0.102 C 
BRANCH  25  28
ATOM     28  O   UNL     1      35.583 -17.565 -23.072  0.00  0.00    -0.476 OA
ATOM     29  C   UNL     1      34.568 -17.378 -24.059  0.00  0.00    +0.252 C 
ENDBRANCH  25  28
ENDBRANCH  17  20
ENDBRANCH  16  17
ENDBRANCH   5  16
TORSDOF 5
ENDMDL
MODEL 9
REMARK VINA RESULT:     -10.3      2.790      5.947
REMARK  Name = 24864821
REMARK  5 active torsions:
REMARK  status: ('A' for Active; 'I' for Inactive)
REMARK    1  A    between atoms: C_5  and  C_16
REMARK    2  A    between atoms: C_7  and  C_10
REMARK    3  A    between atoms: C_16  and  O_17
REMARK    4  A    between atoms: O_17  and  C_20
REMARK    5  A    between atoms: C_25  and  O_28
REMARK                            x       y       z     vdW  Elec       q    Type
REMARK                         _______ _______ _______ _____ _____    ______ ____
ROOT
ATOM      1  N   UNL     1      34.312 -20.723 -19.497  0.00  0.00    -0.191 N 
ATOM      2  N   UNL     1      35.314 -21.081 -18.656  0.00  0.00    -0.163 NA
ATOM      3  N   UNL     1      33.228 -19.784 -21.154  0.00  0.00    -0.128 NA
ATOM      4  N   UNL     1      32.337 -20.559 -20.440  0.00  0.00    -0.127 NA
ATOM      5  C   UNL     1      34.403 -19.893 -20.576  0.00  0.00    +0.208 A 
ATOM      6  C   UNL     1      32.996 -21.118 -19.449  0.00  0.00    +0.186 A 
ATOM      7  C   UNL     1      34.941 -21.898 -17.711  0.00  0.00    +0.101 C 
ATOM      8  C   UNL     1      32.619 -21.988 -18.407  0.00  0.00    +0.042 C 
ATOM      9  C   UNL     1      33.541 -22.397 -17.526  0.00  0.00    +0.024 C 
ENDROOT
BRANCH   7  10
ATOM     10  C   UNL     1      35.951 -22.368 -16.727  0.00  0.00    +0.019 C 
ATOM     11  C   UNL     1      35.578 -23.245 -15.709  0.00  0.00    +0.002 C 
ATOM     12  C   UNL     1      37.273 -21.933 -16.822  0.00  0.00    +0.002 C 
ATOM     13  C   UNL     1      36.526 -23.687 -14.787  0.00  0.00    +0.000 C 
ATOM     14  C   UNL     1      38.221 -22.375 -15.900  0.00  0.00    +0.000 C 
ATOM     15  C   UNL     1      37.848 -23.252 -14.881  0.00  0.00    +0.000 C 
ENDBRANCH   7  10
BRANCH   5  16
ATOM     16  C   UNL     1      35.682 -19.231 -20.997  0.00  0.00    +0.272 C 
BRANCH  16  17
ATOM     17  O   UNL     1      35.476 -17.821 -21.065  0.00  0.00    -0.467 OA
BRANCH  17  20
ATOM     18  N   UNL     1      34.283 -16.341 -24.750  0.00  0.00    -0.248 NA
ATOM     19  C   UNL     1      34.676 -15.977 -22.401  0.00  0.00    +0.030 C 
ATOM     20  C   UNL     1      35.079 -17.313 -22.267  0.00  0.00    +0.138 C 
ATOM     21  C   UNL     1      34.280 -15.528 -23.678  0.00  0.00    +0.066 C 
ATOM     22  C   UNL     1      34.661 -15.099 -21.303  0.00  0.00    +0.059 C 
ATOM     23  C   UNL     1      33.880 -14.201 -23.810  0.00  0.00    +0.109 C 
ATOM     24  C   UNL     1      35.083 -18.154 -23.370  0.00  0.00    +0.057 C 
ATOM     25  C   UNL     1      33.865 -13.328 -22.719  0.00  0.00    +0.118 C 
ATOM     26  C   UNL     1      34.256 -13.778 -21.464  0.00  0.00    +0.011 C 
ATOM     27  C   UNL     1      34.679 -17.623 -24.579  0.00  0.00    +0.102 C 
BRANCH  25  28
ATOM     28  O   UNL     1      33.468 -12.037 -22.887  0.00  0.00    -0.476 OA
ATOM     29  C   UNL     1      33.955 -11.353 -24.042  0.00  0.00    +0.252 C 
ENDBRANCH  25  28
ENDBRANCH  17  20
ENDBRANCH  16  17
ENDBRANCH   5  16
TORSDOF 5
ENDMDL
