MODEL 1
REMARK VINA RESULT:     -12.1      0.000      0.000
REMARK  Name = 16122642
REMARK  7 active torsions:
REMARK  status: ('A' for Active; 'I' for Inactive)
REMARK    1  A    between atoms: C_2  and  C_10
REMARK    2  A    between atoms: C_3  and  O_18
REMARK    3  A    between atoms: O_18  and  C_19
REMARK    4  A    between atoms: C_19  and  C_20
REMARK    5  A    between atoms: C_20  and  N_21
REMARK    6  A    between atoms: C_20  and  C_25
REMARK    7  A    between atoms: C_25  and  C_27
REMARK                            x       y       z     vdW  Elec       q    Type
REMARK                         _______ _______ _______ _____ _____    ______ ____
ROOT
ATOM      1  N   UNL     1      33.811 -14.918 -25.098  0.00  0.00    -0.239 NA
ATOM      2  C   UNL     1      33.573 -13.354 -23.278  0.00  0.00    +0.022 C 
ATOM      3  C   UNL     1      34.709 -15.436 -22.914  0.00  0.00    +0.158 C 
ATOM      4  C   UNL     1      34.249 -14.216 -22.428  0.00  0.00    +0.040 C 
ATOM      5  C   UNL     1      33.380 -13.741 -24.590  0.00  0.00    +0.099 C 
ATOM      6  C   UNL     1      34.466 -15.736 -24.245  0.00  0.00    +0.136 C 
ENDROOT
BRANCH   2  10
ATOM      7  N   UNL     1      32.626  -7.725 -22.250  0.00  0.00    -0.280 N 
ATOM      8  N   UNL     1      31.756  -8.433 -21.503  0.00  0.00    -0.173 NA
ATOM      9  C   UNL     1      33.109  -9.770 -22.746  0.00  0.00    +0.032 A 
ATOM     10  C   UNL     1      33.083 -12.074 -22.801  0.00  0.00    +0.002 C 
ATOM     11  C   UNL     1      32.030  -9.718 -21.789  0.00  0.00    +0.102 A 
ATOM     12  C   UNL     1      33.689 -10.904 -23.299  0.00  0.00    +0.003 C 
ATOM     13  C   UNL     1      33.464  -8.479 -23.018  0.00  0.00    +0.053 A 
ATOM     14  C   UNL     1      32.012 -12.077 -21.853  0.00  0.00    +0.002 C 
ATOM     15  C   UNL     1      31.443 -10.904 -21.309  0.00  0.00    +0.021 C 
ATOM     16  C   UNL     1      34.477  -7.870 -23.897  0.00  0.00    +0.051 C 
ATOM     17  H   UNL     1      32.654  -6.742 -22.242  0.00  0.00    +0.189 HD
ENDBRANCH   2  10
BRANCH   3  18
ATOM     18  O   UNL     1      35.373 -16.302 -22.110  0.00  0.00    -0.476 OA
BRANCH  18  19
ATOM     19  C   UNL     1      35.750 -17.561 -22.673  0.00  0.00    +0.184 C 
BRANCH  19  20
ATOM     20  C   UNL     1      35.746 -18.649 -21.593  0.00  0.00    -0.017 C 
BRANCH  20  21
ATOM     21  N   UNL     1      35.809 -17.997 -20.281  0.00  0.00    +0.384 N 
ATOM     22  H   UNL     1      35.449 -17.047 -20.356  0.00  0.00    -0.089 HD
ATOM     23  H   UNL     1      36.778 -17.969 -19.962  0.00  0.00    -0.089 HD
ATOM     24  H   UNL     1      35.246 -18.523 -19.612  0.00  0.00    -0.089 HD
ENDBRANCH  20  21
BRANCH  20  25
ATOM     25  C   UNL     1      34.484 -19.537 -21.631  0.00  0.00    +0.008 C 
BRANCH  25  27
ATOM     26 BR   UNL     1      33.705 -23.113 -16.663  0.00  0.00    -0.049 Br
ATOM     27  C   UNL     1      34.292 -20.412 -20.416  0.00  0.00    -0.024 C 
ATOM     28  C   UNL     1      33.021 -20.573 -19.888  0.00  0.00    -0.004 C 
ATOM     29  C   UNL     1      35.392 -21.037 -19.852  0.00  0.00    -0.004 C 
ATOM     30  C   UNL     1      32.846 -21.381 -18.764  0.00  0.00    +0.006 C 
ATOM     31  C   UNL     1      35.216 -21.845 -18.728  0.00  0.00    +0.006 C 
ATOM     32  C   UNL     1      33.943 -22.018 -18.185  0.00  0.00    +0.035 C 
ENDBRANCH  25  27
ENDBRANCH  20  25
ENDBRANCH  19  20
ENDBRANCH  18  19
ENDBRANCH   3  18
TORSDOF 7
ENDMDL
MODEL 2
REMARK VINA RESULT:     -11.9      0.986      2.070
REMARK  Name = 16122642
REMARK  7 active torsions:
REMARK  status: ('A' for Active; 'I' for Inactive)
REMARK    1  A    between atoms: C_2  and  C_10
REMARK    2  A    between atoms: C_3  and  O_18
REMARK    3  A    between atoms: O_18  and  C_19
REMARK    4  A    between atoms: C_19  and  C_20
REMARK    5  A    between atoms: C_20  and  N_21
REMARK    6  A    between atoms: C_20  and  C_25
REMARK    7  A    between atoms: C_25  and  C_27
REMARK                            x       y       z     vdW  Elec       q    Type
REMARK                         _______ _______ _______ _____ _____    ______ ____
ROOT
ATOM      1  N   UNL     1      33.717 -14.821 -25.303  0.00  0.00    -0.239 NA
ATOM      2  C   UNL     1      33.734 -13.094 -23.620  0.00  0.00    +0.022 C 
ATOM      3  C   UNL     1      34.545 -15.287 -23.080  0.00  0.00    +0.158 C 
ATOM      4  C   UNL     1      34.279 -13.976 -22.699  0.00  0.00    +0.040 C 
ATOM      5  C   UNL     1      33.473 -13.555 -24.896  0.00  0.00    +0.099 C 
ATOM      6  C   UNL     1      34.249 -15.656 -24.383  0.00  0.00    +0.136 C 
ENDROOT
BRANCH   2  10
ATOM      7  N   UNL     1      31.939  -8.227 -21.027  0.00  0.00    -0.280 N 
ATOM      8  N   UNL     1      32.595  -7.878 -22.151  0.00  0.00    -0.173 NA
ATOM      9  C   UNL     1      32.530 -10.130 -21.857  0.00  0.00    +0.032 A 
ATOM     10  C   UNL     1      33.446 -11.720 -23.252  0.00  0.00    +0.002 C 
ATOM     11  C   UNL     1      32.980  -9.045 -22.696  0.00  0.00    +0.102 A 
ATOM     12  C   UNL     1      32.723 -11.490 -22.065  0.00  0.00    +0.003 C 
ATOM     13  C   UNL     1      31.869  -9.571 -20.801  0.00  0.00    +0.053 A 
ATOM     14  C   UNL     1      33.913 -10.681 -24.117  0.00  0.00    +0.002 C 
ATOM     15  C   UNL     1      33.701  -9.306 -23.877  0.00  0.00    +0.021 C 
ATOM     16  C   UNL     1      31.190 -10.129 -19.620  0.00  0.00    +0.051 C 
ATOM     17  H   UNL     1      31.540  -7.565 -20.419  0.00  0.00    +0.189 HD
ENDBRANCH   2  10
BRANCH   3  18
ATOM     18  O   UNL     1      35.078 -16.174 -22.205  0.00  0.00    -0.476 OA
BRANCH  18  19
ATOM     19  C   UNL     1      35.678 -17.352 -22.749  0.00  0.00    +0.184 C 
BRANCH  19  20
ATOM     20  C   UNL     1      35.034 -18.605 -22.144  0.00  0.00    -0.017 C 
BRANCH  20  21
ATOM     21  N   UNL     1      34.744 -19.545 -23.231  0.00  0.00    +0.384 N 
ATOM     22  H   UNL     1      33.939 -20.117 -22.979  0.00  0.00    -0.089 HD
ATOM     23  H   UNL     1      35.553 -20.147 -23.384  0.00  0.00    -0.089 HD
ATOM     24  H   UNL     1      34.539 -19.026 -24.084  0.00  0.00    -0.089 HD
ENDBRANCH  20  21
BRANCH  20  25
ATOM     25  C   UNL     1      35.940 -19.317 -21.117  0.00  0.00    +0.008 C 
BRANCH  25  27
ATOM     26 BR   UNL     1      32.959 -23.058 -17.219  0.00  0.00    -0.049 Br
ATOM     27  C   UNL     1      35.211 -20.232 -20.162  0.00  0.00    -0.024 C 
ATOM     28  C   UNL     1      35.941 -21.061 -19.325  0.00  0.00    -0.004 C 
ATOM     29  C   UNL     1      33.826 -20.226 -20.143  0.00  0.00    -0.004 C 
ATOM     30  C   UNL     1      35.267 -21.906 -18.444  0.00  0.00    +0.006 C 
ATOM     31  C   UNL     1      33.152 -21.072 -19.262  0.00  0.00    +0.006 C 
ATOM     32  C   UNL     1      33.872 -21.911 -18.412  0.00  0.00    +0.035 C 
ENDBRANCH  25  27
ENDBRANCH  20  25
ENDBRANCH  19  20
ENDBRANCH  18  19
ENDBRANCH   3  18
TORSDOF 7
ENDMDL
MODEL 3
REMARK VINA RESULT:     -11.6      4.079     10.481
REMARK  Name = 16122642
REMARK  7 active torsions:
REMARK  status: ('A' for Active; 'I' for Inactive)
REMARK    1  A    between atoms: C_2  and  C_10
REMARK    2  A    between atoms: C_3  and  O_18
REMARK    3  A    between atoms: O_18  and  C_19
REMARK    4  A    between atoms: C_19  and  C_20
REMARK    5  A    between atoms: C_20  and  N_21
REMARK    6  A    between atoms: C_20  and  C_25
REMARK    7  A    between atoms: C_25  and  C_27
REMARK                            x       y       z     vdW  Elec       q    Type
REMARK                         _______ _______ _______ _____ _____    ______ ____
ROOT
ATOM      1  N   UNL     1      34.056 -18.231 -24.431  0.00  0.00    -0.239 NA
ATOM      2  C   UNL     1      34.968 -18.520 -22.217  0.00  0.00    +0.022 C 
ATOM      3  C   UNL     1      34.957 -16.341 -23.222  0.00  0.00    +0.158 C 
ATOM      4  C   UNL     1      35.265 -17.168 -22.147  0.00  0.00    +0.040 C 
ATOM      5  C   UNL     1      34.369 -19.003 -23.365  0.00  0.00    +0.099 C 
ATOM      6  C   UNL     1      34.357 -16.918 -24.331  0.00  0.00    +0.136 C 
ENDROOT
BRANCH   2  10
ATOM      7  N   UNL     1      34.776 -22.230 -17.764  0.00  0.00    -0.280 N 
ATOM      8  N   UNL     1      36.068 -21.919 -17.986  0.00  0.00    -0.173 NA
ATOM      9  C   UNL     1      34.668 -20.861 -19.428  0.00  0.00    +0.032 A 
ATOM     10  C   UNL     1      35.277 -19.407 -21.111  0.00  0.00    +0.002 C 
ATOM     11  C   UNL     1      36.038 -21.063 -19.023  0.00  0.00    +0.102 A 
ATOM     12  C   UNL     1      34.207 -20.052 -20.459  0.00  0.00    +0.003 C 
ATOM     13  C   UNL     1      33.889 -21.621 -18.603  0.00  0.00    +0.053 A 
ATOM     14  C   UNL     1      36.650 -19.575 -20.748  0.00  0.00    +0.002 C 
ATOM     15  C   UNL     1      37.087 -20.406 -19.693  0.00  0.00    +0.021 C 
ATOM     16  C   UNL     1      32.438 -21.847 -18.502  0.00  0.00    +0.051 C 
ATOM     17  H   UNL     1      34.494 -22.847 -17.051  0.00  0.00    +0.189 HD
ENDBRANCH   2  10
BRANCH   3  18
ATOM     18  O   UNL     1      35.233 -15.015 -23.186  0.00  0.00    -0.476 OA
BRANCH  18  19
ATOM     19  C   UNL     1      34.293 -14.167 -22.523  0.00  0.00    +0.184 C 
BRANCH  19  20
ATOM     20  C   UNL     1      33.846 -13.036 -23.458  0.00  0.00    -0.017 C 
BRANCH  20  21
ATOM     21  N   UNL     1      33.100 -13.628 -24.573  0.00  0.00    +0.384 N 
ATOM     22  H   UNL     1      32.852 -14.590 -24.344  0.00  0.00    -0.089 HD
ATOM     23  H   UNL     1      33.679 -13.617 -25.413  0.00  0.00    -0.089 HD
ATOM     24  H   UNL     1      32.250 -13.088 -24.738  0.00  0.00    -0.089 HD
ENDBRANCH  20  21
BRANCH  20  25
ATOM     25  C   UNL     1      32.937 -11.999 -22.765  0.00  0.00    +0.008 C 
BRANCH  25  27
ATOM     26 BR   UNL     1      34.477  -6.118 -23.825  0.00  0.00    -0.049 Br
ATOM     27  C   UNL     1      33.314 -10.560 -23.023  0.00  0.00    -0.024 C 
ATOM     28  C   UNL     1      32.521  -9.547 -22.507  0.00  0.00    -0.004 C 
ATOM     29  C   UNL     1      34.444 -10.280 -23.772  0.00  0.00    -0.004 C 
ATOM     30  C   UNL     1      32.869  -8.218 -22.747  0.00  0.00    +0.006 C 
ATOM     31  C   UNL     1      34.792  -8.950 -24.012  0.00  0.00    +0.006 C 
ATOM     32  C   UNL     1      34.006  -7.920 -23.499  0.00  0.00    +0.035 C 
ENDBRANCH  25  27
ENDBRANCH  20  25
ENDBRANCH  19  20
ENDBRANCH  18  19
ENDBRANCH   3  18
TORSDOF 7
ENDMDL
MODEL 4
REMARK VINA RESULT:     -11.4      4.222     10.783
REMARK  Name = 16122642
REMARK  7 active torsions:
REMARK  status: ('A' for Active; 'I' for Inactive)
REMARK    1  A    between atoms: C_2  and  C_10
REMARK    2  A    between atoms: C_3  and  O_18
REMARK    3  A    between atoms: O_18  and  C_19
REMARK    4  A    between atoms: C_19  and  C_20
REMARK    5  A    between atoms: C_20  and  N_21
REMARK    6  A    between atoms: C_20  and  C_25
REMARK    7  A    between atoms: C_25  and  C_27
REMARK                            x       y       z     vdW  Elec       q    Type
REMARK                         _______ _______ _______ _____ _____    ______ ____
ROOT
ATOM      1  N   UNL     1      34.127 -16.680 -24.867  0.00  0.00    -0.239 NA
ATOM      2  C   UNL     1      34.966 -17.261 -22.682  0.00  0.00    +0.022 C 
ATOM      3  C   UNL     1      34.637 -14.954 -23.254  0.00  0.00    +0.158 C 
ATOM      4  C   UNL     1      35.028 -15.920 -22.333  0.00  0.00    +0.040 C 
ATOM      5  C   UNL     1      34.514 -17.591 -23.945  0.00  0.00    +0.099 C 
ATOM      6  C   UNL     1      34.198 -15.383 -24.496  0.00  0.00    +0.136 C 
ENDROOT
BRANCH   2  10
ATOM      7  N   UNL     1      35.152 -21.634 -18.878  0.00  0.00    -0.280 N 
ATOM      8  N   UNL     1      36.415 -21.215 -19.087  0.00  0.00    -0.173 NA
ATOM      9  C   UNL     1      34.904 -20.027 -20.297  0.00  0.00    +0.032 A 
ATOM     10  C   UNL     1      35.366 -18.292 -21.742  0.00  0.00    +0.002 C 
ATOM     11  C   UNL     1      36.298 -20.209 -19.972  0.00  0.00    +0.102 A 
ATOM     12  C   UNL     1      34.359 -19.094 -21.170  0.00  0.00    +0.003 C 
ATOM     13  C   UNL     1      34.201 -20.954 -19.581  0.00  0.00    +0.053 A 
ATOM     14  C   UNL     1      36.760 -18.432 -21.453  0.00  0.00    +0.002 C 
ATOM     15  C   UNL     1      37.282 -19.393 -20.559  0.00  0.00    +0.021 C 
ATOM     16  C   UNL     1      32.769 -21.279 -19.474  0.00  0.00    +0.051 C 
ATOM     17  H   UNL     1      34.932 -22.372 -18.265  0.00  0.00    +0.189 HD
ENDBRANCH   2  10
BRANCH   3  18
ATOM     18  O   UNL     1      34.685 -13.635 -22.945  0.00  0.00    -0.476 OA
BRANCH  18  19
ATOM     19  C   UNL     1      33.461 -12.900 -23.018  0.00  0.00    +0.184 C 
BRANCH  19  20
ATOM     20  C   UNL     1      33.739 -11.440 -23.399  0.00  0.00    -0.017 C 
BRANCH  20  21
ATOM     21  N   UNL     1      33.532 -11.292 -24.842  0.00  0.00    +0.384 N 
ATOM     22  H   UNL     1      33.117 -12.145 -25.215  0.00  0.00    -0.089 HD
ATOM     23  H   UNL     1      34.429 -11.123 -25.298  0.00  0.00    -0.089 HD
ATOM     24  H   UNL     1      32.908 -10.504 -25.017  0.00  0.00    -0.089 HD
ENDBRANCH  20  21
BRANCH  20  25
ATOM     25  C   UNL     1      32.818 -10.437 -22.672  0.00  0.00    +0.008 C 
BRANCH  25  27
ATOM     26 BR   UNL     1      33.523  -4.559 -24.412  0.00  0.00    -0.049 Br
ATOM     27  C   UNL     1      32.991  -9.000 -23.098  0.00  0.00    -0.024 C 
ATOM     28  C   UNL     1      34.265  -8.513 -23.345  0.00  0.00    -0.004 C 
ATOM     29  C   UNL     1      31.873  -8.194 -23.234  0.00  0.00    -0.004 C 
ATOM     30  C   UNL     1      34.424  -7.184 -23.738  0.00  0.00    +0.006 C 
ATOM     31  C   UNL     1      32.032  -6.865 -23.627  0.00  0.00    +0.006 C 
ATOM     32  C   UNL     1      33.307  -6.360 -23.880  0.00  0.00    +0.035 C 
ENDBRANCH  25  27
ENDBRANCH  20  25
ENDBRANCH  19  20
ENDBRANCH  18  19
ENDBRANCH   3  18
TORSDOF 7
ENDMDL
MODEL 5
REMARK VINA RESULT:     -11.0      6.258     12.759
REMARK  Name = 16122642
REMARK  7 active torsions:
REMARK  status: ('A' for Active; 'I' for Inactive)
REMARK    1  A    between atoms: C_2  and  C_10
REMARK    2  A    between atoms: C_3  and  O_18
REMARK    3  A    between atoms: O_18  and  C_19
REMARK    4  A    between atoms: C_19  and  C_20
REMARK    5  A    between atoms: C_20  and  N_21
REMARK    6  A    between atoms: C_20  and  C_25
REMARK    7  A    between atoms: C_25  and  C_27
REMARK                            x       y       z     vdW  Elec       q    Type
REMARK                         _______ _______ _______ _____ _____    ______ ____
ROOT
ATOM      1  N   UNL     1      31.446 -23.467 -14.817  0.00  0.00    -0.239 NA
ATOM      2  C   UNL     1      33.856 -23.447 -14.885  0.00  0.00    +0.022 C 
ATOM      3  C   UNL     1      32.607 -22.913 -16.863  0.00  0.00    +0.158 C 
ATOM      4  C   UNL     1      33.830 -23.086 -16.223  0.00  0.00    +0.040 C 
ATOM      5  C   UNL     1      32.653 -23.624 -14.228  0.00  0.00    +0.099 C 
ATOM      6  C   UNL     1      31.454 -23.114 -16.121  0.00  0.00    +0.136 C 
ENDROOT
BRANCH   2  10
ATOM      7  N   UNL     1      38.036 -24.334 -10.963  0.00  0.00    -0.280 N 
ATOM      8  N   UNL     1      38.625 -24.166 -12.163  0.00  0.00    -0.173 NA
ATOM      9  C   UNL     1      36.361 -24.019 -12.288  0.00  0.00    +0.032 A 
ATOM     10  C   UNL     1      35.116 -23.633 -14.190  0.00  0.00    +0.002 C 
ATOM     11  C   UNL     1      37.605 -23.967 -13.018  0.00  0.00    +0.102 A 
ATOM     12  C   UNL     1      35.079 -23.863 -12.800  0.00  0.00    +0.003 C 
ATOM     13  C   UNL     1      36.674 -24.256 -10.980  0.00  0.00    +0.053 A 
ATOM     14  C   UNL     1      36.322 -23.572 -14.957  0.00  0.00    +0.002 C 
ATOM     15  C   UNL     1      37.612 -23.735 -14.406  0.00  0.00    +0.021 C 
ATOM     16  C   UNL     1      35.868 -24.416  -9.758  0.00  0.00    +0.051 C 
ATOM     17  H   UNL     1      38.548 -24.499 -10.140  0.00  0.00    +0.189 HD
ENDBRANCH   2  10
BRANCH   3  18
ATOM     18  O   UNL     1      32.546 -22.561 -18.170  0.00  0.00    -0.476 OA
BRANCH  18  19
ATOM     19  C   UNL     1      33.785 -22.422 -18.870  0.00  0.00    +0.184 C 
BRANCH  19  20
ATOM     20  C   UNL     1      33.686 -21.294 -19.906  0.00  0.00    -0.017 C 
BRANCH  20  21
ATOM     21  N   UNL     1      32.569 -20.421 -19.533  0.00  0.00    +0.384 N 
ATOM     22  H   UNL     1      31.820 -20.518 -20.217  0.00  0.00    -0.089 HD
ATOM     23  H   UNL     1      32.888 -19.453 -19.511  0.00  0.00    -0.089 HD
ATOM     24  H   UNL     1      32.224 -20.686 -18.610  0.00  0.00    -0.089 HD
ENDBRANCH  20  21
BRANCH  20  25
ATOM     25  C   UNL     1      34.965 -20.435 -19.990  0.00  0.00    +0.008 C 
BRANCH  25  27
ATOM     26 BR   UNL     1      34.827 -16.041 -24.321  0.00  0.00    -0.049 Br
ATOM     27  C   UNL     1      34.933 -19.360 -21.049  0.00  0.00    -0.024 C 
ATOM     28  C   UNL     1      35.434 -18.101 -20.756  0.00  0.00    -0.004 C 
ATOM     29  C   UNL     1      34.401 -19.652 -22.295  0.00  0.00    -0.004 C 
ATOM     30  C   UNL     1      35.402 -17.108 -21.735  0.00  0.00    +0.006 C 
ATOM     31  C   UNL     1      34.370 -18.659 -23.274  0.00  0.00    +0.006 C 
ATOM     32  C   UNL     1      34.871 -17.387 -22.995  0.00  0.00    +0.035 C 
ENDBRANCH  25  27
ENDBRANCH  20  25
ENDBRANCH  19  20
ENDBRANCH  18  19
ENDBRANCH   3  18
TORSDOF 7
ENDMDL
MODEL 6
REMARK VINA RESULT:     -10.9      5.043     11.517
REMARK  Name = 16122642
REMARK  7 active torsions:
REMARK  status: ('A' for Active; 'I' for Inactive)
REMARK    1  A    between atoms: C_2  and  C_10
REMARK    2  A    between atoms: C_3  and  O_18
REMARK    3  A    between atoms: O_18  and  C_19
REMARK    4  A    between atoms: C_19  and  C_20
REMARK    5  A    between atoms: C_20  and  N_21
REMARK    6  A    between atoms: C_20  and  C_25
REMARK    7  A    between atoms: C_25  and  C_27
REMARK                            x       y       z     vdW  Elec       q    Type
REMARK                         _______ _______ _______ _____ _____    ______ ____
ROOT
ATOM      1  N   UNL     1      32.601 -22.113 -18.619  0.00  0.00    -0.239 NA
ATOM      2  C   UNL     1      34.752 -22.082 -17.528  0.00  0.00    +0.022 C 
ATOM      3  C   UNL     1      34.476 -20.980 -19.642  0.00  0.00    +0.158 C 
ATOM      4  C   UNL     1      35.286 -21.339 -18.570  0.00  0.00    +0.040 C 
ATOM      5  C   UNL     1      33.419 -22.442 -17.594  0.00  0.00    +0.099 C 
ATOM      6  C   UNL     1      33.152 -21.389 -19.618  0.00  0.00    +0.136 C 
ENDROOT
BRANCH   2  10
ATOM      7  N   UNL     1      36.762 -24.009 -12.441  0.00  0.00    -0.280 N 
ATOM      8  N   UNL     1      37.815 -23.587 -13.167  0.00  0.00    -0.173 NA
ATOM      9  C   UNL     1      35.848 -23.334 -14.276  0.00  0.00    +0.032 A 
ATOM     10  C   UNL     1      35.572 -22.470 -16.395  0.00  0.00    +0.002 C 
ATOM     11  C   UNL     1      37.280 -23.158 -14.324  0.00  0.00    +0.102 A 
ATOM     12  C   UNL     1      34.928 -23.017 -15.267  0.00  0.00    +0.003 C 
ATOM     13  C   UNL     1      35.553 -23.880 -13.059  0.00  0.00    +0.053 A 
ATOM     14  C   UNL     1      36.986 -22.275 -16.492  0.00  0.00    +0.002 C 
ATOM     15  C   UNL     1      37.895 -22.609 -15.465  0.00  0.00    +0.021 C 
ATOM     16  C   UNL     1      34.296 -24.292 -12.412  0.00  0.00    +0.051 C 
ATOM     17  H   UNL     1      36.857 -24.380 -11.535  0.00  0.00    +0.189 HD
ENDBRANCH   2  10
BRANCH   3  18
ATOM     18  O   UNL     1      34.966 -20.254 -20.676  0.00  0.00    -0.476 OA
BRANCH  18  19
ATOM     19  C   UNL     1      36.323 -19.814 -20.583  0.00  0.00    +0.184 C 
BRANCH  19  20
ATOM     20  C   UNL     1      36.514 -18.511 -21.370  0.00  0.00    -0.017 C 
BRANCH  20  21
ATOM     21  N   UNL     1      37.912 -18.436 -21.805  0.00  0.00    +0.384 N 
ATOM     22  H   UNL     1      38.159 -17.463 -21.983  0.00  0.00    -0.089 HD
ATOM     23  H   UNL     1      38.031 -18.980 -22.659  0.00  0.00    -0.089 HD
ATOM     24  H   UNL     1      38.516 -18.812 -21.074  0.00  0.00    -0.089 HD
ENDBRANCH  20  21
BRANCH  20  25
ATOM     25  C   UNL     1      35.612 -18.419 -22.619  0.00  0.00    +0.008 C 
BRANCH  25  27
ATOM     26 BR   UNL     1      33.438 -12.770 -23.818  0.00  0.00    -0.049 Br
ATOM     27  C   UNL     1      35.082 -17.037 -22.912  0.00  0.00    -0.024 C 
ATOM     28  C   UNL     1      35.083 -16.081 -21.908  0.00  0.00    -0.004 C 
ATOM     29  C   UNL     1      34.601 -16.750 -24.179  0.00  0.00    -0.004 C 
ATOM     30  C   UNL     1      34.592 -14.804 -22.179  0.00  0.00    +0.006 C 
ATOM     31  C   UNL     1      34.110 -15.473 -24.450  0.00  0.00    +0.006 C 
ATOM     32  C   UNL     1      34.105 -14.500 -23.451  0.00  0.00    +0.035 C 
ENDBRANCH  25  27
ENDBRANCH  20  25
ENDBRANCH  19  20
ENDBRANCH  18  19
ENDBRANCH   3  18
TORSDOF 7
ENDMDL
MODEL 7
REMARK VINA RESULT:     -10.9      4.544     11.284
REMARK  Name = 16122642
REMARK  7 active torsions:
REMARK  status: ('A' for Active; 'I' for Inactive)
REMARK    1  A    between atoms: C_2  and  C_10
REMARK    2  A    between atoms: C_3  and  O_18
REMARK    3  A    between atoms: O_18  and  C_19
REMARK    4  A    between atoms: C_19  and  C_20
REMARK    5  A    between atoms: C_20  and  N_21
REMARK    6  A    between atoms: C_20  and  C_25
REMARK    7  A    between atoms: C_25  and  C_27
REMARK                            x       y       z     vdW  Elec       q    Type
REMARK                         _______ _______ _______ _____ _____    ______ ____
ROOT
ATOM      1  N   UNL     1      36.619 -21.196 -19.217  0.00  0.00    -0.239 NA
ATOM      2  C   UNL     1      34.498 -21.768 -18.221  0.00  0.00    +0.022 C 
ATOM      3  C   UNL     1      34.553 -20.440 -20.219  0.00  0.00    +0.158 C 
ATOM      4  C   UNL     1      33.827 -21.075 -19.217  0.00  0.00    +0.040 C 
ATOM      5  C   UNL     1      35.879 -21.802 -18.261  0.00  0.00    +0.099 C 
ATOM      6  C   UNL     1      35.935 -20.530 -20.173  0.00  0.00    +0.136 C 
ENDROOT
BRANCH   2  10
ATOM      7  N   UNL     1      32.898 -24.683 -13.470  0.00  0.00    -0.280 N 
ATOM      8  N   UNL     1      31.781 -24.357 -14.150  0.00  0.00    -0.173 NA
ATOM      9  C   UNL     1      33.664 -23.619 -15.185  0.00  0.00    +0.032 A 
ATOM     10  C   UNL     1      33.768 -22.442 -17.164  0.00  0.00    +0.002 C 
ATOM     11  C   UNL     1      32.223 -23.688 -15.230  0.00  0.00    +0.102 A 
ATOM     12  C   UNL     1      34.506 -23.015 -16.110  0.00  0.00    +0.003 C 
ATOM     13  C   UNL     1      34.060 -24.264 -14.048  0.00  0.00    +0.053 A 
ATOM     14  C   UNL     1      32.341 -22.484 -17.254  0.00  0.00    +0.002 C 
ATOM     15  C   UNL     1      31.512 -23.106 -16.295  0.00  0.00    +0.021 C 
ATOM     16  C   UNL     1      35.375 -24.534 -13.441  0.00  0.00    +0.051 C 
ATOM     17  H   UNL     1      32.876 -25.186 -12.624  0.00  0.00    +0.189 HD
ENDBRANCH   2  10
BRANCH   3  18
ATOM     18  O   UNL     1      33.929 -19.754 -21.207  0.00  0.00    -0.476 OA
BRANCH  18  19
ATOM     19  C   UNL     1      34.676 -19.494 -22.398  0.00  0.00    +0.184 C 
BRANCH  19  20
ATOM     20  C   UNL     1      35.115 -18.025 -22.439  0.00  0.00    -0.017 C 
BRANCH  20  21
ATOM     21  N   UNL     1      36.573 -17.975 -22.293  0.00  0.00    +0.384 N 
ATOM     22  H   UNL     1      36.829 -18.242 -21.343  0.00  0.00    -0.089 HD
ATOM     23  H   UNL     1      36.901 -17.028 -22.479  0.00  0.00    -0.089 HD
ATOM     24  H   UNL     1      37.003 -18.621 -22.956  0.00  0.00    -0.089 HD
ENDBRANCH  20  21
BRANCH  20  25
ATOM     25  C   UNL     1      34.736 -17.315 -23.756  0.00  0.00    +0.008 C 
BRANCH  25  27
ATOM     26 BR   UNL     1      33.374 -11.327 -23.156  0.00  0.00    -0.049 Br
ATOM     27  C   UNL     1      34.404 -15.850 -23.609  0.00  0.00    -0.024 C 
ATOM     28  C   UNL     1      34.690 -15.205 -22.416  0.00  0.00    -0.004 C 
ATOM     29  C   UNL     1      33.818 -15.178 -24.669  0.00  0.00    -0.004 C 
ATOM     30  C   UNL     1      34.382 -13.851 -22.280  0.00  0.00    +0.006 C 
ATOM     31  C   UNL     1      33.510 -13.825 -24.533  0.00  0.00    +0.006 C 
ATOM     32  C   UNL     1      33.792 -13.161 -23.340  0.00  0.00    +0.035 C 
ENDBRANCH  25  27
ENDBRANCH  20  25
ENDBRANCH  19  20
ENDBRANCH  18  19
ENDBRANCH   3  18
TORSDOF 7
ENDMDL
MODEL 8
REMARK VINA RESULT:     -10.8      3.605      6.732
REMARK  Name = 16122642
REMARK  7 active torsions:
REMARK  status: ('A' for Active; 'I' for Inactive)
REMARK    1  A    between atoms: C_2  and  C_10
REMARK    2  A    between atoms: C_3  and  O_18
REMARK    3  A    between atoms: O_18  and  C_19
REMARK    4  A    between atoms: C_19  and  C_20
REMARK    5  A    between atoms: C_20  and  N_21
REMARK    6  A    between atoms: C_20  and  C_25
REMARK    7  A    between atoms: C_25  and  C_27
REMARK                            x       y       z     vdW  Elec       q    Type
REMARK                         _______ _______ _______ _____ _____    ______ ____
ROOT
ATOM      1  N   UNL     1      37.276 -19.802 -19.445  0.00  0.00    -0.239 NA
ATOM      2  C   UNL     1      35.570 -19.192 -21.037  0.00  0.00    +0.022 C 
ATOM      3  C   UNL     1      35.211 -21.053 -19.566  0.00  0.00    +0.158 C 
ATOM      4  C   UNL     1      34.762 -20.226 -20.590  0.00  0.00    +0.040 C 
ATOM      5  C   UNL     1      36.805 -19.018 -20.441  0.00  0.00    +0.099 C 
ATOM      6  C   UNL     1      36.464 -20.801 -19.032  0.00  0.00    +0.136 C 
ENDROOT
BRANCH   2  10
ATOM      7  N   UNL     1      33.986 -14.663 -24.294  0.00  0.00    -0.280 N 
ATOM      8  N   UNL     1      33.893 -15.771 -25.055  0.00  0.00    -0.173 NA
ATOM      9  C   UNL     1      34.602 -16.232 -22.947  0.00  0.00    +0.032 A 
ATOM     10  C   UNL     1      35.129 -18.312 -22.103  0.00  0.00    +0.002 C 
ATOM     11  C   UNL     1      34.272 -16.774 -24.243  0.00  0.00    +0.102 A 
ATOM     12  C   UNL     1      35.037 -16.933 -21.829  0.00  0.00    +0.003 C 
ATOM     13  C   UNL     1      34.409 -14.882 -23.016  0.00  0.00    +0.053 A 
ATOM     14  C   UNL     1      34.813 -18.897 -23.369  0.00  0.00    +0.002 C 
ATOM     15  C   UNL     1      34.373 -18.156 -24.488  0.00  0.00    +0.021 C 
ATOM     16  C   UNL     1      34.569 -13.784 -22.047  0.00  0.00    +0.051 C 
ATOM     17  H   UNL     1      33.766 -13.766 -24.634  0.00  0.00    +0.189 HD
ENDBRANCH   2  10
BRANCH   3  18
ATOM     18  O   UNL     1      34.446 -22.073 -19.106  0.00  0.00    -0.476 OA
BRANCH  18  19
ATOM     19  C   UNL     1      33.099 -21.769 -18.739  0.00  0.00    +0.184 C 
BRANCH  19  20
ATOM     20  C   UNL     1      32.818 -22.242 -17.307  0.00  0.00    -0.017 C 
BRANCH  20  21
ATOM     21  N   UNL     1      31.380 -22.494 -17.178  0.00  0.00    +0.384 N 
ATOM     22  H   UNL     1      30.975 -22.633 -18.103  0.00  0.00    -0.089 HD
ATOM     23  H   UNL     1      30.934 -21.695 -16.728  0.00  0.00    -0.089 HD
ATOM     24  H   UNL     1      31.230 -23.330 -16.613  0.00  0.00    -0.089 HD
ENDBRANCH  20  21
BRANCH  20  25
ATOM     25  C   UNL     1      33.571 -23.538 -16.937  0.00  0.00    +0.008 C 
BRANCH  25  27
ATOM     26 BR   UNL     1      37.027 -23.145 -11.840  0.00  0.00    -0.049 Br
ATOM     27  C   UNL     1      34.417 -23.440 -15.691  0.00  0.00    -0.024 C 
ATOM     28  C   UNL     1      35.639 -22.790 -15.748  0.00  0.00    -0.004 C 
ATOM     29  C   UNL     1      33.955 -24.004 -14.513  0.00  0.00    -0.004 C 
ATOM     30  C   UNL     1      36.421 -22.702 -14.595  0.00  0.00    +0.006 C 
ATOM     31  C   UNL     1      34.736 -23.916 -13.361  0.00  0.00    +0.006 C 
ATOM     32  C   UNL     1      35.968 -23.264 -13.402  0.00  0.00    +0.035 C 
ENDBRANCH  25  27
ENDBRANCH  20  25
ENDBRANCH  19  20
ENDBRANCH  18  19
ENDBRANCH   3  18
TORSDOF 7
ENDMDL
MODEL 9
REMARK VINA RESULT:     -10.7      2.627      4.682
REMARK  Name = 16122642
REMARK  7 active torsions:
REMARK  status: ('A' for Active; 'I' for Inactive)
REMARK    1  A    between atoms: C_2  and  C_10
REMARK    2  A    between atoms: C_3  and  O_18
REMARK    3  A    between atoms: O_18  and  C_19
REMARK    4  A    between atoms: C_19  and  C_20
REMARK    5  A    between atoms: C_20  and  N_21
REMARK    6  A    between atoms: C_20  and  C_25
REMARK    7  A    between atoms: C_25  and  C_27
REMARK                            x       y       z     vdW  Elec       q    Type
REMARK                         _______ _______ _______ _____ _____    ______ ____
ROOT
ATOM      1  N   UNL     1      31.566 -11.136 -20.975  0.00  0.00    -0.239 NA
ATOM      2  C   UNL     1      32.277  -9.270 -22.328  0.00  0.00    +0.022 C 
ATOM      3  C   UNL     1      33.112 -11.469 -22.804  0.00  0.00    +0.158 C 
ATOM      4  C   UNL     1      33.070 -10.110 -23.096  0.00  0.00    +0.040 C 
ATOM      5  C   UNL     1      31.550  -9.821 -21.290  0.00  0.00    +0.099 C 
ATOM      6  C   UNL     1      32.348 -11.928 -21.743  0.00  0.00    +0.136 C 
ENDROOT
BRANCH   2  10
ATOM      7  N   UNL     1      33.174  -3.873 -24.252  0.00  0.00    -0.280 N 
ATOM      8  N   UNL     1      32.095  -3.850 -23.446  0.00  0.00    -0.173 NA
ATOM      9  C   UNL     1      32.984  -5.932 -23.632  0.00  0.00    +0.032 A 
ATOM     10  C   UNL     1      32.212  -7.848 -22.609  0.00  0.00    +0.002 C 
ATOM     11  C   UNL     1      31.946  -5.123 -23.040  0.00  0.00    +0.102 A 
ATOM     12  C   UNL     1      33.184  -7.297 -23.467  0.00  0.00    +0.003 C 
ATOM     13  C   UNL     1      33.750  -5.102 -24.400  0.00  0.00    +0.053 A 
ATOM     14  C   UNL     1      31.165  -7.090 -21.997  0.00  0.00    +0.002 C 
ATOM     15  C   UNL     1      30.988  -5.702 -22.186  0.00  0.00    +0.021 C 
ATOM     16  C   UNL     1      34.937  -5.311 -25.245  0.00  0.00    +0.051 C 
ATOM     17  H   UNL     1      33.521  -3.068 -24.698  0.00  0.00    +0.189 HD
ENDBRANCH   2  10
BRANCH   3  18
ATOM     18  O   UNL     1      33.876 -12.317 -23.534  0.00  0.00    -0.476 OA
BRANCH  18  19
ATOM     19  C   UNL     1      34.235 -13.562 -22.930  0.00  0.00    +0.184 C 
BRANCH  19  20
ATOM     20  C   UNL     1      33.746 -14.732 -23.792  0.00  0.00    -0.017 C 
BRANCH  20  21
ATOM     21  N   UNL     1      33.248 -14.194 -25.061  0.00  0.00    +0.384 N 
ATOM     22  H   UNL     1      32.232 -14.116 -25.022  0.00  0.00    -0.089 HD
ATOM     23  H   UNL     1      33.512 -14.820 -25.822  0.00  0.00    -0.089 HD
ATOM     24  H   UNL     1      33.654 -13.272 -25.222  0.00  0.00    -0.089 HD
ENDBRANCH  20  21
BRANCH  20  25
ATOM     25  C   UNL     1      34.853 -15.761 -24.103  0.00  0.00    +0.008 C 
BRANCH  25  27
ATOM     26 BR   UNL     1      35.158 -20.486 -20.147  0.00  0.00    -0.049 Br
ATOM     27  C   UNL     1      34.928 -16.918 -23.136  0.00  0.00    -0.024 C 
ATOM     28  C   UNL     1      34.467 -18.164 -23.530  0.00  0.00    -0.004 C 
ATOM     29  C   UNL     1      35.456 -16.711 -21.873  0.00  0.00    -0.004 C 
ATOM     30  C   UNL     1      34.536 -19.232 -22.635  0.00  0.00    +0.006 C 
ATOM     31  C   UNL     1      35.525 -17.779 -20.978  0.00  0.00    +0.006 C 
ATOM     32  C   UNL     1      35.065 -19.039 -21.359  0.00  0.00    +0.035 C 
ENDBRANCH  25  27
ENDBRANCH  20  25
ENDBRANCH  19  20
ENDBRANCH  18  19
ENDBRANCH   3  18
TORSDOF 7
ENDMDL
