MODEL 1
REMARK VINA RESULT:     -11.7      0.000      0.000
REMARK  Name = 24779724
REMARK  3 active torsions:
REMARK  status: ('A' for Active; 'I' for Inactive)
REMARK    1  A    between atoms: C_5  and  C_12
REMARK    2  A    between atoms: C_7  and  S_16
REMARK    3  A    between atoms: S_16  and  C_19
REMARK                            x       y       z     vdW  Elec       q    Type
REMARK                         _______ _______ _______ _____ _____    ______ ____
ROOT
ATOM      1  N   UNL     1      34.503 -21.627 -18.456  0.00  0.00    -0.186 N 
ATOM      2  N   UNL     1      35.529 -21.976 -17.641  0.00  0.00    -0.162 NA
ATOM      3  N   UNL     1      32.492 -21.434 -19.317  0.00  0.00    -0.126 NA
ATOM      4  N   UNL     1      33.376 -20.728 -20.107  0.00  0.00    -0.120 NA
ATOM      5  C   UNL     1      35.169 -22.717 -16.631  0.00  0.00    +0.104 C 
ATOM      6  C   UNL     1      33.177 -21.969 -18.329  0.00  0.00    +0.187 A 
ATOM      7  C   UNL     1      34.573 -20.855 -19.580  0.00  0.00    +0.217 A 
ATOM      8  C   UNL     1      33.767 -23.181 -16.376  0.00  0.00    +0.024 C 
ATOM      9  C   UNL     1      32.821 -22.785 -17.238  0.00  0.00    +0.042 C 
ENDROOT
BRANCH   5  12
ATOM     10  N   UNL     1      37.264 -24.251 -14.092  0.00  0.00    -0.208 N 
ATOM     11  N   UNL     1      38.142 -23.303 -14.461  0.00  0.00    -0.176 NA
ATOM     12  C   UNL     1      36.203 -23.161 -15.661  0.00  0.00    +0.056 C 
ATOM     13  C   UNL     1      36.087 -24.209 -14.780  0.00  0.00    +0.087 C 
ATOM     14  C   UNL     1      37.489 -22.641 -15.419  0.00  0.00    +0.121 C 
ATOM     15  C   UNL     1      37.616 -25.189 -13.053  0.00  0.00    +0.140 C 
ENDBRANCH   5  12
BRANCH   7  16
ATOM     16  S   UNL     1      36.092 -20.146 -20.197  0.00  0.00    -0.051 S 
BRANCH  16  19
ATOM     17  N   UNL     1      34.057 -16.734 -24.624  0.00  0.00    -0.248 NA
ATOM     18  C   UNL     1      34.985 -16.914 -22.408  0.00  0.00    -0.003 C 
ATOM     19  C   UNL     1      35.486 -19.116 -21.516  0.00  0.00    +0.011 C 
ATOM     20  C   UNL     1      34.522 -17.488 -23.610  0.00  0.00    +0.060 C 
ATOM     21  C   UNL     1      35.463 -17.732 -21.370  0.00  0.00    +0.060 C 
ATOM     22  C   UNL     1      35.031 -19.687 -22.698  0.00  0.00    -0.017 C 
ATOM     23  C   UNL     1      34.556 -18.875 -23.730  0.00  0.00    +0.072 C 
ATOM     24  C   UNL     1      34.951 -15.519 -22.287  0.00  0.00    -0.001 C 
ATOM     25  C   UNL     1      34.473 -14.739 -23.330  0.00  0.00    +0.020 C 
ATOM     26  C   UNL     1      34.042 -15.391 -24.468  0.00  0.00    +0.098 C 
ENDBRANCH  16  19
ENDBRANCH   7  16
TORSDOF 3
ENDMDL
MODEL 2
REMARK VINA RESULT:     -10.9      1.332      1.985
REMARK  Name = 24779724
REMARK  3 active torsions:
REMARK  status: ('A' for Active; 'I' for Inactive)
REMARK    1  A    between atoms: C_5  and  C_12
REMARK    2  A    between atoms: C_7  and  S_16
REMARK    3  A    between atoms: S_16  and  C_19
REMARK                            x       y       z     vdW  Elec       q    Type
REMARK                         _______ _______ _______ _____ _____    ______ ____
ROOT
ATOM      1  N   UNL     1      34.238 -22.224 -17.695  0.00  0.00    -0.186 N 
ATOM      2  N   UNL     1      35.156 -22.696 -16.816  0.00  0.00    -0.162 NA
ATOM      3  N   UNL     1      32.324 -21.723 -18.649  0.00  0.00    -0.126 NA
ATOM      4  N   UNL     1      33.348 -21.259 -19.450  0.00  0.00    -0.120 NA
ATOM      5  C   UNL     1      34.635 -23.277 -15.772  0.00  0.00    +0.104 C 
ATOM      6  C   UNL     1      32.868 -22.300 -17.599  0.00  0.00    +0.187 A 
ATOM      7  C   UNL     1      34.484 -21.568 -18.867  0.00  0.00    +0.217 A 
ATOM      8  C   UNL     1      33.163 -23.447 -15.543  0.00  0.00    +0.024 C 
ATOM      9  C   UNL     1      32.334 -22.948 -16.468  0.00  0.00    +0.042 C 
ENDROOT
BRANCH   5  12
ATOM     10  N   UNL     1      36.838 -24.035 -12.987  0.00  0.00    -0.208 N 
ATOM     11  N   UNL     1      36.831 -25.271 -13.516  0.00  0.00    -0.176 NA
ATOM     12  C   UNL     1      35.538 -23.831 -14.731  0.00  0.00    +0.056 C 
ATOM     13  C   UNL     1      36.079 -23.136 -13.678  0.00  0.00    +0.087 C 
ATOM     14  C   UNL     1      36.036 -25.140 -14.581  0.00  0.00    +0.121 C 
ATOM     15  C   UNL     1      37.606 -23.771 -11.794  0.00  0.00    +0.140 C 
ENDBRANCH   5  12
BRANCH   7  16
ATOM     16  S   UNL     1      36.126 -21.208 -19.469  0.00  0.00    -0.051 S 
BRANCH  16  19
ATOM     17  N   UNL     1      35.073 -16.610 -23.094  0.00  0.00    -0.248 NA
ATOM     18  C   UNL     1      34.785 -18.945 -22.574  0.00  0.00    -0.003 C 
ATOM     19  C   UNL     1      35.804 -19.838 -20.561  0.00  0.00    +0.011 C 
ATOM     20  C   UNL     1      35.299 -17.663 -22.287  0.00  0.00    +0.060 C 
ATOM     21  C   UNL     1      35.041 -20.022 -21.710  0.00  0.00    +0.060 C 
ATOM     22  C   UNL     1      36.314 -18.578 -20.272  0.00  0.00    -0.017 C 
ATOM     23  C   UNL     1      36.060 -17.507 -21.132  0.00  0.00    +0.072 C 
ATOM     24  C   UNL     1      34.019 -19.102 -23.737  0.00  0.00    -0.001 C 
ATOM     25  C   UNL     1      33.784 -18.019 -24.571  0.00  0.00    +0.020 C 
ATOM     26  C   UNL     1      34.330 -16.804 -24.207  0.00  0.00    +0.098 C 
ENDBRANCH  16  19
ENDBRANCH   7  16
TORSDOF 3
ENDMDL
MODEL 3
REMARK VINA RESULT:     -10.5      2.293      9.307
REMARK  Name = 24779724
REMARK  3 active torsions:
REMARK  status: ('A' for Active; 'I' for Inactive)
REMARK    1  A    between atoms: C_5  and  C_12
REMARK    2  A    between atoms: C_7  and  S_16
REMARK    3  A    between atoms: S_16  and  C_19
REMARK                            x       y       z     vdW  Elec       q    Type
REMARK                         _______ _______ _______ _____ _____    ______ ____
ROOT
ATOM      1  N   UNL     1      35.328 -20.178 -20.119  0.00  0.00    -0.186 N 
ATOM      2  N   UNL     1      34.659 -19.555 -21.120  0.00  0.00    -0.162 NA
ATOM      3  N   UNL     1      36.919 -20.790 -18.733  0.00  0.00    -0.126 NA
ATOM      4  N   UNL     1      35.770 -21.486 -18.416  0.00  0.00    -0.120 NA
ATOM      5  C   UNL     1      35.385 -18.701 -21.785  0.00  0.00    +0.104 C 
ATOM      6  C   UNL     1      36.643 -20.008 -19.756  0.00  0.00    +0.187 A 
ATOM      7  C   UNL     1      34.830 -21.110 -19.254  0.00  0.00    +0.217 A 
ATOM      8  C   UNL     1      36.833 -18.425 -21.514  0.00  0.00    +0.024 C 
ATOM      9  C   UNL     1      37.408 -19.091 -20.504  0.00  0.00    +0.042 C 
ENDROOT
BRANCH   5  12
ATOM     10  N   UNL     1      34.090 -16.338 -24.220  0.00  0.00    -0.208 N 
ATOM     11  N   UNL     1      33.636 -17.447 -24.828  0.00  0.00    -0.176 NA
ATOM     12  C   UNL     1      34.764 -17.948 -22.906  0.00  0.00    +0.056 C 
ATOM     13  C   UNL     1      34.771 -16.583 -23.063  0.00  0.00    +0.087 C 
ATOM     14  C   UNL     1      34.052 -18.427 -24.022  0.00  0.00    +0.121 C 
ATOM     15  C   UNL     1      33.833 -15.043 -24.804  0.00  0.00    +0.140 C 
ENDBRANCH   5  12
BRANCH   7  16
ATOM     16  S   UNL     1      33.143 -21.695 -19.299  0.00  0.00    -0.051 S 
BRANCH  16  19
ATOM     17  N   UNL     1      32.605 -24.011 -13.846  0.00  0.00    -0.248 NA
ATOM     18  C   UNL     1      31.577 -23.000 -15.777  0.00  0.00    -0.003 C 
ATOM     19  C   UNL     1      32.971 -22.387 -17.667  0.00  0.00    +0.011 C 
ATOM     20  C   UNL     1      32.705 -23.484 -15.081  0.00  0.00    +0.060 C 
ATOM     21  C   UNL     1      31.718 -22.455 -17.064  0.00  0.00    +0.060 C 
ATOM     22  C   UNL     1      34.085 -22.862 -16.987  0.00  0.00    -0.017 C 
ATOM     23  C   UNL     1      33.946 -23.403 -15.707  0.00  0.00    +0.072 C 
ATOM     24  C   UNL     1      30.329 -23.081 -15.146  0.00  0.00    -0.001 C 
ATOM     25  C   UNL     1      30.222 -23.624 -13.874  0.00  0.00    +0.020 C 
ATOM     26  C   UNL     1      31.382 -24.071 -13.273  0.00  0.00    +0.098 C 
ENDBRANCH  16  19
ENDBRANCH   7  16
TORSDOF 3
ENDMDL
MODEL 4
REMARK VINA RESULT:     -10.2      3.570      6.129
REMARK  Name = 24779724
REMARK  3 active torsions:
REMARK  status: ('A' for Active; 'I' for Inactive)
REMARK    1  A    between atoms: C_5  and  C_12
REMARK    2  A    between atoms: C_7  and  S_16
REMARK    3  A    between atoms: S_16  and  C_19
REMARK                            x       y       z     vdW  Elec       q    Type
REMARK                         _______ _______ _______ _____ _____    ______ ____
ROOT
ATOM      1  N   UNL     1      32.652 -23.058 -16.141  0.00  0.00    -0.186 N 
ATOM      2  N   UNL     1      31.347 -22.961 -16.498  0.00  0.00    -0.162 NA
ATOM      3  N   UNL     1      34.484 -23.176 -14.936  0.00  0.00    -0.126 NA
ATOM      4  N   UNL     1      34.831 -23.246 -16.270  0.00  0.00    -0.120 NA
ATOM      5  C   UNL     1      30.530 -22.870 -15.487  0.00  0.00    +0.104 C 
ATOM      6  C   UNL     1      33.174 -23.063 -14.869  0.00  0.00    +0.187 A 
ATOM      7  C   UNL     1      33.726 -23.172 -16.975  0.00  0.00    +0.217 A 
ATOM      8  C   UNL     1      30.958 -22.846 -14.050  0.00  0.00    +0.024 C 
ATOM      9  C   UNL     1      32.269 -22.947 -13.796  0.00  0.00    +0.042 C 
ENDROOT
BRANCH   5  12
ATOM     10  N   UNL     1      26.939 -22.332 -15.545  0.00  0.00    -0.208 N 
ATOM     11  N   UNL     1      27.024 -22.922 -16.750  0.00  0.00    -0.176 NA
ATOM     12  C   UNL     1      29.071 -22.765 -15.748  0.00  0.00    +0.056 C 
ATOM     13  C   UNL     1      28.138 -22.215 -14.904  0.00  0.00    +0.087 C 
ATOM     14  C   UNL     1      28.328 -23.183 -16.869  0.00  0.00    +0.121 C 
ATOM     15  C   UNL     1      25.656 -21.894 -15.050  0.00  0.00    +0.140 C 
ENDBRANCH   5  12
BRANCH   7  16
ATOM     16  S   UNL     1      33.591 -23.213 -18.756  0.00  0.00    -0.051 S 
BRANCH  16  19
ATOM     17  N   UNL     1      37.278 -18.801 -20.280  0.00  0.00    -0.248 NA
ATOM     18  C   UNL     1      35.190 -19.960 -20.605  0.00  0.00    -0.003 C 
ATOM     19  C   UNL     1      34.687 -21.888 -19.219  0.00  0.00    +0.011 C 
ATOM     20  C   UNL     1      36.429 -19.792 -19.950  0.00  0.00    +0.060 C 
ATOM     21  C   UNL     1      34.329 -21.006 -20.235  0.00  0.00    +0.060 C 
ATOM     22  C   UNL     1      35.905 -21.729 -18.572  0.00  0.00    -0.017 C 
ATOM     23  C   UNL     1      36.762 -20.689 -18.939  0.00  0.00    +0.072 C 
ATOM     24  C   UNL     1      34.855 -19.057 -21.623  0.00  0.00    -0.001 C 
ATOM     25  C   UNL     1      35.728 -18.035 -21.965  0.00  0.00    +0.020 C 
ATOM     26  C   UNL     1      36.916 -17.951 -21.268  0.00  0.00    +0.098 C 
ENDBRANCH  16  19
ENDBRANCH   7  16
TORSDOF 3
ENDMDL
MODEL 5
REMARK VINA RESULT:     -10.2      5.658     11.973
REMARK  Name = 24779724
REMARK  3 active torsions:
REMARK  status: ('A' for Active; 'I' for Inactive)
REMARK    1  A    between atoms: C_5  and  C_12
REMARK    2  A    between atoms: C_7  and  S_16
REMARK    3  A    between atoms: S_16  and  C_19
REMARK                            x       y       z     vdW  Elec       q    Type
REMARK                         _______ _______ _______ _____ _____    ______ ____
ROOT
ATOM      1  N   UNL     1      32.665 -11.637 -21.945  0.00  0.00    -0.186 N 
ATOM      2  N   UNL     1      32.828 -10.512 -22.685  0.00  0.00    -0.162 NA
ATOM      3  N   UNL     1      32.055 -13.019 -20.351  0.00  0.00    -0.126 NA
ATOM      4  N   UNL     1      32.777 -13.726 -21.290  0.00  0.00    -0.120 NA
ATOM      5  C   UNL     1      32.262  -9.458 -22.169  0.00  0.00    +0.104 C 
ATOM      6  C   UNL     1      31.993 -11.767 -20.753  0.00  0.00    +0.187 A 
ATOM      7  C   UNL     1      33.136 -12.886 -22.234  0.00  0.00    +0.217 A 
ATOM      8  C   UNL     1      31.513  -9.446 -20.871  0.00  0.00    +0.024 C 
ATOM      9  C   UNL     1      31.405 -10.607 -20.211  0.00  0.00    +0.042 C 
ENDROOT
BRANCH   5  12
ATOM     10  N   UNL     1      33.149  -6.395 -23.907  0.00  0.00    -0.208 N 
ATOM     11  N   UNL     1      31.819  -6.204 -23.932  0.00  0.00    -0.176 NA
ATOM     12  C   UNL     1      32.365  -8.162 -22.889  0.00  0.00    +0.056 C 
ATOM     13  C   UNL     1      33.528  -7.553 -23.293  0.00  0.00    +0.087 C 
ATOM     14  C   UNL     1      31.345  -7.286 -23.309  0.00  0.00    +0.121 C 
ATOM     15  C   UNL     1      34.025  -5.413 -24.499  0.00  0.00    +0.140 C 
ENDBRANCH   5  12
BRANCH   7  16
ATOM     16  S   UNL     1      34.090 -13.266 -23.696  0.00  0.00    -0.051 S 
BRANCH  16  19
ATOM     17  N   UNL     1      34.898 -19.129 -23.096  0.00  0.00    -0.248 NA
ATOM     18  C   UNL     1      35.108 -16.906 -22.189  0.00  0.00    -0.003 C 
ATOM     19  C   UNL     1      34.336 -15.019 -23.506  0.00  0.00    +0.011 C 
ATOM     20  C   UNL     1      34.724 -17.799 -23.211  0.00  0.00    +0.060 C 
ATOM     21  C   UNL     1      34.911 -15.524 -22.343  0.00  0.00    +0.060 C 
ATOM     22  C   UNL     1      33.956 -15.893 -24.517  0.00  0.00    -0.017 C 
ATOM     23  C   UNL     1      34.151 -17.267 -24.364  0.00  0.00    +0.072 C 
ATOM     24  C   UNL     1      35.684 -17.441 -21.029  0.00  0.00    -0.001 C 
ATOM     25  C   UNL     1      35.865 -18.811 -20.907  0.00  0.00    +0.020 C 
ATOM     26  C   UNL     1      35.458 -19.604 -21.961  0.00  0.00    +0.098 C 
ENDBRANCH  16  19
ENDBRANCH   7  16
TORSDOF 3
ENDMDL
MODEL 6
REMARK VINA RESULT:     -10.0      4.907      9.534
REMARK  Name = 24779724
REMARK  3 active torsions:
REMARK  status: ('A' for Active; 'I' for Inactive)
REMARK    1  A    between atoms: C_5  and  C_12
REMARK    2  A    between atoms: C_7  and  S_16
REMARK    3  A    between atoms: S_16  and  C_19
REMARK                            x       y       z     vdW  Elec       q    Type
REMARK                         _______ _______ _______ _____ _____    ______ ____
ROOT
ATOM      1  N   UNL     1      35.237 -22.569 -16.268  0.00  0.00    -0.186 N 
ATOM      2  N   UNL     1      34.117 -22.962 -15.613  0.00  0.00    -0.162 NA
ATOM      3  N   UNL     1      36.595 -21.838 -17.832  0.00  0.00    -0.126 NA
ATOM      4  N   UNL     1      37.333 -22.088 -16.693  0.00  0.00    -0.120 NA
ATOM      5  C   UNL     1      33.034 -22.894 -16.335  0.00  0.00    +0.104 C 
ATOM      6  C   UNL     1      35.339 -22.129 -17.567  0.00  0.00    +0.187 A 
ATOM      7  C   UNL     1      36.507 -22.526 -15.769  0.00  0.00    +0.217 A 
ATOM      8  C   UNL     1      32.996 -22.451 -17.767  0.00  0.00    +0.024 C 
ATOM      9  C   UNL     1      34.155 -22.083 -18.329  0.00  0.00    +0.042 C 
ENDROOT
BRANCH   5  12
ATOM     10  N   UNL     1      29.603 -23.505 -15.314  0.00  0.00    -0.208 N 
ATOM     11  N   UNL     1      30.182 -24.253 -14.360  0.00  0.00    -0.176 NA
ATOM     12  C   UNL     1      31.738 -23.292 -15.728  0.00  0.00    +0.056 C 
ATOM     13  C   UNL     1      30.492 -22.907 -16.159  0.00  0.00    +0.087 C 
ATOM     14  C   UNL     1      31.485 -24.121 -14.618  0.00  0.00    +0.121 C 
ATOM     15  C   UNL     1      28.165 -23.396 -15.368  0.00  0.00    +0.140 C 
ENDBRANCH   5  12
BRANCH   7  16
ATOM     16  S   UNL     1      36.929 -23.003 -14.100  0.00  0.00    -0.051 S 
BRANCH  16  19
ATOM     17  N   UNL     1      38.564 -28.666 -14.896  0.00  0.00    -0.248 NA
ATOM     18  C   UNL     1      39.175 -26.376 -14.466  0.00  0.00    -0.003 C 
ATOM     19  C   UNL     1      37.429 -24.695 -14.336  0.00  0.00    +0.011 C 
ATOM     20  C   UNL     1      38.215 -27.379 -14.712  0.00  0.00    +0.060 C 
ATOM     21  C   UNL     1      38.776 -25.042 -14.279  0.00  0.00    +0.060 C 
ATOM     22  C   UNL     1      36.478 -25.678 -14.580  0.00  0.00    -0.017 C 
ATOM     23  C   UNL     1      36.875 -27.004 -14.765  0.00  0.00    +0.072 C 
ATOM     24  C   UNL     1      40.524 -26.753 -14.413  0.00  0.00    -0.001 C 
ATOM     25  C   UNL     1      40.886 -28.079 -14.601  0.00  0.00    +0.020 C 
ATOM     26  C   UNL     1      39.876 -28.989 -14.837  0.00  0.00    +0.098 C 
ENDBRANCH  16  19
ENDBRANCH   7  16
TORSDOF 3
ENDMDL
MODEL 7
REMARK VINA RESULT:      -9.9      2.779      3.930
REMARK  Name = 24779724
REMARK  3 active torsions:
REMARK  status: ('A' for Active; 'I' for Inactive)
REMARK    1  A    between atoms: C_5  and  C_12
REMARK    2  A    between atoms: C_7  and  S_16
REMARK    3  A    between atoms: S_16  and  C_19
REMARK                            x       y       z     vdW  Elec       q    Type
REMARK                         _______ _______ _______ _____ _____    ______ ____
ROOT
ATOM      1  N   UNL     1      32.803 -23.320 -15.665  0.00  0.00    -0.186 N 
ATOM      2  N   UNL     1      33.884 -23.849 -15.041  0.00  0.00    -0.162 NA
ATOM      3  N   UNL     1      30.841 -22.399 -16.026  0.00  0.00    -0.126 NA
ATOM      4  N   UNL     1      31.456 -22.611 -17.243  0.00  0.00    -0.120 NA
ATOM      5  C   UNL     1      33.784 -23.868 -13.742  0.00  0.00    +0.104 C 
ATOM      6  C   UNL     1      31.657 -22.828 -15.086  0.00  0.00    +0.187 A 
ATOM      7  C   UNL     1      32.626 -23.163 -17.010  0.00  0.00    +0.217 A 
ATOM      8  C   UNL     1      32.590 -23.383 -12.976  0.00  0.00    +0.024 C 
ATOM      9  C   UNL     1      31.570 -22.878 -13.680  0.00  0.00    +0.042 C 
ENDROOT
BRANCH   5  12
ATOM     10  N   UNL     1      36.787 -25.369 -12.358  0.00  0.00    -0.208 N 
ATOM     11  N   UNL     1      36.227 -25.037 -11.182  0.00  0.00    -0.176 NA
ATOM     12  C   UNL     1      34.908 -24.419 -12.942  0.00  0.00    +0.056 C 
ATOM     13  C   UNL     1      36.036 -25.022 -13.443  0.00  0.00    +0.087 C 
ATOM     14  C   UNL     1      35.080 -24.457 -11.545  0.00  0.00    +0.121 C 
ATOM     15  C   UNL     1      38.069 -26.033 -12.380  0.00  0.00    +0.140 C 
ENDBRANCH   5  12
BRANCH   7  16
ATOM     16  S   UNL     1      33.838 -23.650 -18.228  0.00  0.00    -0.051 S 
BRANCH  16  19
ATOM     17  N   UNL     1      34.692 -18.514 -21.106  0.00  0.00    -0.248 NA
ATOM     18  C   UNL     1      35.611 -20.412 -19.939  0.00  0.00    -0.003 C 
ATOM     19  C   UNL     1      34.105 -22.114 -19.089  0.00  0.00    +0.011 C 
ATOM     20  C   UNL     1      34.521 -19.678 -20.452  0.00  0.00    +0.060 C 
ATOM     21  C   UNL     1      35.396 -21.623 -19.262  0.00  0.00    +0.060 C 
ATOM     22  C   UNL     1      33.026 -21.397 -19.590  0.00  0.00    -0.017 C 
ATOM     23  C   UNL     1      33.240 -20.192 -20.264  0.00  0.00    +0.072 C 
ATOM     24  C   UNL     1      36.900 -19.895 -20.128  0.00  0.00    -0.001 C 
ATOM     25  C   UNL     1      37.080 -18.695 -20.801  0.00  0.00    +0.020 C 
ATOM     26  C   UNL     1      35.952 -18.050 -21.267  0.00  0.00    +0.098 C 
ENDBRANCH  16  19
ENDBRANCH   7  16
TORSDOF 3
ENDMDL
MODEL 8
REMARK VINA RESULT:      -9.9      1.985      9.502
REMARK  Name = 24779724
REMARK  3 active torsions:
REMARK  status: ('A' for Active; 'I' for Inactive)
REMARK    1  A    between atoms: C_5  and  C_12
REMARK    2  A    between atoms: C_7  and  S_16
REMARK    3  A    between atoms: S_16  and  C_19
REMARK                            x       y       z     vdW  Elec       q    Type
REMARK                         _______ _______ _______ _____ _____    ______ ____
ROOT
ATOM      1  N   UNL     1      35.035 -21.777 -18.035  0.00  0.00    -0.186 N 
ATOM      2  N   UNL     1      35.574 -20.868 -18.885  0.00  0.00    -0.162 NA
ATOM      3  N   UNL     1      33.625 -23.164 -17.079  0.00  0.00    -0.126 NA
ATOM      4  N   UNL     1      34.813 -23.192 -16.376  0.00  0.00    -0.120 NA
ATOM      5  C   UNL     1      34.763 -20.489 -19.833  0.00  0.00    +0.104 C 
ATOM      6  C   UNL     1      33.769 -22.312 -18.073  0.00  0.00    +0.187 A 
ATOM      7  C   UNL     1      35.643 -22.357 -16.959  0.00  0.00    +0.217 A 
ATOM      8  C   UNL     1      33.353 -20.974 -19.987  0.00  0.00    +0.024 C 
ATOM      9  C   UNL     1      32.909 -21.872 -19.098  0.00  0.00    +0.042 C 
ENDROOT
BRANCH   5  12
ATOM     10  N   UNL     1      35.338 -18.130 -22.534  0.00  0.00    -0.208 N 
ATOM     11  N   UNL     1      36.556 -18.023 -21.976  0.00  0.00    -0.176 NA
ATOM     12  C   UNL     1      35.239 -19.499 -20.833  0.00  0.00    +0.056 C 
ATOM     13  C   UNL     1      34.511 -19.002 -21.887  0.00  0.00    +0.087 C 
ATOM     14  C   UNL     1      36.490 -18.860 -20.938  0.00  0.00    +0.121 C 
ATOM     15  C   UNL     1      35.017 -17.358 -23.710  0.00  0.00    +0.140 C 
ENDBRANCH   5  12
BRANCH   7  16
ATOM     16  S   UNL     1      37.321 -21.999 -16.464  0.00  0.00    -0.051 S 
BRANCH  16  19
ATOM     17  N   UNL     1      37.905 -25.466 -11.665  0.00  0.00    -0.248 NA
ATOM     18  C   UNL     1      36.785 -23.648 -12.783  0.00  0.00    -0.003 C 
ATOM     19  C   UNL     1      37.487 -23.032 -15.023  0.00  0.00    +0.011 C 
ATOM     20  C   UNL     1      37.756 -24.671 -12.741  0.00  0.00    +0.060 C 
ATOM     21  C   UNL     1      36.658 -22.837 -13.922  0.00  0.00    +0.060 C 
ATOM     22  C   UNL     1      38.446 -24.037 -14.988  0.00  0.00    -0.017 C 
ATOM     23  C   UNL     1      38.573 -24.844 -13.856  0.00  0.00    +0.072 C 
ATOM     24  C   UNL     1      35.963 -23.475 -11.661  0.00  0.00    -0.001 C 
ATOM     25  C   UNL     1      36.114 -24.292 -10.551  0.00  0.00    +0.020 C 
ATOM     26  C   UNL     1      37.092 -25.265 -10.604  0.00  0.00    +0.098 C 
ENDBRANCH  16  19
ENDBRANCH   7  16
TORSDOF 3
ENDMDL
MODEL 9
REMARK VINA RESULT:      -9.8      8.290     13.069
REMARK  Name = 24779724
REMARK  3 active torsions:
REMARK  status: ('A' for Active; 'I' for Inactive)
REMARK    1  A    between atoms: C_5  and  C_12
REMARK    2  A    between atoms: C_7  and  S_16
REMARK    3  A    between atoms: S_16  and  C_19
REMARK                            x       y       z     vdW  Elec       q    Type
REMARK                         _______ _______ _______ _____ _____    ______ ____
ROOT
ATOM      1  N   UNL     1      32.979  -9.989 -22.373  0.00  0.00    -0.186 N 
ATOM      2  N   UNL     1      33.465 -11.023 -23.103  0.00  0.00    -0.162 NA
ATOM      3  N   UNL     1      31.826  -8.822 -20.913  0.00  0.00    -0.126 NA
ATOM      4  N   UNL     1      32.662  -7.964 -21.597  0.00  0.00    -0.120 NA
ATOM      5  C   UNL     1      32.940 -12.176 -22.795  0.00  0.00    +0.104 C 
ATOM      6  C   UNL     1      32.023 -10.035 -21.386  0.00  0.00    +0.187 A 
ATOM      7  C   UNL     1      33.342  -8.676 -22.466  0.00  0.00    +0.217 A 
ATOM      8  C   UNL     1      31.878 -12.374 -21.755  0.00  0.00    +0.024 C 
ATOM      9  C   UNL     1      31.461 -11.292 -21.087  0.00  0.00    +0.042 C 
ENDROOT
BRANCH   5  12
ATOM     10  N   UNL     1      34.232 -15.353 -23.989  0.00  0.00    -0.208 N 
ATOM     11  N   UNL     1      33.842 -14.887 -25.188  0.00  0.00    -0.176 NA
ATOM     12  C   UNL     1      33.394 -13.390 -23.521  0.00  0.00    +0.056 C 
ATOM     13  C   UNL     1      33.986 -14.494 -22.958  0.00  0.00    +0.087 C 
ATOM     14  C   UNL     1      33.331 -13.688 -24.896  0.00  0.00    +0.121 C 
ATOM     15  C   UNL     1      34.847 -16.655 -23.891  0.00  0.00    +0.140 C 
ENDBRANCH   5  12
BRANCH   7  16
ATOM     16  S   UNL     1      34.569  -8.071 -23.615  0.00  0.00    -0.051 S 
BRANCH  16  19
ATOM     17  N   UNL     1      32.637  -2.537 -24.629  0.00  0.00    -0.248 NA
ATOM     18  C   UNL     1      32.630  -4.512 -23.249  0.00  0.00    -0.003 C 
ATOM     19  C   UNL     1      33.985  -6.415 -23.909  0.00  0.00    +0.011 C 
ATOM     20  C   UNL     1      33.062  -3.790 -24.381  0.00  0.00    +0.060 C 
ATOM     21  C   UNL     1      33.095  -5.818 -23.021  0.00  0.00    +0.060 C 
ATOM     22  C   UNL     1      34.414  -5.710 -25.026  0.00  0.00    -0.017 C 
ATOM     23  C   UNL     1      33.952  -4.411 -25.253  0.00  0.00    +0.072 C 
ATOM     24  C   UNL     1      31.735  -3.887 -22.371  0.00  0.00    -0.001 C 
ATOM     25  C   UNL     1      31.294  -2.596 -22.624  0.00  0.00    +0.020 C 
ATOM     26  C   UNL     1      31.772  -1.971 -23.757  0.00  0.00    +0.098 C 
ENDBRANCH  16  19
ENDBRANCH   7  16
TORSDOF 3
ENDMDL
