MODEL 1
REMARK VINA RESULT:     -12.6      0.000      0.000
REMARK  Name = 58212050
REMARK  2 active torsions:
REMARK  status: ('A' for Active; 'I' for Inactive)
REMARK    1  A    between atoms: C_2  and  C_13
REMARK    2  A    between atoms: C_10  and  C_26
REMARK                            x       y       z     vdW  Elec       q    Type
REMARK                         _______ _______ _______ _____ _____    ______ ____
ROOT
ATOM      1  N   UNL     1      37.068 -22.765 -16.533  0.00  0.00    +0.389 N 
ATOM      2  C   UNL     1      34.622 -23.051 -16.791  0.00  0.00    +0.023 C 
ATOM      3  C   UNL     1      35.805 -22.914 -15.801  0.00  0.00    -0.068 C 
ATOM      4  C   UNL     1      34.687 -22.045 -17.933  0.00  0.00    -0.026 C 
ATOM      5  C   UNL     1      35.873 -21.322 -18.166  0.00  0.00    -0.047 C 
ATOM      6  C   UNL     1      37.070 -21.484 -17.258  0.00  0.00    -0.050 C 
ATOM      7  C   UNL     1      33.608 -21.883 -18.818  0.00  0.00    -0.004 C 
ATOM      8  C   UNL     1      35.933 -20.406 -19.227  0.00  0.00    -0.005 C 
ATOM      9  C   UNL     1      38.207 -22.832 -15.618  0.00  0.00    -0.100 C 
ATOM     10  C   UNL     1      34.842 -20.236 -20.078  0.00  0.00    +0.019 C 
ATOM     11  C   UNL     1      33.683 -20.980 -19.878  0.00  0.00    +0.001 C 
ATOM     12  H   UNL     1      37.154 -23.530 -17.203  0.00  0.00    -0.079 HD
ENDROOT
BRANCH   2  13
ATOM     13  C   UNL     1      33.312 -23.033 -16.012  0.00  0.00    -0.020 C 
ATOM     14  C   UNL     1      32.099 -22.927 -16.692  0.00  0.00    -0.004 C 
ATOM     15  C   UNL     1      33.327 -23.120 -14.624  0.00  0.00    -0.004 C 
ATOM     16  C   UNL     1      30.883 -22.908 -15.990  0.00  0.00    -0.000 C 
ATOM     17  C   UNL     1      30.899 -22.996 -14.578  0.00  0.00    -0.000 C 
ATOM     18  C   UNL     1      32.129 -23.102 -13.910  0.00  0.00    -0.000 C 
ATOM     19  C   UNL     1      29.653 -22.801 -16.659  0.00  0.00    -0.000 C 
ATOM     20  C   UNL     1      29.682 -22.976 -13.875  0.00  0.00    -0.000 C 
ATOM     21  C   UNL     1      28.454 -22.783 -15.945  0.00  0.00    -0.000 C 
ATOM     22  C   UNL     1      28.469 -22.870 -14.556  0.00  0.00    -0.000 C 
ENDBRANCH   2  13
BRANCH  10  26
ATOM     23  N   UNL     1      35.460 -18.094 -20.869  0.00  0.00    -0.147 NA
ATOM     24  N   UNL     1      35.568 -17.150 -21.843  0.00  0.00    -0.133 NA
ATOM     25  N   UNL     1      35.244 -16.455 -24.100  0.00  0.00    -0.341 N 
ATOM     26  C   UNL     1      34.918 -19.293 -21.173  0.00  0.00    +0.103 C 
ATOM     27  C   UNL     1      34.463 -19.613 -22.437  0.00  0.00    +0.024 C 
ATOM     28  C   UNL     1      34.573 -18.653 -23.427  0.00  0.00    +0.037 C 
ATOM     29  C   UNL     1      35.131 -17.436 -23.088  0.00  0.00    +0.147 C 
ATOM     30  H   UNL     1      35.637 -15.576 -23.892  0.00  0.00    +0.144 HD
ATOM     31  H   UNL     1      34.928 -16.650 -25.012  0.00  0.00    +0.144 HD
ENDBRANCH  10  26
TORSDOF 2
ENDMDL
MODEL 2
REMARK VINA RESULT:     -11.9      8.457     14.083
REMARK  Name = 58212050
REMARK  2 active torsions:
REMARK  status: ('A' for Active; 'I' for Inactive)
REMARK    1  A    between atoms: C_2  and  C_13
REMARK    2  A    between atoms: C_10  and  C_26
REMARK                            x       y       z     vdW  Elec       q    Type
REMARK                         _______ _______ _______ _____ _____    ______ ____
ROOT
ATOM      1  N   UNL     1      31.343 -10.074 -19.967  0.00  0.00    +0.389 N 
ATOM      2  C   UNL     1      32.002  -9.242 -22.203  0.00  0.00    +0.023 C 
ATOM      3  C   UNL     1      31.933  -8.940 -20.686  0.00  0.00    -0.068 C 
ATOM      4  C   UNL     1      32.519 -10.643 -22.504  0.00  0.00    -0.026 C 
ATOM      5  C   UNL     1      32.603 -11.598 -21.473  0.00  0.00    -0.047 C 
ATOM      6  C   UNL     1      32.244 -11.235 -20.051  0.00  0.00    -0.050 C 
ATOM      7  C   UNL     1      32.836 -11.031 -23.817  0.00  0.00    -0.004 C 
ATOM      8  C   UNL     1      33.066 -12.891 -21.758  0.00  0.00    -0.005 C 
ATOM      9  C   UNL     1      31.092  -9.726 -18.568  0.00  0.00    -0.100 C 
ATOM     10  C   UNL     1      33.405 -13.252 -23.061  0.00  0.00    +0.019 C 
ATOM     11  C   UNL     1      33.283 -12.324 -24.091  0.00  0.00    +0.001 C 
ATOM     12  H   UNL     1      30.450 -10.311 -20.399  0.00  0.00    -0.079 HD
ENDROOT
BRANCH   2  13
ATOM     13  C   UNL     1      32.771  -8.126 -22.902  0.00  0.00    -0.020 C 
ATOM     14  C   UNL     1      32.087  -7.185 -23.672  0.00  0.00    -0.004 C 
ATOM     15  C   UNL     1      34.154  -8.048 -22.772  0.00  0.00    -0.004 C 
ATOM     16  C   UNL     1      32.780  -6.152 -24.323  0.00  0.00    -0.000 C 
ATOM     17  C   UNL     1      34.187  -6.073 -24.191  0.00  0.00    -0.000 C 
ATOM     18  C   UNL     1      34.859  -7.028 -23.412  0.00  0.00    -0.000 C 
ATOM     19  C   UNL     1      32.108  -5.197 -25.103  0.00  0.00    -0.000 C 
ATOM     20  C   UNL     1      34.881  -5.040 -24.843  0.00  0.00    -0.000 C 
ATOM     21  C   UNL     1      32.813  -4.177 -25.744  0.00  0.00    -0.000 C 
ATOM     22  C   UNL     1      34.196  -4.099 -25.614  0.00  0.00    -0.000 C 
ENDBRANCH   2  13
BRANCH  10  26
ATOM     23  N   UNL     1      33.483 -15.104 -24.528  0.00  0.00    -0.147 NA
ATOM     24  N   UNL     1      33.882 -16.358 -24.872  0.00  0.00    -0.133 NA
ATOM     25  N   UNL     1      35.076 -18.362 -24.375  0.00  0.00    -0.341 N 
ATOM     26  C   UNL     1      33.876 -14.590 -23.343  0.00  0.00    +0.103 C 
ATOM     27  C   UNL     1      34.671 -15.281 -22.452  0.00  0.00    +0.024 C 
ATOM     28  C   UNL     1      35.077 -16.557 -22.801  0.00  0.00    +0.037 C 
ATOM     29  C   UNL     1      34.661 -17.057 -24.018  0.00  0.00    +0.147 C 
ATOM     30  H   UNL     1      34.797 -18.748 -25.236  0.00  0.00    +0.144 HD
ATOM     31  H   UNL     1      35.643 -18.882 -23.762  0.00  0.00    +0.144 HD
ENDBRANCH  10  26
TORSDOF 2
ENDMDL
MODEL 3
REMARK VINA RESULT:     -11.6      3.152      6.120
REMARK  Name = 58212050
REMARK  2 active torsions:
REMARK  status: ('A' for Active; 'I' for Inactive)
REMARK    1  A    between atoms: C_2  and  C_13
REMARK    2  A    between atoms: C_10  and  C_26
REMARK                            x       y       z     vdW  Elec       q    Type
REMARK                         _______ _______ _______ _____ _____    ______ ____
ROOT
ATOM      1  N   UNL     1      32.776 -24.023 -13.860  0.00  0.00    +0.389 N 
ATOM      2  C   UNL     1      35.241 -24.068 -14.079  0.00  0.00    +0.023 C 
ATOM      3  C   UNL     1      33.971 -24.854 -13.675  0.00  0.00    -0.068 C 
ATOM      4  C   UNL     1      35.077 -23.312 -15.392  0.00  0.00    -0.026 C 
ATOM      5  C   UNL     1      33.794 -23.143 -15.949  0.00  0.00    -0.047 C 
ATOM      6  C   UNL     1      32.578 -23.755 -15.294  0.00  0.00    -0.050 C 
ATOM      7  C   UNL     1      36.176 -22.703 -16.020  0.00  0.00    -0.004 C 
ATOM      8  C   UNL     1      33.646 -22.435 -17.151  0.00  0.00    -0.005 C 
ATOM      9  C   UNL     1      31.596 -24.681 -13.299  0.00  0.00    -0.100 C 
ATOM     10  C   UNL     1      34.751 -21.862 -17.777  0.00  0.00    +0.019 C 
ATOM     11  C   UNL     1      36.014 -21.990 -17.208  0.00  0.00    +0.001 C 
ATOM     12  H   UNL     1      32.909 -23.139 -13.369  0.00  0.00    -0.079 HD
ENDROOT
BRANCH   2  13
ATOM     13  C   UNL     1      36.444 -25.004 -14.041  0.00  0.00    -0.020 C 
ATOM     14  C   UNL     1      36.474 -26.134 -14.858  0.00  0.00    -0.004 C 
ATOM     15  C   UNL     1      37.510 -24.730 -13.190  0.00  0.00    -0.004 C 
ATOM     16  C   UNL     1      37.573 -27.006 -14.834  0.00  0.00    -0.000 C 
ATOM     17  C   UNL     1      38.658 -26.729 -13.968  0.00  0.00    -0.000 C 
ATOM     18  C   UNL     1      38.611 -25.587 -13.153  0.00  0.00    -0.000 C 
ATOM     19  C   UNL     1      37.619 -28.149 -15.650  0.00  0.00    -0.000 C 
ATOM     20  C   UNL     1      39.758 -27.602 -13.944  0.00  0.00    -0.000 C 
ATOM     21  C   UNL     1      38.720 -29.006 -15.612  0.00  0.00    -0.000 C 
ATOM     22  C   UNL     1      39.787 -28.733 -14.761  0.00  0.00    -0.000 C 
ENDBRANCH   2  13
BRANCH  10  26
ATOM     23  N   UNL     1      35.724 -20.668 -19.572  0.00  0.00    -0.147 NA
ATOM     24  N   UNL     1      35.656 -19.968 -20.736  0.00  0.00    -0.133 NA
ATOM     25  N   UNL     1      34.379 -19.023 -22.514  0.00  0.00    -0.341 N 
ATOM     26  C   UNL     1      34.584 -21.128 -19.013  0.00  0.00    +0.103 C 
ATOM     27  C   UNL     1      33.338 -20.921 -19.570  0.00  0.00    +0.024 C 
ATOM     28  C   UNL     1      33.269 -20.209 -20.754  0.00  0.00    +0.037 C 
ATOM     29  C   UNL     1      34.450 -19.751 -21.303  0.00  0.00    +0.147 C 
ATOM     30  H   UNL     1      35.202 -18.682 -22.932  0.00  0.00    +0.144 HD
ATOM     31  H   UNL     1      33.506 -18.856 -22.937  0.00  0.00    +0.144 HD
ENDBRANCH  10  26
TORSDOF 2
ENDMDL
MODEL 4
REMARK VINA RESULT:     -11.1      2.637      5.922
REMARK  Name = 58212050
REMARK  2 active torsions:
REMARK  status: ('A' for Active; 'I' for Inactive)
REMARK    1  A    between atoms: C_2  and  C_13
REMARK    2  A    between atoms: C_10  and  C_26
REMARK                            x       y       z     vdW  Elec       q    Type
REMARK                         _______ _______ _______ _____ _____    ______ ____
ROOT
ATOM      1  N   UNL     1      32.308 -23.562 -14.789  0.00  0.00    +0.389 N 
ATOM      2  C   UNL     1      34.779 -23.706 -14.832  0.00  0.00    +0.023 C 
ATOM      3  C   UNL     1      33.453 -24.442 -14.525  0.00  0.00    -0.068 C 
ATOM      4  C   UNL     1      34.739 -22.939 -16.148  0.00  0.00    -0.026 C 
ATOM      5  C   UNL     1      33.508 -22.715 -16.794  0.00  0.00    -0.047 C 
ATOM      6  C   UNL     1      32.225 -23.280 -16.231  0.00  0.00    -0.050 C 
ATOM      7  C   UNL     1      35.904 -22.372 -16.691  0.00  0.00    -0.004 C 
ATOM      8  C   UNL     1      33.474 -21.997 -17.998  0.00  0.00    -0.005 C 
ATOM      9  C   UNL     1      31.065 -24.174 -14.318  0.00  0.00    -0.100 C 
ATOM     10  C   UNL     1      34.644 -21.466 -18.540  0.00  0.00    +0.019 C 
ATOM     11  C   UNL     1      35.857 -21.648 -17.883  0.00  0.00    +0.001 C 
ATOM     12  H   UNL     1      32.441 -22.687 -14.283  0.00  0.00    -0.079 HD
ENDROOT
BRANCH   2  13
ATOM     13  C   UNL     1      35.937 -24.690 -14.715  0.00  0.00    -0.020 C 
ATOM     14  C   UNL     1      37.219 -24.226 -14.417  0.00  0.00    -0.004 C 
ATOM     15  C   UNL     1      35.716 -26.051 -14.906  0.00  0.00    -0.004 C 
ATOM     16  C   UNL     1      38.297 -25.119 -14.307  0.00  0.00    -0.000 C 
ATOM     17  C   UNL     1      38.071 -26.503 -14.501  0.00  0.00    -0.000 C 
ATOM     18  C   UNL     1      36.775 -26.952 -14.800  0.00  0.00    -0.000 C 
ATOM     19  C   UNL     1      39.593 -24.669 -14.008  0.00  0.00    -0.000 C 
ATOM     20  C   UNL     1      39.150 -27.396 -14.392  0.00  0.00    -0.000 C 
ATOM     21  C   UNL     1      40.653 -25.571 -13.903  0.00  0.00    -0.000 C 
ATOM     22  C   UNL     1      40.432 -26.932 -14.094  0.00  0.00    -0.000 C 
ENDBRANCH   2  13
BRANCH  10  26
ATOM     23  N   UNL     1      33.363 -20.542 -20.299  0.00  0.00    -0.147 NA
ATOM     24  N   UNL     1      33.229 -19.851 -21.464  0.00  0.00    -0.133 NA
ATOM     25  N   UNL     1      34.194 -18.645 -23.280  0.00  0.00    -0.341 N 
ATOM     26  C   UNL     1      34.596 -20.721 -19.779  0.00  0.00    +0.103 C 
ATOM     27  C   UNL     1      35.741 -20.233 -20.375  0.00  0.00    +0.024 C 
ATOM     28  C   UNL     1      35.605 -19.531 -21.560  0.00  0.00    +0.037 C 
ATOM     29  C   UNL     1      34.333 -19.363 -22.069  0.00  0.00    +0.147 C 
ATOM     30  H   UNL     1      33.301 -18.507 -23.671  0.00  0.00    +0.144 HD
ATOM     31  H   UNL     1      34.991 -18.284 -23.732  0.00  0.00    +0.144 HD
ENDBRANCH  10  26
TORSDOF 2
ENDMDL
MODEL 5
REMARK VINA RESULT:     -11.0      3.721      8.811
REMARK  Name = 58212050
REMARK  2 active torsions:
REMARK  status: ('A' for Active; 'I' for Inactive)
REMARK    1  A    between atoms: C_2  and  C_13
REMARK    2  A    between atoms: C_10  and  C_26
REMARK                            x       y       z     vdW  Elec       q    Type
REMARK                         _______ _______ _______ _____ _____    ______ ____
ROOT
ATOM      1  N   UNL     1      30.345 -23.217 -16.090  0.00  0.00    +0.389 N 
ATOM      2  C   UNL     1      32.428 -22.870 -17.384  0.00  0.00    +0.023 C 
ATOM      3  C   UNL     1      30.972 -22.405 -17.140  0.00  0.00    -0.068 C 
ATOM      4  C   UNL     1      33.197 -23.107 -16.090  0.00  0.00    -0.026 C 
ATOM      5  C   UNL     1      32.507 -23.179 -14.865  0.00  0.00    -0.047 C 
ATOM      6  C   UNL     1      31.013 -22.961 -14.804  0.00  0.00    -0.050 C 
ATOM      7  C   UNL     1      34.582 -23.343 -16.104  0.00  0.00    -0.004 C 
ATOM      8  C   UNL     1      33.218 -23.410 -13.678  0.00  0.00    -0.005 C 
ATOM      9  C   UNL     1      28.917 -22.919 -15.989  0.00  0.00    -0.100 C 
ATOM     10  C   UNL     1      34.597 -23.612 -13.706  0.00  0.00    +0.019 C 
ATOM     11  C   UNL     1      35.277 -23.586 -14.919  0.00  0.00    +0.001 C 
ATOM     12  H   UNL     1      30.447 -24.203 -16.331  0.00  0.00    -0.079 HD
ENDROOT
BRANCH   2  13
ATOM     13  C   UNL     1      33.107 -21.907 -18.350  0.00  0.00    -0.020 C 
ATOM     14  C   UNL     1      34.499 -21.825 -18.389  0.00  0.00    -0.004 C 
ATOM     15  C   UNL     1      32.338 -21.110 -19.192  0.00  0.00    -0.004 C 
ATOM     16  C   UNL     1      35.140 -20.942 -19.272  0.00  0.00    -0.000 C 
ATOM     17  C   UNL     1      34.358 -20.131 -20.129  0.00  0.00    -0.000 C 
ATOM     18  C   UNL     1      32.958 -20.227 -20.076  0.00  0.00    -0.000 C 
ATOM     19  C   UNL     1      36.540 -20.846 -19.324  0.00  0.00    -0.000 C 
ATOM     20  C   UNL     1      34.999 -19.247 -21.012  0.00  0.00    -0.000 C 
ATOM     21  C   UNL     1      37.161 -19.963 -20.208  0.00  0.00    -0.000 C 
ATOM     22  C   UNL     1      36.392 -19.165 -21.050  0.00  0.00    -0.000 C 
ENDBRANCH   2  13
BRANCH  10  26
ATOM     23  N   UNL     1      34.695 -24.661 -11.588  0.00  0.00    -0.147 NA
ATOM     24  N   UNL     1      35.305 -24.942 -10.406  0.00  0.00    -0.133 NA
ATOM     25  N   UNL     1      37.155 -24.703  -8.920  0.00  0.00    -0.341 N 
ATOM     26  C   UNL     1      35.319 -23.857 -12.476  0.00  0.00    +0.103 C 
ATOM     27  C   UNL     1      36.560 -23.300 -12.242  0.00  0.00    +0.024 C 
ATOM     28  C   UNL     1      37.181 -23.586 -11.039  0.00  0.00    +0.037 C 
ATOM     29  C   UNL     1      36.520 -24.411 -10.150  0.00  0.00    +0.147 C 
ATOM     30  H   UNL     1      36.711 -25.287  -8.264  0.00  0.00    +0.144 HD
ATOM     31  H   UNL     1      38.040 -24.321  -8.721  0.00  0.00    +0.144 HD
ENDBRANCH  10  26
TORSDOF 2
ENDMDL
MODEL 6
REMARK VINA RESULT:     -10.2     12.452     16.892
REMARK  Name = 58212050
REMARK  2 active torsions:
REMARK  status: ('A' for Active; 'I' for Inactive)
REMARK    1  A    between atoms: C_2  and  C_13
REMARK    2  A    between atoms: C_10  and  C_26
REMARK                            x       y       z     vdW  Elec       q    Type
REMARK                         _______ _______ _______ _____ _____    ______ ____
ROOT
ATOM      1  N   UNL     1      31.262  -3.128 -22.152  0.00  0.00    +0.389 N 
ATOM      2  C   UNL     1      32.352  -5.342 -21.958  0.00  0.00    +0.023 C 
ATOM      3  C   UNL     1      31.035  -4.539 -21.820  0.00  0.00    -0.068 C 
ATOM      4  C   UNL     1      33.118  -5.008 -23.232  0.00  0.00    -0.026 C 
ATOM      5  C   UNL     1      32.768  -3.870 -23.984  0.00  0.00    -0.047 C 
ATOM      6  C   UNL     1      31.598  -3.004 -23.580  0.00  0.00    -0.050 C 
ATOM      7  C   UNL     1      34.230  -5.768 -23.629  0.00  0.00    -0.004 C 
ATOM      8  C   UNL     1      33.485  -3.558 -25.149  0.00  0.00    -0.005 C 
ATOM      9  C   UNL     1      30.079  -2.326 -21.837  0.00  0.00    -0.100 C 
ATOM     10  C   UNL     1      34.568  -4.341 -25.546  0.00  0.00    +0.019 C 
ATOM     11  C   UNL     1      34.944  -5.441 -24.782  0.00  0.00    +0.001 C 
ATOM     12  H   UNL     1      32.039  -2.778 -21.593  0.00  0.00    -0.079 HD
ENDROOT
BRANCH   2  13
ATOM     13  C   UNL     1      32.055  -6.826 -21.776  0.00  0.00    -0.020 C 
ATOM     14  C   UNL     1      32.281  -7.436 -20.542  0.00  0.00    -0.004 C 
ATOM     15  C   UNL     1      31.561  -7.572 -22.842  0.00  0.00    -0.004 C 
ATOM     16  C   UNL     1      32.014  -8.802 -20.358  0.00  0.00    -0.000 C 
ATOM     17  C   UNL     1      31.512  -9.561 -21.442  0.00  0.00    -0.000 C 
ATOM     18  C   UNL     1      31.290  -8.931 -22.677  0.00  0.00    -0.000 C 
ATOM     19  C   UNL     1      32.236  -9.432 -19.122  0.00  0.00    -0.000 C 
ATOM     20  C   UNL     1      31.245 -10.928 -21.259  0.00  0.00    -0.000 C 
ATOM     21  C   UNL     1      31.966 -10.791 -18.958  0.00  0.00    -0.000 C 
ATOM     22  C   UNL     1      31.472 -11.537 -20.024  0.00  0.00    -0.000 C 
ENDBRANCH   2  13
BRANCH  10  26
ATOM     23  N   UNL     1      36.649  -4.016 -26.621  0.00  0.00    -0.147 NA
ATOM     24  N   UNL     1      37.416  -3.712 -27.703  0.00  0.00    -0.133 NA
ATOM     25  N   UNL     1      37.610  -3.091 -29.997  0.00  0.00    -0.341 N 
ATOM     26  C   UNL     1      35.304  -4.005 -26.745  0.00  0.00    +0.103 C 
ATOM     27  C   UNL     1      34.661  -3.698 -27.927  0.00  0.00    +0.024 C 
ATOM     28  C   UNL     1      35.441  -3.389 -29.027  0.00  0.00    +0.037 C 
ATOM     29  C   UNL     1      36.813  -3.407 -28.872  0.00  0.00    +0.147 C 
ATOM     30  H   UNL     1      38.592  -3.095 -29.920  0.00  0.00    +0.144 HD
ATOM     31  H   UNL     1      37.184  -2.866 -30.855  0.00  0.00    +0.144 HD
ENDBRANCH  10  26
TORSDOF 2
ENDMDL
MODEL 7
REMARK VINA RESULT:      -9.8     11.457     15.991
REMARK  Name = 58212050
REMARK  2 active torsions:
REMARK  status: ('A' for Active; 'I' for Inactive)
REMARK    1  A    between atoms: C_2  and  C_13
REMARK    2  A    between atoms: C_10  and  C_26
REMARK                            x       y       z     vdW  Elec       q    Type
REMARK                         _______ _______ _______ _____ _____    ______ ____
ROOT
ATOM      1  N   UNL     1      31.470  -4.963 -21.257  0.00  0.00    +0.389 N 
ATOM      2  C   UNL     1      32.795  -7.008 -21.693  0.00  0.00    +0.023 C 
ATOM      3  C   UNL     1      31.438  -6.430 -21.223  0.00  0.00    -0.068 C 
ATOM      4  C   UNL     1      33.331  -6.320 -22.943  0.00  0.00    -0.026 C 
ATOM      5  C   UNL     1      32.762  -5.106 -23.375  0.00  0.00    -0.047 C 
ATOM      6  C   UNL     1      31.581  -4.503 -22.650  0.00  0.00    -0.050 C 
ATOM      7  C   UNL     1      34.445  -6.830 -23.629  0.00  0.00    -0.004 C 
ATOM      8  C   UNL     1      33.268  -4.469 -24.518  0.00  0.00    -0.005 C 
ATOM      9  C   UNL     1      30.270  -4.405 -20.632  0.00  0.00    -0.100 C 
ATOM     10  C   UNL     1      34.355  -5.005 -25.206  0.00  0.00    +0.019 C 
ATOM     11  C   UNL     1      34.947  -6.181 -24.757  0.00  0.00    +0.001 C 
ATOM     12  H   UNL     1      32.281  -4.638 -20.730  0.00  0.00    -0.079 HD
ENDROOT
BRANCH   2  13
ATOM     13  C   UNL     1      32.680  -8.523 -21.813  0.00  0.00    -0.020 C 
ATOM     14  C   UNL     1      33.336  -9.193 -22.846  0.00  0.00    -0.004 C 
ATOM     15  C   UNL     1      31.920  -9.237 -20.892  0.00  0.00    -0.004 C 
ATOM     16  C   UNL     1      33.239 -10.588 -22.970  0.00  0.00    -0.000 C 
ATOM     17  C   UNL     1      32.466 -11.314 -22.034  0.00  0.00    -0.000 C 
ATOM     18  C   UNL     1      31.813 -10.624 -21.001  0.00  0.00    -0.000 C 
ATOM     19  C   UNL     1      33.893 -11.278 -24.005  0.00  0.00    -0.000 C 
ATOM     20  C   UNL     1      32.368 -12.710 -22.159  0.00  0.00    -0.000 C 
ATOM     21  C   UNL     1      33.786 -12.665 -24.114  0.00  0.00    -0.000 C 
ATOM     22  C   UNL     1      33.025 -13.379 -23.193  0.00  0.00    -0.000 C 
ENDBRANCH   2  13
BRANCH  10  26
ATOM     23  N   UNL     1      33.952  -4.013 -27.314  0.00  0.00    -0.147 NA
ATOM     24  N   UNL     1      34.355  -3.381 -28.449  0.00  0.00    -0.133 NA
ATOM     25  N   UNL     1      36.083  -2.433 -29.792  0.00  0.00    -0.341 N 
ATOM     26  C   UNL     1      34.872  -4.335 -26.379  0.00  0.00    +0.103 C 
ATOM     27  C   UNL     1      36.215  -4.051 -26.518  0.00  0.00    +0.024 C 
ATOM     28  C   UNL     1      36.625  -3.408 -27.673  0.00  0.00    +0.037 C 
ATOM     29  C   UNL     1      35.664  -3.091 -28.611  0.00  0.00    +0.147 C 
ATOM     30  H   UNL     1      35.423  -2.193 -30.482  0.00  0.00    +0.144 HD
ATOM     31  H   UNL     1      37.034  -2.217 -29.923  0.00  0.00    +0.144 HD
ENDBRANCH  10  26
TORSDOF 2
ENDMDL
