MODEL 1
REMARK VINA RESULT:     -11.8      0.000      0.000
REMARK  Name = 59473233
REMARK  3 active torsions:
REMARK  status: ('A' for Active; 'I' for Inactive)
REMARK    1  A    between atoms: N_1  and  C_25
REMARK    2  A    between atoms: C_7  and  C_14
REMARK    3  A    between atoms: C_22  and  N_29
REMARK                            x       y       z     vdW  Elec       q    Type
REMARK                         _______ _______ _______ _____ _____    ______ ____
ROOT
ATOM      1  N   UNL     1      36.764 -22.920 -15.654  0.00  0.00    -0.286 N 
ATOM      2  N   UNL     1      35.358 -23.743 -12.331  0.00  0.00    -0.260 N 
ATOM      3  N   UNL     1      34.585 -23.407 -14.968  0.00  0.00    -0.387 NA
ATOM      4  N   UNL     1      37.493 -23.307 -12.807  0.00  0.00    -0.224 NA
ATOM      5  C   UNL     1      35.860 -23.248 -14.671  0.00  0.00    +0.216 C 
ATOM      6  C   UNL     1      36.279 -23.423 -13.294  0.00  0.00    +0.180 C 
ATOM      7  C   UNL     1      33.676 -23.740 -13.964  0.00  0.00    +0.131 C 
ATOM      8  C   UNL     1      34.030 -23.903 -12.669  0.00  0.00    +0.156 C 
ATOM      9  C   UNL     1      36.030 -23.837 -11.145  0.00  0.00    +0.088 C 
ATOM     10  C   UNL     1      37.344 -23.565 -11.465  0.00  0.00    +0.117 C 
ATOM     11  H   UNL     1      37.687 -23.241 -15.529  0.00  0.00    +0.155 HD
ENDROOT
BRANCH   7  14
ATOM     12  N   UNL     1      29.605 -22.677 -16.657  0.00  0.00    -0.236 N 
ATOM     13  N   UNL     1      28.342 -23.133 -16.681  0.00  0.00    -0.180 NA
ATOM     14  C   UNL     1      32.258 -23.893 -14.360  0.00  0.00    +0.028 C 
ATOM     15  C   UNL     1      30.402 -23.279 -15.721  0.00  0.00    +0.067 C 
ATOM     16  C   UNL     1      31.744 -23.094 -15.386  0.00  0.00    +0.018 C 
ATOM     17  C   UNL     1      29.583 -24.206 -15.085  0.00  0.00    +0.035 C 
ATOM     18  C   UNL     1      31.457 -24.830 -13.703  0.00  0.00    +0.002 C 
ATOM     19  C   UNL     1      30.113 -25.001 -14.055  0.00  0.00    +0.003 C 
ATOM     20  C   UNL     1      28.331 -24.062 -15.723  0.00  0.00    +0.119 C 
ATOM     21  H   UNL     1      29.929 -21.970 -17.260  0.00  0.00    +0.174 HD
ENDBRANCH   7  14
BRANCH   1  25
ATOM     22  C   UNL     1      36.002 -20.711 -19.121  0.00  0.00    +0.048 C 
ATOM     23  C   UNL     1      37.170 -20.485 -18.393  0.00  0.00    +0.016 C 
ATOM     24  C   UNL     1      35.088 -21.673 -18.692  0.00  0.00    +0.016 C 
ATOM     25  C   UNL     1      36.510 -22.184 -16.807  0.00  0.00    +0.050 C 
ATOM     26  C   UNL     1      37.424 -21.221 -17.235  0.00  0.00    +0.016 C 
ATOM     27  C   UNL     1      35.341 -22.409 -17.536  0.00  0.00    +0.016 C 
BRANCH  22  29
ATOM     28  O   UNL     1      35.192 -18.267 -22.445  0.00  0.00    -0.350 OA
ATOM     29  N   UNL     1      35.748 -19.972 -20.281  0.00  0.00    -0.303 N 
ATOM     30  C   UNL     1      36.676 -18.888 -20.630  0.00  0.00    +0.123 C 
ATOM     31  C   UNL     1      34.367 -19.784 -20.742  0.00  0.00    +0.123 C 
ATOM     32  C   UNL     1      36.549 -18.559 -22.113  0.00  0.00    +0.164 C 
ATOM     33  C   UNL     1      34.363 -19.406 -22.219  0.00  0.00    +0.164 C 
ENDBRANCH  22  29
ENDBRANCH   1  25
TORSDOF 3
ENDMDL
MODEL 2
REMARK VINA RESULT:     -11.0      1.208      1.522
REMARK  Name = 59473233
REMARK  3 active torsions:
REMARK  status: ('A' for Active; 'I' for Inactive)
REMARK    1  A    between atoms: N_1  and  C_25
REMARK    2  A    between atoms: C_7  and  C_14
REMARK    3  A    between atoms: C_22  and  N_29
REMARK                            x       y       z     vdW  Elec       q    Type
REMARK                         _______ _______ _______ _____ _____    ______ ____
ROOT
ATOM      1  N   UNL     1      36.851 -22.493 -16.543  0.00  0.00    -0.286 N 
ATOM      2  N   UNL     1      35.755 -23.411 -13.129  0.00  0.00    -0.260 N 
ATOM      3  N   UNL     1      34.748 -23.031 -15.680  0.00  0.00    -0.387 NA
ATOM      4  N   UNL     1      37.833 -22.929 -13.780  0.00  0.00    -0.224 NA
ATOM      5  C   UNL     1      36.042 -22.856 -15.491  0.00  0.00    +0.216 C 
ATOM      6  C   UNL     1      36.582 -23.055 -14.161  0.00  0.00    +0.180 C 
ATOM      7  C   UNL     1      33.936 -23.400 -14.608  0.00  0.00    +0.131 C 
ATOM      8  C   UNL     1      34.404 -23.586 -13.353  0.00  0.00    +0.156 C 
ATOM      9  C   UNL     1      36.530 -23.520 -12.009  0.00  0.00    +0.088 C 
ATOM     10  C   UNL     1      37.806 -23.219 -12.436  0.00  0.00    +0.117 C 
ATOM     11  H   UNL     1      37.786 -22.801 -16.506  0.00  0.00    +0.155 HD
ENDROOT
BRANCH   7  14
ATOM     12  N   UNL     1      29.395 -25.338 -13.844  0.00  0.00    -0.236 N 
ATOM     13  N   UNL     1      28.190 -25.178 -14.417  0.00  0.00    -0.180 NA
ATOM     14  C   UNL     1      32.491 -23.568 -14.882  0.00  0.00    +0.028 C 
ATOM     15  C   UNL     1      30.387 -24.577 -14.402  0.00  0.00    +0.067 C 
ATOM     16  C   UNL     1      31.745 -24.457 -14.101  0.00  0.00    +0.018 C 
ATOM     17  C   UNL     1      29.771 -23.863 -15.423  0.00  0.00    +0.035 C 
ATOM     18  C   UNL     1      31.898 -22.840 -15.915  0.00  0.00    +0.002 C 
ATOM     19  C   UNL     1      30.533 -22.975 -16.200  0.00  0.00    +0.003 C 
ATOM     20  C   UNL     1      28.423 -24.281 -15.378  0.00  0.00    +0.119 C 
ATOM     21  H   UNL     1      29.550 -25.950 -13.089  0.00  0.00    +0.174 HD
ENDBRANCH   7  14
BRANCH   1  25
ATOM     22  C   UNL     1      35.756 -20.220 -19.877  0.00  0.00    +0.048 C 
ATOM     23  C   UNL     1      36.968 -19.974 -19.233  0.00  0.00    +0.016 C 
ATOM     24  C   UNL     1      34.909 -21.224 -19.408  0.00  0.00    +0.016 C 
ATOM     25  C   UNL     1      36.486 -21.735 -17.651  0.00  0.00    +0.050 C 
ATOM     26  C   UNL     1      37.334 -20.731 -18.119  0.00  0.00    +0.016 C 
ATOM     27  C   UNL     1      35.273 -21.982 -18.296  0.00  0.00    +0.016 C 
BRANCH  22  29
ATOM     28  O   UNL     1      34.500 -17.778 -23.061  0.00  0.00    -0.350 OA
ATOM     29  N   UNL     1      35.390 -19.460 -20.993  0.00  0.00    -0.303 N 
ATOM     30  C   UNL     1      35.831 -18.060 -21.053  0.00  0.00    +0.123 C 
ATOM     31  C   UNL     1      34.135 -19.751 -21.697  0.00  0.00    +0.123 C 
ATOM     32  C   UNL     1      35.795 -17.571 -22.496  0.00  0.00    +0.164 C 
ATOM     33  C   UNL     1      34.189 -19.170 -23.105  0.00  0.00    +0.164 C 
ENDBRANCH  22  29
ENDBRANCH   1  25
TORSDOF 3
ENDMDL
MODEL 3
REMARK VINA RESULT:      -9.4      1.379      2.109
REMARK  Name = 59473233
REMARK  3 active torsions:
REMARK  status: ('A' for Active; 'I' for Inactive)
REMARK    1  A    between atoms: N_1  and  C_25
REMARK    2  A    between atoms: C_7  and  C_14
REMARK    3  A    between atoms: C_22  and  N_29
REMARK                            x       y       z     vdW  Elec       q    Type
REMARK                         _______ _______ _______ _____ _____    ______ ____
ROOT
ATOM      1  N   UNL     1      35.625 -23.111 -16.187  0.00  0.00    -0.286 N 
ATOM      2  N   UNL     1      33.927 -23.785 -12.968  0.00  0.00    -0.260 N 
ATOM      3  N   UNL     1      33.364 -23.135 -15.600  0.00  0.00    -0.387 NA
ATOM      4  N   UNL     1      36.124 -23.813 -13.351  0.00  0.00    -0.224 NA
ATOM      5  C   UNL     1      34.628 -23.282 -15.255  0.00  0.00    +0.216 C 
ATOM      6  C   UNL     1      34.937 -23.626 -13.881  0.00  0.00    +0.180 C 
ATOM      7  C   UNL     1      32.360 -23.312 -14.647  0.00  0.00    +0.131 C 
ATOM      8  C   UNL     1      32.612 -23.624 -13.356  0.00  0.00    +0.156 C 
ATOM      9  C   UNL     1      34.508 -24.097 -11.772  0.00  0.00    +0.088 C 
ATOM     10  C   UNL     1      35.862 -24.108 -12.033  0.00  0.00    +0.117 C 
ATOM     11  H   UNL     1      36.446 -23.637 -16.056  0.00  0.00    +0.155 HD
ENDROOT
BRANCH   7  14
ATOM     12  N   UNL     1      27.554 -22.093 -14.033  0.00  0.00    -0.236 N 
ATOM     13  N   UNL     1      26.477 -22.063 -14.835  0.00  0.00    -0.180 NA
ATOM     14  C   UNL     1      30.963 -23.119 -15.094  0.00  0.00    +0.028 C 
ATOM     15  C   UNL     1      28.703 -22.507 -14.652  0.00  0.00    +0.067 C 
ATOM     16  C   UNL     1      30.006 -22.672 -14.177  0.00  0.00    +0.018 C 
ATOM     17  C   UNL     1      28.337 -22.766 -15.968  0.00  0.00    +0.035 C 
ATOM     18  C   UNL     1      30.622 -23.388 -16.421  0.00  0.00    +0.002 C 
ATOM     19  C   UNL     1      29.309 -23.216 -16.878  0.00  0.00    +0.003 C 
ATOM     20  C   UNL     1      26.957 -22.473 -16.011  0.00  0.00    +0.119 C 
ATOM     21  H   UNL     1      27.520 -21.840 -13.083  0.00  0.00    +0.174 HD
ENDBRANCH   7  14
BRANCH   1  25
ATOM     22  C   UNL     1      35.523 -20.584 -19.517  0.00  0.00    +0.048 C 
ATOM     23  C   UNL     1      34.391 -21.320 -19.165  0.00  0.00    +0.016 C 
ATOM     24  C   UNL     1      36.688 -20.691 -18.758  0.00  0.00    +0.016 C 
ATOM     25  C   UNL     1      35.591 -22.271 -17.297  0.00  0.00    +0.050 C 
ATOM     26  C   UNL     1      34.425 -22.164 -18.055  0.00  0.00    +0.016 C 
ATOM     27  C   UNL     1      36.723 -21.535 -17.648  0.00  0.00    +0.016 C 
BRANCH  22  29
ATOM     28  O   UNL     1      35.552 -18.240 -23.007  0.00  0.00    -0.350 OA
ATOM     29  N   UNL     1      35.489 -19.738 -20.630  0.00  0.00    -0.303 N 
ATOM     30  C   UNL     1      34.687 -20.151 -21.790  0.00  0.00    +0.123 C 
ATOM     31  C   UNL     1      36.645 -18.889 -20.941  0.00  0.00    +0.123 C 
ATOM     32  C   UNL     1      34.358 -18.934 -22.648  0.00  0.00    +0.164 C 
ATOM     33  C   UNL     1      36.212 -17.740 -21.845  0.00  0.00    +0.164 C 
ENDBRANCH  22  29
ENDBRANCH   1  25
TORSDOF 3
ENDMDL
MODEL 4
REMARK VINA RESULT:      -9.1      2.554      7.070
REMARK  Name = 59473233
REMARK  3 active torsions:
REMARK  status: ('A' for Active; 'I' for Inactive)
REMARK    1  A    between atoms: N_1  and  C_25
REMARK    2  A    between atoms: C_7  and  C_14
REMARK    3  A    between atoms: C_22  and  N_29
REMARK                            x       y       z     vdW  Elec       q    Type
REMARK                         _______ _______ _______ _____ _____    ______ ____
ROOT
ATOM      1  N   UNL     1      33.915 -24.004 -12.640  0.00  0.00    -0.286 N 
ATOM      2  N   UNL     1      37.486 -24.682 -13.332  0.00  0.00    -0.260 N 
ATOM      3  N   UNL     1      35.372 -23.152 -14.255  0.00  0.00    -0.387 NA
ATOM      4  N   UNL     1      36.241 -25.596 -11.724  0.00  0.00    -0.224 NA
ATOM      5  C   UNL     1      35.159 -23.947 -13.225  0.00  0.00    +0.216 C 
ATOM      6  C   UNL     1      36.258 -24.752 -12.730  0.00  0.00    +0.180 C 
ATOM      7  C   UNL     1      36.637 -23.100 -14.840  0.00  0.00    +0.131 C 
ATOM      8  C   UNL     1      37.683 -23.843 -14.410  0.00  0.00    +0.156 C 
ATOM      9  C   UNL     1      38.313 -25.542 -12.666  0.00  0.00    +0.088 C 
ATOM     10  C   UNL     1      37.522 -26.093 -11.679  0.00  0.00    +0.117 C 
ATOM     11  H   UNL     1      33.889 -24.211 -11.678  0.00  0.00    +0.155 HD
ENDROOT
BRANCH   7  14
ATOM     12  N   UNL     1      35.601 -21.395 -19.419  0.00  0.00    -0.236 N 
ATOM     13  N   UNL     1      36.077 -20.402 -20.189  0.00  0.00    -0.180 NA
ATOM     14  C   UNL     1      36.809 -22.198 -16.000  0.00  0.00    +0.028 C 
ATOM     15  C   UNL     1      36.206 -21.496 -18.195  0.00  0.00    +0.067 C 
ATOM     16  C   UNL     1      36.003 -22.375 -17.130  0.00  0.00    +0.018 C 
ATOM     17  C   UNL     1      37.155 -20.480 -18.171  0.00  0.00    +0.035 C 
ATOM     18  C   UNL     1      37.770 -21.187 -15.949  0.00  0.00    +0.002 C 
ATOM     19  C   UNL     1      37.957 -20.315 -17.029  0.00  0.00    +0.003 C 
ATOM     20  C   UNL     1      37.023 -19.848 -19.426  0.00  0.00    +0.119 C 
ATOM     21  H   UNL     1      34.880 -21.998 -19.711  0.00  0.00    +0.174 HD
ENDBRANCH   7  14
BRANCH   1  25
ATOM     22  C   UNL     1      30.236 -23.388 -14.530  0.00  0.00    +0.048 C 
ATOM     23  C   UNL     1      31.253 -22.442 -14.658  0.00  0.00    +0.016 C 
ATOM     24  C   UNL     1      30.447 -24.539 -13.771  0.00  0.00    +0.016 C 
ATOM     25  C   UNL     1      32.690 -23.798 -13.268  0.00  0.00    +0.050 C 
ATOM     26  C   UNL     1      32.481 -22.646 -14.027  0.00  0.00    +0.016 C 
ATOM     27  C   UNL     1      31.672 -24.744 -13.140  0.00  0.00    +0.016 C 
BRANCH  22  29
ATOM     28  O   UNL     1      26.661 -22.569 -16.585  0.00  0.00    -0.350 OA
ATOM     29  N   UNL     1      29.006 -23.182 -15.163  0.00  0.00    -0.303 N 
ATOM     30  C   UNL     1      28.902 -23.496 -16.595  0.00  0.00    +0.123 C 
ATOM     31  C   UNL     1      28.107 -22.123 -14.689  0.00  0.00    +0.123 C 
ATOM     32  C   UNL     1      27.439 -23.701 -16.971  0.00  0.00    +0.164 C 
ATOM     33  C   UNL     1      26.687 -22.401 -15.169  0.00  0.00    +0.164 C 
ENDBRANCH  22  29
ENDBRANCH   1  25
TORSDOF 3
ENDMDL
MODEL 5
REMARK VINA RESULT:      -9.0     12.912     16.915
REMARK  Name = 59473233
REMARK  3 active torsions:
REMARK  status: ('A' for Active; 'I' for Inactive)
REMARK    1  A    between atoms: N_1  and  C_25
REMARK    2  A    between atoms: C_7  and  C_14
REMARK    3  A    between atoms: C_22  and  N_29
REMARK                            x       y       z     vdW  Elec       q    Type
REMARK                         _______ _______ _______ _____ _____    ______ ____
ROOT
ATOM      1  N   UNL     1      33.586  -6.193 -22.336  0.00  0.00    -0.286 N 
ATOM      2  N   UNL     1      32.169  -8.992 -20.371  0.00  0.00    -0.260 N 
ATOM      3  N   UNL     1      33.382  -8.473 -22.805  0.00  0.00    -0.387 NA
ATOM      4  N   UNL     1      32.286  -6.852 -19.755  0.00  0.00    -0.224 NA
ATOM      5  C   UNL     1      33.191  -7.462 -21.980  0.00  0.00    +0.216 C 
ATOM      6  C   UNL     1      32.559  -7.720 -20.701  0.00  0.00    +0.180 C 
ATOM      7  C   UNL     1      32.979  -9.756 -22.434  0.00  0.00    +0.131 C 
ATOM      8  C   UNL     1      32.380 -10.031 -21.254  0.00  0.00    +0.156 C 
ATOM      9  C   UNL     1      31.607  -8.932 -19.127  0.00  0.00    +0.088 C 
ATOM     10  C   UNL     1      31.691  -7.603 -18.769  0.00  0.00    +0.117 C 
ATOM     11  H   UNL     1      33.851  -5.592 -21.603  0.00  0.00    +0.155 HD
ENDROOT
BRANCH   7  14
ATOM     12  N   UNL     1      33.452 -14.526 -23.842  0.00  0.00    -0.236 N 
ATOM     13  N   UNL     1      33.699 -15.147 -25.007  0.00  0.00    -0.180 NA
ATOM     14  C   UNL     1      33.210 -10.844 -23.410  0.00  0.00    +0.028 C 
ATOM     15  C   UNL     1      33.410 -13.160 -23.932  0.00  0.00    +0.067 C 
ATOM     16  C   UNL     1      33.187 -12.173 -22.971  0.00  0.00    +0.018 C 
ATOM     17  C   UNL     1      33.649 -12.874 -25.272  0.00  0.00    +0.035 C 
ATOM     18  C   UNL     1      33.449 -10.530 -24.749  0.00  0.00    +0.002 C 
ATOM     19  C   UNL     1      33.671 -11.535 -25.697  0.00  0.00    +0.003 C 
ATOM     20  C   UNL     1      33.818 -14.140 -25.874  0.00  0.00    +0.119 C 
ATOM     21  H   UNL     1      33.315 -15.010 -22.996  0.00  0.00    +0.174 HD
ENDBRANCH   7  14
BRANCH   1  25
ATOM     22  C   UNL     1      33.777  -4.623 -26.207  0.00  0.00    +0.048 C 
ATOM     23  C   UNL     1      32.549  -4.713 -25.551  0.00  0.00    +0.016 C 
ATOM     24  C   UNL     1      34.940  -5.058 -25.572  0.00  0.00    +0.016 C 
ATOM     25  C   UNL     1      33.649  -5.672 -23.625  0.00  0.00    +0.050 C 
ATOM     26  C   UNL     1      32.485  -5.238 -24.259  0.00  0.00    +0.016 C 
ATOM     27  C   UNL     1      34.877  -5.582 -24.282  0.00  0.00    +0.016 C 
BRANCH  22  29
ATOM     28  O   UNL     1      34.144  -2.849 -30.000  0.00  0.00    -0.350 OA
ATOM     29  N   UNL     1      33.840  -4.098 -27.501  0.00  0.00    -0.303 N 
ATOM     30  C   UNL     1      35.122  -4.169 -28.217  0.00  0.00    +0.123 C 
ATOM     31  C   UNL     1      32.977  -2.972 -27.877  0.00  0.00    +0.123 C 
ATOM     32  C   UNL     1      34.882  -4.037 -29.716  0.00  0.00    +0.164 C 
ATOM     33  C   UNL     1      32.853  -2.903 -29.395  0.00  0.00    +0.164 C 
ENDBRANCH  22  29
ENDBRANCH   1  25
TORSDOF 3
ENDMDL
