MODEL 1
REMARK VINA RESULT:     -11.0      0.000      0.000
REMARK  Name = 24821094
REMARK  5 active torsions:
REMARK  status: ('A' for Active; 'I' for Inactive)
REMARK    1  A    between atoms: N_1  and  C_12
REMARK    2  A    between atoms: C_7  and  C_20
REMARK    3  A    between atoms: C_17  and  C_18
REMARK    4  A    between atoms: C_25  and  O_26
REMARK    5  A    between atoms: O_26  and  C_27
REMARK                            x       y       z     vdW  Elec       q    Type
REMARK                         _______ _______ _______ _____ _____    ______ ____
ROOT
ATOM      1  N   UNL     1      33.146  -9.893 -22.881  0.00  0.00    -0.198 N 
ATOM      2  N   UNL     1      33.707 -10.963 -23.473  0.00  0.00    -0.181 NA
ATOM      3  N   UNL     1      31.798  -9.339 -20.948  0.00  0.00    -0.231 NA
ATOM      4  N   UNL     1      31.263 -11.317 -19.625  0.00  0.00    -0.234 NA
ATOM      5  C   UNL     1      32.456 -10.195 -21.745  0.00  0.00    +0.137 C 
ATOM      6  C   UNL     1      32.575 -11.564 -21.580  0.00  0.00    +0.150 C 
ATOM      7  C   UNL     1      33.355 -11.978 -22.675  0.00  0.00    +0.090 C 
ATOM      8  C   UNL     1      31.946 -12.123 -20.472  0.00  0.00    +0.112 C 
ATOM      9  C   UNL     1      31.231  -9.994 -19.911  0.00  0.00    +0.252 C 
ATOM     10  N   UNL     1      32.010 -13.506 -20.217  0.00  0.00    -0.346 N 
ATOM     11  H   UNL     1      31.559 -13.881 -19.427  0.00  0.00    +0.143 HD
ATOM     12  H   UNL     1      32.507 -14.097 -20.828  0.00  0.00    +0.143 HD
ENDROOT
BRANCH   1  15
ATOM     13  O   UNL     1      32.551  -3.966 -23.718  0.00  0.00    -0.270 OA
ATOM     14  N   UNL     1      33.306  -6.083 -23.120  0.00  0.00    -0.274 N 
ATOM     15  C   UNL     1      33.322  -8.519 -23.500  0.00  0.00    +0.117 C 
ATOM     16  C   UNL     1      34.684  -8.380 -24.209  0.00  0.00    +0.025 C 
ATOM     17  C   UNL     1      33.137  -7.391 -22.471  0.00  0.00    +0.115 C 
ATOM     18  C   UNL     1      34.856  -6.980 -24.802  0.00  0.00    +0.023 C 
ATOM     19  C   UNL     1      34.614  -5.896 -23.753  0.00  0.00    +0.094 C 
ATOM     20  C   UNL     1      32.369  -5.054 -23.170  0.00  0.00    +0.249 C 
BRANCH  20  21
ATOM     21  C   UNL     1      31.061  -5.285 -22.526  0.00  0.00    +0.058 C 
ATOM     22  C   UNL     1      30.846  -4.787 -21.306  0.00  0.00    +0.005 C 
ENDBRANCH  20  21
ENDBRANCH   1  15
BRANCH   7  23
ATOM     23  C   UNL     1      33.781 -13.319 -22.991  0.00  0.00    +0.016 C 
ATOM     24  C   UNL     1      34.521 -14.051 -22.063  0.00  0.00    +0.004 C 
ATOM     25  C   UNL     1      33.452 -13.884 -24.223  0.00  0.00    +0.004 C 
ATOM     26  C   UNL     1      34.933 -15.348 -22.368  0.00  0.00    +0.038 C 
ATOM     27  C   UNL     1      33.864 -15.182 -24.528  0.00  0.00    +0.038 C 
ATOM     28  C   UNL     1      34.604 -15.913 -23.600  0.00  0.00    +0.145 C 
BRANCH  28  29
ATOM     29  O   UNL     1      35.009 -17.178 -23.899  0.00  0.00    -0.453 OA
BRANCH  29  30
ATOM     30  C   UNL     1      35.179 -18.065 -22.849  0.00  0.00    +0.145 C 
ATOM     31  C   UNL     1      34.158 -18.956 -22.517  0.00  0.00    +0.037 C 
ATOM     32  C   UNL     1      36.370 -18.068 -22.123  0.00  0.00    +0.037 C 
ATOM     33  C   UNL     1      34.328 -19.849 -21.458  0.00  0.00    +0.003 C 
ATOM     34  C   UNL     1      36.541 -18.961 -21.066  0.00  0.00    +0.003 C 
ATOM     35  C   UNL     1      35.519 -19.851 -20.733  0.00  0.00    +0.000 C 
ENDBRANCH  29  30
ENDBRANCH  28  29
ENDBRANCH   7  23
TORSDOF 5
ENDMDL
MODEL 2
REMARK VINA RESULT:     -10.7      8.611     15.398
REMARK  Name = 24821094
REMARK  5 active torsions:
REMARK  status: ('A' for Active; 'I' for Inactive)
REMARK    1  A    between atoms: N_1  and  C_12
REMARK    2  A    between atoms: C_7  and  C_20
REMARK    3  A    between atoms: C_17  and  C_18
REMARK    4  A    between atoms: C_25  and  O_26
REMARK    5  A    between atoms: O_26  and  C_27
REMARK                            x       y       z     vdW  Elec       q    Type
REMARK                         _______ _______ _______ _____ _____    ______ ____
ROOT
ATOM      1  N   UNL     1      34.580 -23.941 -14.677  0.00  0.00    -0.198 N 
ATOM      2  N   UNL     1      35.444 -23.383 -15.544  0.00  0.00    -0.181 NA
ATOM      3  N   UNL     1      32.196 -24.180 -14.334  0.00  0.00    -0.231 NA
ATOM      4  N   UNL     1      30.916 -23.077 -16.093  0.00  0.00    -0.234 NA
ATOM      5  C   UNL     1      33.272 -23.744 -15.006  0.00  0.00    +0.137 C 
ATOM      6  C   UNL     1      33.281 -23.003 -16.175  0.00  0.00    +0.150 C 
ATOM      7  C   UNL     1      34.646 -22.814 -16.455  0.00  0.00    +0.090 C 
ATOM      8  C   UNL     1      32.045 -22.669 -16.720  0.00  0.00    +0.112 C 
ATOM      9  C   UNL     1      31.059 -23.796 -14.955  0.00  0.00    +0.252 C 
ATOM     10  N   UNL     1      31.950 -21.920 -17.908  0.00  0.00    -0.346 N 
ATOM     11  H   UNL     1      31.065 -21.695 -18.277  0.00  0.00    +0.143 HD
ATOM     12  H   UNL     1      32.766 -21.622 -18.369  0.00  0.00    +0.143 HD
ENDROOT
BRANCH   1  15
ATOM     13  O   UNL     1      37.720 -27.947 -11.473  0.00  0.00    -0.270 OA
ATOM     14  N   UNL     1      36.971 -26.026 -12.547  0.00  0.00    -0.274 N 
ATOM     15  C   UNL     1      35.112 -24.697 -13.474  0.00  0.00    +0.117 C 
ATOM     16  C   UNL     1      35.135 -23.817 -12.208  0.00  0.00    +0.025 C 
ATOM     17  C   UNL     1      36.504 -25.296 -13.736  0.00  0.00    +0.115 C 
ATOM     18  C   UNL     1      35.703 -24.587 -11.013  0.00  0.00    +0.023 C 
ATOM     19  C   UNL     1      37.061 -25.203 -11.340  0.00  0.00    +0.094 C 
ATOM     20  C   UNL     1      37.324 -27.371 -12.487  0.00  0.00    +0.249 C 
BRANCH  20  21
ATOM     21  C   UNL     1      37.212 -28.168 -13.725  0.00  0.00    +0.058 C 
ATOM     22  C   UNL     1      36.847 -29.448 -13.636  0.00  0.00    +0.005 C 
ENDBRANCH  20  21
ENDBRANCH   1  15
BRANCH   7  23
ATOM     23  C   UNL     1      35.223 -22.103 -17.569  0.00  0.00    +0.016 C 
ATOM     24  C   UNL     1      34.491 -21.939 -18.744  0.00  0.00    +0.004 C 
ATOM     25  C   UNL     1      36.511 -21.579 -17.471  0.00  0.00    +0.004 C 
ATOM     26  C   UNL     1      35.048 -21.251 -19.822  0.00  0.00    +0.038 C 
ATOM     27  C   UNL     1      37.069 -20.890 -18.548  0.00  0.00    +0.038 C 
ATOM     28  C   UNL     1      36.337 -20.727 -19.724  0.00  0.00    +0.145 C 
BRANCH  28  29
ATOM     29  O   UNL     1      36.882 -20.058 -20.777  0.00  0.00    -0.453 OA
BRANCH  29  30
ATOM     30  C   UNL     1      36.181 -18.979 -21.287  0.00  0.00    +0.145 C 
ATOM     31  C   UNL     1      35.726 -19.003 -22.606  0.00  0.00    +0.037 C 
ATOM     32  C   UNL     1      35.929 -17.867 -20.483  0.00  0.00    +0.037 C 
ATOM     33  C   UNL     1      35.020 -17.914 -23.120  0.00  0.00    +0.003 C 
ATOM     34  C   UNL     1      35.223 -16.779 -20.997  0.00  0.00    +0.003 C 
ATOM     35  C   UNL     1      34.770 -16.803 -22.316  0.00  0.00    +0.000 C 
ENDBRANCH  29  30
ENDBRANCH  28  29
ENDBRANCH   7  23
TORSDOF 5
ENDMDL
MODEL 3
REMARK VINA RESULT:     -10.7      9.840     15.658
REMARK  Name = 24821094
REMARK  5 active torsions:
REMARK  status: ('A' for Active; 'I' for Inactive)
REMARK    1  A    between atoms: N_1  and  C_12
REMARK    2  A    between atoms: C_7  and  C_20
REMARK    3  A    between atoms: C_17  and  C_18
REMARK    4  A    between atoms: C_25  and  O_26
REMARK    5  A    between atoms: O_26  and  C_27
REMARK                            x       y       z     vdW  Elec       q    Type
REMARK                         _______ _______ _______ _____ _____    ______ ____
ROOT
ATOM      1  N   UNL     1      34.618 -24.444 -14.446  0.00  0.00    -0.198 N 
ATOM      2  N   UNL     1      34.923 -23.829 -15.604  0.00  0.00    -0.181 NA
ATOM      3  N   UNL     1      32.721 -24.817 -12.991  0.00  0.00    -0.231 NA
ATOM      4  N   UNL     1      30.698 -23.767 -13.859  0.00  0.00    -0.234 NA
ATOM      5  C   UNL     1      33.310 -24.315 -14.087  0.00  0.00    +0.137 C 
ATOM      6  C   UNL     1      32.713 -23.562 -15.083  0.00  0.00    +0.150 C 
ATOM      7  C   UNL     1      33.758 -23.295 -15.987  0.00  0.00    +0.090 C 
ATOM      8  C   UNL     1      31.356 -23.291 -14.942  0.00  0.00    +0.112 C 
ATOM      9  C   UNL     1      31.410 -24.490 -12.963  0.00  0.00    +0.252 C 
ATOM     10  N   UNL     1      30.660 -22.535 -15.903  0.00  0.00    -0.346 N 
ATOM     11  H   UNL     1      29.699 -22.354 -15.785  0.00  0.00    +0.143 HD
ATOM     12  H   UNL     1      31.132 -22.187 -16.694  0.00  0.00    +0.143 HD
ENDROOT
BRANCH   1  15
ATOM     13  O   UNL     1      39.003 -28.397 -13.295  0.00  0.00    -0.270 OA
ATOM     14  N   UNL     1      37.787 -26.492 -13.843  0.00  0.00    -0.274 N 
ATOM     15  C   UNL     1      35.703 -25.183 -13.685  0.00  0.00    +0.117 C 
ATOM     16  C   UNL     1      36.368 -24.288 -12.621  0.00  0.00    +0.025 C 
ATOM     17  C   UNL     1      36.766 -25.778 -14.625  0.00  0.00    +0.115 C 
ATOM     18  C   UNL     1      37.479 -25.042 -11.885  0.00  0.00    +0.023 C 
ATOM     19  C   UNL     1      38.480 -25.655 -12.862  0.00  0.00    +0.094 C 
ATOM     20  C   UNL     1      38.134 -27.835 -13.963  0.00  0.00    +0.249 C 
BRANCH  20  21
ATOM     21  C   UNL     1      37.407 -28.647 -14.959  0.00  0.00    +0.058 C 
ATOM     22  C   UNL     1      37.991 -28.906 -16.131  0.00  0.00    +0.005 C 
ENDBRANCH  20  21
ENDBRANCH   1  15
BRANCH   7  23
ATOM     23  C   UNL     1      33.684 -22.541 -17.214  0.00  0.00    +0.016 C 
ATOM     24  C   UNL     1      32.458 -22.043 -17.652  0.00  0.00    +0.004 C 
ATOM     25  C   UNL     1      34.839 -22.309 -17.961  0.00  0.00    +0.004 C 
ATOM     26  C   UNL     1      32.386 -21.313 -18.839  0.00  0.00    +0.038 C 
ATOM     27  C   UNL     1      34.767 -21.578 -19.147  0.00  0.00    +0.038 C 
ATOM     28  C   UNL     1      33.541 -21.080 -19.586  0.00  0.00    +0.145 C 
BRANCH  28  29
ATOM     29  O   UNL     1      33.470 -20.371 -20.746  0.00  0.00    -0.453 OA
BRANCH  29  30
ATOM     30  C   UNL     1      34.606 -19.695 -21.157  0.00  0.00    +0.145 C 
ATOM     31  C   UNL     1      34.661 -19.136 -22.434  0.00  0.00    +0.037 C 
ATOM     32  C   UNL     1      35.697 -19.574 -20.296  0.00  0.00    +0.037 C 
ATOM     33  C   UNL     1      35.806 -18.455 -22.849  0.00  0.00    +0.003 C 
ATOM     34  C   UNL     1      36.842 -18.894 -20.711  0.00  0.00    +0.003 C 
ATOM     35  C   UNL     1      36.896 -18.336 -21.988  0.00  0.00    +0.000 C 
ENDBRANCH  29  30
ENDBRANCH  28  29
ENDBRANCH   7  23
TORSDOF 5
ENDMDL
MODEL 4
REMARK VINA RESULT:     -10.4      3.058     10.270
REMARK  Name = 24821094
REMARK  5 active torsions:
REMARK  status: ('A' for Active; 'I' for Inactive)
REMARK    1  A    between atoms: N_1  and  C_12
REMARK    2  A    between atoms: C_7  and  C_20
REMARK    3  A    between atoms: C_17  and  C_18
REMARK    4  A    between atoms: C_25  and  O_26
REMARK    5  A    between atoms: O_26  and  C_27
REMARK                            x       y       z     vdW  Elec       q    Type
REMARK                         _______ _______ _______ _____ _____    ______ ____
ROOT
ATOM      1  N   UNL     1      32.448  -9.385 -22.424  0.00  0.00    -0.198 N 
ATOM      2  N   UNL     1      32.637  -8.523 -23.440  0.00  0.00    -0.181 NA
ATOM      3  N   UNL     1      32.071  -9.376 -20.033  0.00  0.00    -0.231 NA
ATOM      4  N   UNL     1      32.002  -7.108 -19.140  0.00  0.00    -0.234 NA
ATOM      5  C   UNL     1      32.277  -8.777 -21.216  0.00  0.00    +0.137 C 
ATOM      6  C   UNL     1      32.359  -7.417 -21.459  0.00  0.00    +0.150 C 
ATOM      7  C   UNL     1      32.581  -7.326 -22.845  0.00  0.00    +0.090 C 
ATOM      8  C   UNL     1      32.213  -6.571 -20.365  0.00  0.00    +0.112 C 
ATOM      9  C   UNL     1      31.945  -8.458 -19.050  0.00  0.00    +0.252 C 
ATOM     10  N   UNL     1      32.278  -5.173 -20.510  0.00  0.00    -0.346 N 
ATOM     11  H   UNL     1      32.172  -4.591 -19.722  0.00  0.00    +0.143 HD
ATOM     12  H   UNL     1      32.430  -4.776 -21.398  0.00  0.00    +0.143 HD
ENDROOT
BRANCH   1  15
ATOM     13  O   UNL     1      33.457 -14.596 -25.253  0.00  0.00    -0.270 OA
ATOM     14  N   UNL     1      33.570 -12.751 -23.843  0.00  0.00    -0.274 N 
ATOM     15  C   UNL     1      32.445 -10.877 -22.701  0.00  0.00    +0.117 C 
ATOM     16  C   UNL     1      32.434 -11.702 -21.399  0.00  0.00    +0.025 C 
ATOM     17  C   UNL     1      33.624 -11.302 -23.595  0.00  0.00    +0.115 C 
ATOM     18  C   UNL     1      32.461 -13.203 -21.698  0.00  0.00    +0.023 C 
ATOM     19  C   UNL     1      33.618 -13.566 -22.627  0.00  0.00    +0.094 C 
ATOM     20  C   UNL     1      33.491 -13.377 -25.084  0.00  0.00    +0.249 C 
BRANCH  20  21
ATOM     21  C   UNL     1      33.438 -12.519 -26.285  0.00  0.00    +0.058 C 
ATOM     22  C   UNL     1      34.550 -12.346 -27.002  0.00  0.00    +0.005 C 
ENDBRANCH  20  21
ENDBRANCH   1  15
BRANCH   7  23
ATOM     23  C   UNL     1      32.743  -6.127 -23.630  0.00  0.00    +0.016 C 
ATOM     24  C   UNL     1      34.020  -5.701 -23.995  0.00  0.00    +0.004 C 
ATOM     25  C   UNL     1      31.624  -5.396 -24.026  0.00  0.00    +0.004 C 
ATOM     26  C   UNL     1      34.176  -4.542 -24.755  0.00  0.00    +0.038 C 
ATOM     27  C   UNL     1      31.780  -4.237 -24.786  0.00  0.00    +0.038 C 
ATOM     28  C   UNL     1      33.057  -3.810 -25.151  0.00  0.00    +0.145 C 
BRANCH  28  29
ATOM     29  O   UNL     1      33.211  -2.677 -25.890  0.00  0.00    -0.453 OA
BRANCH  29  30
ATOM     30  C   UNL     1      32.986  -2.762 -27.253  0.00  0.00    +0.145 C 
ATOM     31  C   UNL     1      33.822  -3.544 -28.050  0.00  0.00    +0.037 C 
ATOM     32  C   UNL     1      31.924  -2.066 -27.831  0.00  0.00    +0.037 C 
ATOM     33  C   UNL     1      33.597  -3.630 -29.424  0.00  0.00    +0.003 C 
ATOM     34  C   UNL     1      31.698  -2.151 -29.204  0.00  0.00    +0.003 C 
ATOM     35  C   UNL     1      32.535  -2.933 -30.000  0.00  0.00    +0.000 C 
ENDBRANCH  29  30
ENDBRANCH  28  29
ENDBRANCH   7  23
TORSDOF 5
ENDMDL
MODEL 5
REMARK VINA RESULT:     -10.0      1.643      3.080
REMARK  Name = 24821094
REMARK  5 active torsions:
REMARK  status: ('A' for Active; 'I' for Inactive)
REMARK    1  A    between atoms: N_1  and  C_12
REMARK    2  A    between atoms: C_7  and  C_20
REMARK    3  A    between atoms: C_17  and  C_18
REMARK    4  A    between atoms: C_25  and  O_26
REMARK    5  A    between atoms: O_26  and  C_27
REMARK                            x       y       z     vdW  Elec       q    Type
REMARK                         _______ _______ _______ _____ _____    ______ ____
ROOT
ATOM      1  N   UNL     1      32.556  -8.009 -22.236  0.00  0.00    -0.198 N 
ATOM      2  N   UNL     1      32.893  -8.937 -23.151  0.00  0.00    -0.181 NA
ATOM      3  N   UNL     1      31.822  -7.856 -19.935  0.00  0.00    -0.231 NA
ATOM      4  N   UNL     1      31.613 -10.058 -18.907  0.00  0.00    -0.234 NA
ATOM      5  C   UNL     1      32.202  -8.533 -21.029  0.00  0.00    +0.137 C 
ATOM      6  C   UNL     1      32.317  -9.906 -21.162  0.00  0.00    +0.150 C 
ATOM      7  C   UNL     1      32.746 -10.091 -22.489  0.00  0.00    +0.090 C 
ATOM      8  C   UNL     1      32.005 -10.676 -20.047  0.00  0.00    +0.112 C 
ATOM      9  C   UNL     1      31.546  -8.706 -18.922  0.00  0.00    +0.252 C 
ATOM     10  N   UNL     1      32.092 -12.080 -20.082  0.00  0.00    -0.346 N 
ATOM     11  H   UNL     1      31.868 -12.607 -19.280  0.00  0.00    +0.143 HD
ATOM     12  H   UNL     1      32.378 -12.536 -20.906  0.00  0.00    +0.143 HD
ENDROOT
BRANCH   1  15
ATOM     13  O   UNL     1      33.729  -3.032 -25.405  0.00  0.00    -0.270 OA
ATOM     14  N   UNL     1      32.723  -4.899 -24.451  0.00  0.00    -0.274 N 
ATOM     15  C   UNL     1      32.597  -6.540 -22.614  0.00  0.00    +0.117 C 
ATOM     16  C   UNL     1      31.402  -5.764 -22.028  0.00  0.00    +0.025 C 
ATOM     17  C   UNL     1      32.674  -6.335 -24.137  0.00  0.00    +0.115 C 
ATOM     18  C   UNL     1      31.444  -4.291 -22.444  0.00  0.00    +0.023 C 
ATOM     19  C   UNL     1      31.570  -4.142 -23.959  0.00  0.00    +0.094 C 
ATOM     20  C   UNL     1      33.727  -4.238 -25.153  0.00  0.00    +0.249 C 
BRANCH  20  21
ATOM     21  C   UNL     1      34.875  -5.036 -25.626  0.00  0.00    +0.058 C 
ATOM     22  C   UNL     1      35.814  -4.440 -26.364  0.00  0.00    +0.005 C 
ENDBRANCH  20  21
ENDBRANCH   1  15
BRANCH   7  23
ATOM     23  C   UNL     1      33.022 -11.339 -23.156  0.00  0.00    +0.016 C 
ATOM     24  C   UNL     1      33.499 -11.338 -24.466  0.00  0.00    +0.004 C 
ATOM     25  C   UNL     1      32.814 -12.547 -22.490  0.00  0.00    +0.004 C 
ATOM     26  C   UNL     1      33.767 -12.546 -25.111  0.00  0.00    +0.038 C 
ATOM     27  C   UNL     1      33.083 -13.755 -23.134  0.00  0.00    +0.038 C 
ATOM     28  C   UNL     1      33.559 -13.753 -24.445  0.00  0.00    +0.145 C 
BRANCH  28  29
ATOM     29  O   UNL     1      33.818 -14.932 -25.075  0.00  0.00    -0.453 OA
BRANCH  29  30
ATOM     30  C   UNL     1      34.243 -15.998 -24.299  0.00  0.00    +0.145 C 
ATOM     31  C   UNL     1      35.057 -15.771 -23.190  0.00  0.00    +0.037 C 
ATOM     32  C   UNL     1      33.857 -17.298 -24.627  0.00  0.00    +0.037 C 
ATOM     33  C   UNL     1      35.486 -16.845 -22.408  0.00  0.00    +0.003 C 
ATOM     34  C   UNL     1      34.285 -18.371 -23.847  0.00  0.00    +0.003 C 
ATOM     35  C   UNL     1      35.100 -18.144 -22.738  0.00  0.00    +0.000 C 
ENDBRANCH  29  30
ENDBRANCH  28  29
ENDBRANCH   7  23
TORSDOF 5
ENDMDL
MODEL 6
REMARK VINA RESULT:      -9.8      8.176     13.719
REMARK  Name = 24821094
REMARK  5 active torsions:
REMARK  status: ('A' for Active; 'I' for Inactive)
REMARK    1  A    between atoms: N_1  and  C_12
REMARK    2  A    between atoms: C_7  and  C_20
REMARK    3  A    between atoms: C_17  and  C_18
REMARK    4  A    between atoms: C_25  and  O_26
REMARK    5  A    between atoms: O_26  and  C_27
REMARK                            x       y       z     vdW  Elec       q    Type
REMARK                         _______ _______ _______ _____ _____    ______ ____
ROOT
ATOM      1  N   UNL     1      33.261 -22.944 -15.849  0.00  0.00    -0.198 N 
ATOM      2  N   UNL     1      33.155 -22.365 -17.059  0.00  0.00    -0.181 NA
ATOM      3  N   UNL     1      34.952 -23.542 -14.223  0.00  0.00    -0.231 NA
ATOM      4  N   UNL     1      37.186 -22.914 -14.973  0.00  0.00    -0.234 NA
ATOM      5  C   UNL     1      34.542 -23.020 -15.389  0.00  0.00    +0.137 C 
ATOM      6  C   UNL     1      35.333 -22.447 -16.370  0.00  0.00    +0.150 C 
ATOM      7  C   UNL     1      34.421 -22.064 -17.371  0.00  0.00    +0.090 C 
ATOM      8  C   UNL     1      36.703 -22.404 -16.131  0.00  0.00    +0.112 C 
ATOM      9  C   UNL     1      36.294 -23.444 -14.103  0.00  0.00    +0.252 C 
ATOM     10  N   UNL     1      37.589 -21.840 -17.066  0.00  0.00    -0.346 N 
ATOM     11  H   UNL     1      38.556 -21.819 -16.877  0.00  0.00    +0.143 HD
ATOM     12  H   UNL     1      37.244 -21.466 -17.909  0.00  0.00    +0.143 HD
ENDROOT
BRANCH   1  15
ATOM     13  O   UNL     1      27.469 -24.270 -14.912  0.00  0.00    -0.270 OA
ATOM     14  N   UNL     1      29.739 -24.360 -15.408  0.00  0.00    -0.274 N 
ATOM     15  C   UNL     1      32.010 -23.436 -15.144  0.00  0.00    +0.117 C 
ATOM     16  C   UNL     1      32.326 -24.552 -14.129  0.00  0.00    +0.025 C 
ATOM     17  C   UNL     1      30.933 -23.905 -16.137  0.00  0.00    +0.115 C 
ATOM     18  C   UNL     1      31.049 -25.056 -13.450  0.00  0.00    +0.023 C 
ATOM     19  C   UNL     1      29.994 -25.461 -14.477  0.00  0.00    +0.094 C 
ATOM     20  C   UNL     1      28.448 -23.856 -15.535  0.00  0.00    +0.249 C 
BRANCH  20  21
ATOM     21  C   UNL     1      28.234 -22.741 -16.479  0.00  0.00    +0.058 C 
ATOM     22  C   UNL     1      27.036 -22.155 -16.525  0.00  0.00    +0.005 C 
ENDBRANCH  20  21
ENDBRANCH   1  15
BRANCH   7  23
ATOM     23  C   UNL     1      34.716 -21.416 -18.624  0.00  0.00    +0.016 C 
ATOM     24  C   UNL     1      33.680 -20.894 -19.398  0.00  0.00    +0.004 C 
ATOM     25  C   UNL     1      36.036 -21.309 -19.061  0.00  0.00    +0.004 C 
ATOM     26  C   UNL     1      33.966 -20.266 -20.611  0.00  0.00    +0.038 C 
ATOM     27  C   UNL     1      36.321 -20.681 -20.273  0.00  0.00    +0.038 C 
ATOM     28  C   UNL     1      35.286 -20.159 -21.048  0.00  0.00    +0.145 C 
BRANCH  28  29
ATOM     29  O   UNL     1      35.564 -19.549 -22.233  0.00  0.00    -0.453 OA
BRANCH  29  30
ATOM     30  C   UNL     1      35.284 -18.198 -22.343  0.00  0.00    +0.145 C 
ATOM     31  C   UNL     1      34.886 -17.666 -23.569  0.00  0.00    +0.037 C 
ATOM     32  C   UNL     1      35.400 -17.368 -21.227  0.00  0.00    +0.037 C 
ATOM     33  C   UNL     1      34.604 -16.303 -23.680  0.00  0.00    +0.003 C 
ATOM     34  C   UNL     1      35.118 -16.007 -21.338  0.00  0.00    +0.003 C 
ATOM     35  C   UNL     1      34.721 -15.475 -22.565  0.00  0.00    +0.000 C 
ENDBRANCH  29  30
ENDBRANCH  28  29
ENDBRANCH   7  23
TORSDOF 5
ENDMDL
MODEL 7
REMARK VINA RESULT:      -9.6      3.095      5.911
REMARK  Name = 24821094
REMARK  5 active torsions:
REMARK  status: ('A' for Active; 'I' for Inactive)
REMARK    1  A    between atoms: N_1  and  C_12
REMARK    2  A    between atoms: C_7  and  C_20
REMARK    3  A    between atoms: C_17  and  C_18
REMARK    4  A    between atoms: C_25  and  O_26
REMARK    5  A    between atoms: O_26  and  C_27
REMARK                            x       y       z     vdW  Elec       q    Type
REMARK                         _______ _______ _______ _____ _____    ______ ____
ROOT
ATOM      1  N   UNL     1      33.994 -14.486 -21.855  0.00  0.00    -0.198 N 
ATOM      2  N   UNL     1      34.459 -15.393 -20.977  0.00  0.00    -0.181 NA
ATOM      3  N   UNL     1      33.580 -14.248 -24.228  0.00  0.00    -0.231 NA
ATOM      4  N   UNL     1      34.180 -16.269 -25.455  0.00  0.00    -0.234 NA
ATOM      5  C   UNL     1      33.986 -14.928 -23.145  0.00  0.00    +0.137 C 
ATOM      6  C   UNL     1      34.481 -16.219 -23.108  0.00  0.00    +0.150 C 
ATOM      7  C   UNL     1      34.754 -16.447 -21.746  0.00  0.00    +0.090 C 
ATOM      8  C   UNL     1      34.572 -16.895 -24.320  0.00  0.00    +0.112 C 
ATOM      9  C   UNL     1      33.715 -15.003 -25.341  0.00  0.00    +0.252 C 
ATOM     10  N   UNL     1      35.062 -18.213 -24.386  0.00  0.00    -0.346 N 
ATOM     11  H   UNL     1      35.117 -18.674 -25.255  0.00  0.00    +0.143 HD
ATOM     12  H   UNL     1      35.347 -18.674 -23.565  0.00  0.00    +0.143 HD
ENDROOT
BRANCH   1  15
ATOM     13  O   UNL     1      32.511  -8.657 -21.941  0.00  0.00    -0.270 OA
ATOM     14  N   UNL     1      32.471 -10.982 -21.936  0.00  0.00    -0.274 N 
ATOM     15  C   UNL     1      33.546 -13.125 -21.357  0.00  0.00    +0.117 C 
ATOM     16  C   UNL     1      32.614 -13.240 -20.135  0.00  0.00    +0.025 C 
ATOM     17  C   UNL     1      32.876 -12.293 -22.464  0.00  0.00    +0.115 C 
ATOM     18  C   UNL     1      32.148 -11.860 -19.664  0.00  0.00    +0.023 C 
ATOM     19  C   UNL     1      31.537 -11.057 -20.810  0.00  0.00    +0.094 C 
ATOM     20  C   UNL     1      32.879  -9.737 -22.405  0.00  0.00    +0.249 C 
BRANCH  20  21
ATOM     21  C   UNL     1      33.827  -9.706 -23.537  0.00  0.00    +0.058 C 
ATOM     22  C   UNL     1      34.808  -8.801 -23.531  0.00  0.00    +0.005 C 
ENDBRANCH  20  21
ENDBRANCH   1  15
BRANCH   7  23
ATOM     23  C   UNL     1      35.289 -17.644 -21.148  0.00  0.00    +0.016 C 
ATOM     24  C   UNL     1      34.450 -18.726 -20.883  0.00  0.00    +0.004 C 
ATOM     25  C   UNL     1      36.646 -17.721 -20.835  0.00  0.00    +0.004 C 
ATOM     26  C   UNL     1      34.968 -19.885 -20.304  0.00  0.00    +0.038 C 
ATOM     27  C   UNL     1      37.165 -18.880 -20.257  0.00  0.00    +0.038 C 
ATOM     28  C   UNL     1      36.325 -19.961 -19.992  0.00  0.00    +0.145 C 
BRANCH  28  29
ATOM     29  O   UNL     1      36.830 -21.091 -19.424  0.00  0.00    -0.453 OA
BRANCH  29  30
ATOM     30  C   UNL     1      36.131 -21.649 -18.368  0.00  0.00    +0.145 C 
ATOM     31  C   UNL     1      36.754 -21.821 -17.132  0.00  0.00    +0.037 C 
ATOM     32  C   UNL     1      34.803 -22.041 -18.539  0.00  0.00    +0.037 C 
ATOM     33  C   UNL     1      36.049 -22.384 -16.067  0.00  0.00    +0.003 C 
ATOM     34  C   UNL     1      34.098 -22.604 -17.476  0.00  0.00    +0.003 C 
ATOM     35  C   UNL     1      34.722 -22.776 -16.240  0.00  0.00    +0.000 C 
ENDBRANCH  29  30
ENDBRANCH  28  29
ENDBRANCH   7  23
TORSDOF 5
ENDMDL
MODEL 8
REMARK VINA RESULT:      -9.5      2.273      4.307
REMARK  Name = 24821094
REMARK  5 active torsions:
REMARK  status: ('A' for Active; 'I' for Inactive)
REMARK    1  A    between atoms: N_1  and  C_12
REMARK    2  A    between atoms: C_7  and  C_20
REMARK    3  A    between atoms: C_17  and  C_18
REMARK    4  A    between atoms: C_25  and  O_26
REMARK    5  A    between atoms: O_26  and  C_27
REMARK                            x       y       z     vdW  Elec       q    Type
REMARK                         _______ _______ _______ _____ _____    ______ ____
ROOT
ATOM      1  N   UNL     1      32.969  -6.227 -22.895  0.00  0.00    -0.198 N 
ATOM      2  N   UNL     1      33.158  -7.383 -23.558  0.00  0.00    -0.181 NA
ATOM      3  N   UNL     1      32.452  -5.433 -20.668  0.00  0.00    -0.231 NA
ATOM      4  N   UNL     1      32.176  -7.275 -19.094  0.00  0.00    -0.234 NA
ATOM      5  C   UNL     1      32.686  -6.395 -21.572  0.00  0.00    +0.137 C 
ATOM      6  C   UNL     1      32.689  -7.762 -21.353  0.00  0.00    +0.150 C 
ATOM      7  C   UNL     1      32.986  -8.314 -22.612  0.00  0.00    +0.090 C 
ATOM      8  C   UNL     1      32.422  -8.194 -20.058  0.00  0.00    +0.112 C 
ATOM      9  C   UNL     1      32.206  -5.970 -19.453  0.00  0.00    +0.252 C 
ATOM     10  N   UNL     1      32.405  -9.563 -19.734  0.00  0.00    -0.346 N 
ATOM     11  H   UNL     1      32.214  -9.848 -18.811  0.00  0.00    +0.143 HD
ATOM     12  H   UNL     1      32.584 -10.236 -20.430  0.00  0.00    +0.143 HD
ENDROOT
BRANCH   1  15
ATOM     13  O   UNL     1      34.740  -2.213 -27.009  0.00  0.00    -0.270 OA
ATOM     14  N   UNL     1      33.568  -3.812 -25.795  0.00  0.00    -0.274 N 
ATOM     15  C   UNL     1      33.082  -4.911 -23.641  0.00  0.00    +0.117 C 
ATOM     16  C   UNL     1      31.793  -4.074 -23.527  0.00  0.00    +0.025 C 
ATOM     17  C   UNL     1      33.460  -5.114 -25.119  0.00  0.00    +0.115 C 
ATOM     18  C   UNL     1      31.915  -2.765 -24.310  0.00  0.00    +0.023 C 
ATOM     19  C   UNL     1      32.339  -3.017 -25.755  0.00  0.00    +0.094 C 
ATOM     20  C   UNL     1      34.690  -3.307 -26.445  0.00  0.00    +0.249 C 
BRANCH  20  21
ATOM     21  C   UNL     1      35.911  -4.137 -26.456  0.00  0.00    +0.058 C 
ATOM     22  C   UNL     1      37.048  -3.606 -26.911  0.00  0.00    +0.005 C 
ENDBRANCH  20  21
ENDBRANCH   1  15
BRANCH   7  23
ATOM     23  C   UNL     1      33.113  -9.710 -22.950  0.00  0.00    +0.016 C 
ATOM     24  C   UNL     1      34.108 -10.125 -23.834  0.00  0.00    +0.004 C 
ATOM     25  C   UNL     1      32.242 -10.645 -22.391  0.00  0.00    +0.004 C 
ATOM     26  C   UNL     1      34.231 -11.476 -24.161  0.00  0.00    +0.038 C 
ATOM     27  C   UNL     1      32.366 -11.996 -22.717  0.00  0.00    +0.038 C 
ATOM     28  C   UNL     1      33.360 -12.411 -23.602  0.00  0.00    +0.145 C 
BRANCH  28  29
ATOM     29  O   UNL     1      33.479 -13.728 -23.923  0.00  0.00    -0.453 OA
BRANCH  29  30
ATOM     30  C   UNL     1      34.036 -14.574 -22.978  0.00  0.00    +0.145 C 
ATOM     31  C   UNL     1      33.978 -14.241 -21.625  0.00  0.00    +0.037 C 
ATOM     32  C   UNL     1      34.656 -15.757 -23.380  0.00  0.00    +0.037 C 
ATOM     33  C   UNL     1      34.540 -15.093 -20.673  0.00  0.00    +0.003 C 
ATOM     34  C   UNL     1      35.217 -16.608 -22.429  0.00  0.00    +0.003 C 
ATOM     35  C   UNL     1      35.160 -16.275 -21.075  0.00  0.00    +0.000 C 
ENDBRANCH  29  30
ENDBRANCH  28  29
ENDBRANCH   7  23
TORSDOF 5
ENDMDL
MODEL 9
REMARK VINA RESULT:      -9.4      2.125      4.214
REMARK  Name = 24821094
REMARK  5 active torsions:
REMARK  status: ('A' for Active; 'I' for Inactive)
REMARK    1  A    between atoms: N_1  and  C_12
REMARK    2  A    between atoms: C_7  and  C_20
REMARK    3  A    between atoms: C_17  and  C_18
REMARK    4  A    between atoms: C_25  and  O_26
REMARK    5  A    between atoms: O_26  and  C_27
REMARK                            x       y       z     vdW  Elec       q    Type
REMARK                         _______ _______ _______ _____ _____    ______ ____
ROOT
ATOM      1  N   UNL     1      33.556 -12.535 -22.345  0.00  0.00    -0.198 N 
ATOM      2  N   UNL     1      33.975 -13.575 -21.602  0.00  0.00    -0.181 NA
ATOM      3  N   UNL     1      33.168 -11.950 -24.661  0.00  0.00    -0.231 NA
ATOM      4  N   UNL     1      33.690 -13.803 -26.159  0.00  0.00    -0.234 NA
ATOM      5  C   UNL     1      33.538 -12.791 -23.683  0.00  0.00    +0.137 C 
ATOM      6  C   UNL     1      33.978 -14.095 -23.828  0.00  0.00    +0.150 C 
ATOM      7  C   UNL     1      34.231 -14.523 -22.511  0.00  0.00    +0.090 C 
ATOM      8  C   UNL     1      34.048 -14.598 -25.123  0.00  0.00    +0.112 C 
ATOM      9  C   UNL     1      33.279 -12.546 -25.869  0.00  0.00    +0.252 C 
ATOM     10  N   UNL     1      34.482 -15.913 -25.372  0.00  0.00    -0.346 N 
ATOM     11  H   UNL     1      34.523 -16.250 -26.297  0.00  0.00    +0.143 HD
ATOM     12  H   UNL     1      34.742 -16.497 -24.623  0.00  0.00    +0.143 HD
ENDROOT
BRANCH   1  15
ATOM     13  O   UNL     1      32.926  -6.630 -21.387  0.00  0.00    -0.270 OA
ATOM     14  N   UNL     1      32.586  -8.859 -21.955  0.00  0.00    -0.274 N 
ATOM     15  C   UNL     1      33.163 -11.239 -21.661  0.00  0.00    +0.117 C 
ATOM     16  C   UNL     1      31.911 -11.413 -20.778  0.00  0.00    +0.025 C 
ATOM     17  C   UNL     1      32.954 -10.093 -22.666  0.00  0.00    +0.115 C 
ATOM     18  C   UNL     1      31.512 -10.090 -20.120  0.00  0.00    +0.023 C 
ATOM     19  C   UNL     1      31.366  -8.975 -21.154  0.00  0.00    +0.094 C 
ATOM     20  C   UNL     1      33.270  -7.647 -21.991  0.00  0.00    +0.249 C 
BRANCH  20  21
ATOM     21  C   UNL     1      34.499  -7.574 -22.805  0.00  0.00    +0.058 C 
ATOM     22  C   UNL     1      34.728  -6.478 -23.530  0.00  0.00    +0.005 C 
ENDBRANCH  20  21
ENDBRANCH   1  15
BRANCH   7  23
ATOM     23  C   UNL     1      34.711 -15.814 -22.086  0.00  0.00    +0.016 C 
ATOM     24  C   UNL     1      34.956 -16.055 -20.734  0.00  0.00    +0.004 C 
ATOM     25  C   UNL     1      34.929 -16.821 -23.025  0.00  0.00    +0.004 C 
ATOM     26  C   UNL     1      35.420 -17.304 -20.322  0.00  0.00    +0.038 C 
ATOM     27  C   UNL     1      35.393 -18.071 -22.613  0.00  0.00    +0.038 C 
ATOM     28  C   UNL     1      35.638 -18.312 -21.261  0.00  0.00    +0.145 C 
BRANCH  28  29
ATOM     29  O   UNL     1      36.094 -19.530 -20.860  0.00  0.00    -0.453 OA
BRANCH  29  30
ATOM     30  C   UNL     1      35.244 -20.319 -20.104  0.00  0.00    +0.145 C 
ATOM     31  C   UNL     1      33.862 -20.197 -20.253  0.00  0.00    +0.037 C 
ATOM     32  C   UNL     1      35.768 -21.235 -19.192  0.00  0.00    +0.037 C 
ATOM     33  C   UNL     1      33.005 -20.991 -19.491  0.00  0.00    +0.003 C 
ATOM     34  C   UNL     1      34.911 -22.029 -18.430  0.00  0.00    +0.003 C 
ATOM     35  C   UNL     1      33.530 -21.906 -18.579  0.00  0.00    +0.000 C 
ENDBRANCH  29  30
ENDBRANCH  28  29
ENDBRANCH   7  23
TORSDOF 5
ENDMDL
