MODEL 1
REMARK VINA RESULT:     -11.8      0.000      0.000
REMARK  Name = 448890
REMARK  6 active torsions:
REMARK  status: ('A' for Active; 'I' for Inactive)
REMARK    1  A    between atoms: C_1  and  C_2
REMARK    2  A    between atoms: C_1  and  C_17
REMARK    3  A    between atoms: C_2  and  C_3
REMARK    4  A    between atoms: C_3  and  N_4
REMARK    5  A    between atoms: C_8  and  C_11
REMARK    6  A    between atoms: C_17  and  N_21
REMARK                            x       y       z     vdW  Elec       q    Type
REMARK                         _______ _______ _______ _____ _____    ______ ____
ROOT
ATOM      1  C   UNL     1      33.455 -14.015 -24.346  0.00  0.00    +0.022 C 
ENDROOT
BRANCH   1   2
ATOM      2  C   UNL     1      33.783 -15.511 -24.392  0.00  0.00    -0.021 C 
BRANCH   2   3
ATOM      3  C   UNL     1      35.257 -15.761 -24.077  0.00  0.00    -0.077 C 
BRANCH   3   4
ATOM      4  N   UNL     1      35.395 -16.894 -23.164  0.00  0.00    +0.390 N 
ATOM      5  C   UNL     1      35.124 -16.492 -21.780  0.00  0.00    -0.072 C 
ATOM      6  C   UNL     1      34.510 -17.998 -23.566  0.00  0.00    -0.051 C 
ATOM      7  C   UNL     1      35.438 -17.656 -20.828  0.00  0.00    +0.003 C 
ATOM      8  C   UNL     1      34.835 -18.967 -21.280  0.00  0.00    -0.031 C 
ATOM      9  C   UNL     1      34.410 -19.104 -22.551  0.00  0.00    -0.053 C 
ATOM     10  H   UNL     1      36.360 -17.221 -23.212  0.00  0.00    -0.079 HD
BRANCH   8  11
ATOM     11  C   UNL     1      34.737 -20.073 -20.297  0.00  0.00    -0.004 C 
ATOM     12  C   UNL     1      35.895 -20.656 -19.779  0.00  0.00    -0.000 C 
ATOM     13  C   UNL     1      33.484 -20.534 -19.884  0.00  0.00    -0.000 C 
ATOM     14  C   UNL     1      35.803 -21.696 -18.855  0.00  0.00    -0.000 C 
ATOM     15  C   UNL     1      33.392 -21.574 -18.959  0.00  0.00    -0.000 C 
ATOM     16  C   UNL     1      34.551 -22.155 -18.444  0.00  0.00    -0.000 C 
ENDBRANCH   8  11
ENDBRANCH   3   4
ENDBRANCH   2   3
ENDBRANCH   1   2
BRANCH   1  17
ATOM     17  C   UNL     1      34.200 -13.286 -23.231  0.00  0.00    +0.110 C 
BRANCH  17  21
ATOM     18  F   UNL     1      32.726  -7.339 -22.823  0.00  0.00    -0.204 F 
ATOM     19  O   UNL     1      32.144 -13.414 -21.312  0.00  0.00    -0.246 OA
ATOM     20  O   UNL     1      31.394  -8.902 -21.343  0.00  0.00    -0.267 OA
ATOM     21  N   UNL     1      33.463 -12.126 -22.737  0.00  0.00    -0.281 N 
ATOM     22  N   UNL     1      31.801 -11.162 -21.356  0.00  0.00    -0.274 N 
ATOM     23  C   UNL     1      33.785 -10.828 -23.241  0.00  0.00    +0.071 A 
ATOM     24  C   UNL     1      32.458 -12.316 -21.778  0.00  0.00    +0.330 A 
ATOM     25  C   UNL     1      33.090  -9.703 -22.780  0.00  0.00    +0.099 A 
ATOM     26  C   UNL     1      34.792 -10.631 -24.203  0.00  0.00    +0.018 C 
ATOM     27  C   UNL     1      32.027  -9.861 -21.773  0.00  0.00    +0.265 A 
ATOM     28  C   UNL     1      33.386  -8.420 -23.260  0.00  0.00    +0.146 C 
ATOM     29  C   UNL     1      35.090  -9.353 -24.682  0.00  0.00    +0.004 C 
ATOM     30  C   UNL     1      34.388  -8.248 -24.211  0.00  0.00    +0.030 C 
ATOM     31  H   UNL     1      31.093 -11.286 -20.683  0.00  0.00    +0.173 HD
ENDBRANCH  17  21
ENDBRANCH   1  17
TORSDOF 6
ENDMDL
MODEL 2
REMARK VINA RESULT:     -11.7      1.637      2.500
REMARK  Name = 448890
REMARK  6 active torsions:
REMARK  status: ('A' for Active; 'I' for Inactive)
REMARK    1  A    between atoms: C_1  and  C_2
REMARK    2  A    between atoms: C_1  and  C_17
REMARK    3  A    between atoms: C_2  and  C_3
REMARK    4  A    between atoms: C_3  and  N_4
REMARK    5  A    between atoms: C_8  and  C_11
REMARK    6  A    between atoms: C_17  and  N_21
REMARK                            x       y       z     vdW  Elec       q    Type
REMARK                         _______ _______ _______ _____ _____    ______ ____
ROOT
ATOM      1  C   UNL     1      34.216 -13.435 -23.367  0.00  0.00    +0.022 C 
ENDROOT
BRANCH   1   2
ATOM      2  C   UNL     1      33.892 -14.885 -23.741  0.00  0.00    -0.021 C 
BRANCH   2   3
ATOM      3  C   UNL     1      35.161 -15.655 -24.105  0.00  0.00    -0.077 C 
BRANCH   3   4
ATOM      4  N   UNL     1      35.344 -16.787 -23.197  0.00  0.00    +0.390 N 
ATOM      5  C   UNL     1      35.059 -16.404 -21.811  0.00  0.00    -0.072 C 
ATOM      6  C   UNL     1      34.503 -17.922 -23.605  0.00  0.00    -0.051 C 
ATOM      7  C   UNL     1      35.419 -17.560 -20.866  0.00  0.00    +0.003 C 
ATOM      8  C   UNL     1      34.868 -18.891 -21.324  0.00  0.00    -0.031 C 
ATOM      9  C   UNL     1      34.447 -19.038 -22.596  0.00  0.00    -0.053 C 
ATOM     10  H   UNL     1      36.321 -17.075 -23.249  0.00  0.00    -0.079 HD
BRANCH   8  11
ATOM     11  C   UNL     1      34.814 -20.005 -20.348  0.00  0.00    -0.004 C 
ATOM     12  C   UNL     1      35.996 -20.557 -19.849  0.00  0.00    -0.000 C 
ATOM     13  C   UNL     1      33.581 -20.505 -19.922  0.00  0.00    -0.000 C 
ATOM     14  C   UNL     1      35.945 -21.605 -18.930  0.00  0.00    -0.000 C 
ATOM     15  C   UNL     1      33.531 -21.553 -19.003  0.00  0.00    -0.000 C 
ATOM     16  C   UNL     1      34.713 -22.103 -18.506  0.00  0.00    -0.000 C 
ENDBRANCH   8  11
ENDBRANCH   3   4
ENDBRANCH   2   3
ENDBRANCH   1   2
BRANCH   1  17
ATOM     17  C   UNL     1      33.462 -12.425 -24.227  0.00  0.00    +0.110 C 
BRANCH  17  21
ATOM     18  F   UNL     1      32.317  -7.716 -20.456  0.00  0.00    -0.204 F 
ATOM     19  O   UNL     1      35.109 -10.454 -25.380  0.00  0.00    -0.246 OA
ATOM     20  O   UNL     1      33.954  -7.247 -22.329  0.00  0.00    -0.267 OA
ATOM     21  N   UNL     1      33.588 -11.060 -23.722  0.00  0.00    -0.281 N 
ATOM     22  N   UNL     1      34.508  -8.884 -23.841  0.00  0.00    -0.274 N 
ATOM     23  C   UNL     1      32.837 -10.671 -22.569  0.00  0.00    +0.071 A 
ATOM     24  C   UNL     1      34.442 -10.167 -24.382  0.00  0.00    +0.330 A 
ATOM     25  C   UNL     1      32.945  -9.368 -22.070  0.00  0.00    +0.099 A 
ATOM     26  C   UNL     1      31.980 -11.563 -21.903  0.00  0.00    +0.018 C 
ATOM     27  C   UNL     1      33.832  -8.398 -22.736  0.00  0.00    +0.265 A 
ATOM     28  C   UNL     1      32.221  -8.962 -20.940  0.00  0.00    +0.146 C 
ATOM     29  C   UNL     1      31.256 -11.161 -20.777  0.00  0.00    +0.004 C 
ATOM     30  C   UNL     1      31.376  -9.861 -20.296  0.00  0.00    +0.030 C 
ATOM     31  H   UNL     1      35.106  -8.250 -24.299  0.00  0.00    +0.173 HD
ENDBRANCH  17  21
ENDBRANCH   1  17
TORSDOF 6
ENDMDL
MODEL 3
REMARK VINA RESULT:     -11.3      7.042     11.781
REMARK  Name = 448890
REMARK  6 active torsions:
REMARK  status: ('A' for Active; 'I' for Inactive)
REMARK    1  A    between atoms: C_1  and  C_2
REMARK    2  A    between atoms: C_1  and  C_17
REMARK    3  A    between atoms: C_2  and  C_3
REMARK    4  A    between atoms: C_3  and  N_4
REMARK    5  A    between atoms: C_8  and  C_11
REMARK    6  A    between atoms: C_17  and  N_21
REMARK                            x       y       z     vdW  Elec       q    Type
REMARK                         _______ _______ _______ _____ _____    ______ ____
ROOT
ATOM      1  C   UNL     1      36.967 -21.708 -15.453  0.00  0.00    +0.022 C 
ENDROOT
BRANCH   1   2
ATOM      2  C   UNL     1      37.399 -21.142 -16.811  0.00  0.00    -0.021 C 
BRANCH   2   3
ATOM      3  C   UNL     1      36.527 -21.692 -17.938  0.00  0.00    -0.077 C 
BRANCH   3   4
ATOM      4  N   UNL     1      36.127 -20.615 -18.842  0.00  0.00    +0.390 N 
ATOM      5  C   UNL     1      37.190 -20.314 -19.806  0.00  0.00    -0.072 C 
ATOM      6  C   UNL     1      34.877 -20.955 -19.537  0.00  0.00    -0.051 C 
ATOM      7  C   UNL     1      36.810 -19.073 -20.629  0.00  0.00    +0.003 C 
ATOM      8  C   UNL     1      35.401 -19.135 -21.175  0.00  0.00    -0.031 C 
ATOM      9  C   UNL     1      34.522 -20.014 -20.657  0.00  0.00    -0.053 C 
ATOM     10  H   UNL     1      35.967 -19.779 -18.280  0.00  0.00    -0.079 HD
BRANCH   8  11
ATOM     11  C   UNL     1      35.030 -18.209 -22.271  0.00  0.00    -0.004 C 
ATOM     12  C   UNL     1      35.309 -16.845 -22.162  0.00  0.00    -0.000 C 
ATOM     13  C   UNL     1      34.400 -18.698 -23.418  0.00  0.00    -0.000 C 
ATOM     14  C   UNL     1      34.960 -15.974 -23.194  0.00  0.00    -0.000 C 
ATOM     15  C   UNL     1      34.051 -17.827 -24.450  0.00  0.00    -0.000 C 
ATOM     16  C   UNL     1      34.330 -16.464 -24.338  0.00  0.00    -0.000 C 
ENDBRANCH   8  11
ENDBRANCH   3   4
ENDBRANCH   2   3
ENDBRANCH   1   2
BRANCH   1  17
ATOM     17  C   UNL     1      36.389 -23.115 -15.562  0.00  0.00    +0.110 C 
BRANCH  17  21
ATOM     18  F   UNL     1      30.388 -23.371 -14.284  0.00  0.00    -0.204 F 
ATOM     19  O   UNL     1      36.492 -23.735 -12.818  0.00  0.00    -0.246 OA
ATOM     20  O   UNL     1      31.943 -23.819 -12.338  0.00  0.00    -0.267 OA
ATOM     21  N   UNL     1      35.212 -23.300 -14.716  0.00  0.00    -0.281 N 
ATOM     22  N   UNL     1      34.222 -23.767 -12.620  0.00  0.00    -0.274 N 
ATOM     23  C   UNL     1      33.911 -23.162 -15.292  0.00  0.00    +0.071 A 
ATOM     24  C   UNL     1      35.391 -23.607 -13.361  0.00  0.00    +0.330 A 
ATOM     25  C   UNL     1      32.771 -23.336 -14.497  0.00  0.00    +0.099 A 
ATOM     26  C   UNL     1      33.726 -22.855 -16.651  0.00  0.00    +0.018 C 
ATOM     27  C   UNL     1      32.916 -23.659 -13.067  0.00  0.00    +0.265 A 
ATOM     28  C   UNL     1      31.484 -23.207 -15.038  0.00  0.00    +0.146 C 
ATOM     29  C   UNL     1      32.444 -22.726 -17.192  0.00  0.00    +0.004 C 
ATOM     30  C   UNL     1      31.324 -22.901 -16.386  0.00  0.00    +0.030 C 
ATOM     31  H   UNL     1      34.338 -23.984 -11.666  0.00  0.00    +0.173 HD
ENDBRANCH  17  21
ENDBRANCH   1  17
TORSDOF 6
ENDMDL
MODEL 4
REMARK VINA RESULT:     -10.9      7.781     12.547
REMARK  Name = 448890
REMARK  6 active torsions:
REMARK  status: ('A' for Active; 'I' for Inactive)
REMARK    1  A    between atoms: C_1  and  C_2
REMARK    2  A    between atoms: C_1  and  C_17
REMARK    3  A    between atoms: C_2  and  C_3
REMARK    4  A    between atoms: C_3  and  N_4
REMARK    5  A    between atoms: C_8  and  C_11
REMARK    6  A    between atoms: C_17  and  N_21
REMARK                            x       y       z     vdW  Elec       q    Type
REMARK                         _______ _______ _______ _____ _____    ______ ____
ROOT
ATOM      1  C   UNL     1      32.298 -23.380 -15.433  0.00  0.00    +0.022 C 
ENDROOT
BRANCH   1   2
ATOM      2  C   UNL     1      32.249 -22.830 -16.862  0.00  0.00    -0.021 C 
BRANCH   2   3
ATOM      3  C   UNL     1      33.440 -23.323 -17.682  0.00  0.00    -0.077 C 
BRANCH   3   4
ATOM      4  N   UNL     1      33.665 -22.444 -18.828  0.00  0.00    +0.390 N 
ATOM      5  C   UNL     1      32.757 -21.293 -18.797  0.00  0.00    -0.072 C 
ATOM      6  C   UNL     1      35.066 -21.999 -18.877  0.00  0.00    -0.051 C 
ATOM      7  C   UNL     1      32.901 -20.480 -20.092  0.00  0.00    +0.003 C 
ATOM      8  C   UNL     1      34.341 -20.193 -20.453  0.00  0.00    -0.031 C 
ATOM      9  C   UNL     1      35.329 -20.907 -19.878  0.00  0.00    -0.053 C 
ATOM     10  H   UNL     1      33.467 -22.976 -19.676  0.00  0.00    -0.079 HD
BRANCH   8  11
ATOM     11  C   UNL     1      34.619 -19.128 -21.446  0.00  0.00    -0.004 C 
ATOM     12  C   UNL     1      35.308 -17.976 -21.063  0.00  0.00    -0.000 C 
ATOM     13  C   UNL     1      34.194 -19.275 -22.769  0.00  0.00    -0.000 C 
ATOM     14  C   UNL     1      35.570 -16.974 -21.997  0.00  0.00    -0.000 C 
ATOM     15  C   UNL     1      34.456 -18.272 -23.703  0.00  0.00    -0.000 C 
ATOM     16  C   UNL     1      35.144 -17.122 -23.318  0.00  0.00    -0.000 C 
ENDBRANCH   8  11
ENDBRANCH   3   4
ENDBRANCH   2   3
ENDBRANCH   1   2
BRANCH   1  17
ATOM     17  C   UNL     1      33.216 -22.568 -14.523  0.00  0.00    +0.110 C 
BRANCH  17  21
ATOM     18  F   UNL     1      38.907 -24.751 -13.772  0.00  0.00    -0.204 F 
ATOM     19  O   UNL     1      32.787 -24.348 -12.385  0.00  0.00    -0.246 OA
ATOM     20  O   UNL     1      37.159 -25.681 -12.196  0.00  0.00    -0.267 OA
ATOM     21  N   UNL     1      34.261 -23.387 -13.914  0.00  0.00    -0.281 N 
ATOM     22  N   UNL     1      34.974 -24.986 -12.323  0.00  0.00    -0.274 N 
ATOM     23  C   UNL     1      35.597 -23.301 -14.414  0.00  0.00    +0.071 A 
ATOM     24  C   UNL     1      33.924 -24.238 -12.852  0.00  0.00    +0.330 A 
ATOM     25  C   UNL     1      36.611 -24.077 -13.842  0.00  0.00    +0.099 A 
ATOM     26  C   UNL     1      35.940 -22.449 -15.478  0.00  0.00    +0.018 C 
ATOM     27  C   UNL     1      36.298 -24.985 -12.724  0.00  0.00    +0.265 A 
ATOM     28  C   UNL     1      37.929 -24.010 -14.314  0.00  0.00    +0.146 C 
ATOM     29  C   UNL     1      37.253 -22.380 -15.951  0.00  0.00    +0.004 C 
ATOM     30  C   UNL     1      38.247 -23.160 -15.370  0.00  0.00    +0.030 C 
ATOM     31  H   UNL     1      34.747 -25.587 -11.576  0.00  0.00    +0.173 HD
ENDBRANCH  17  21
ENDBRANCH   1  17
TORSDOF 6
ENDMDL
MODEL 5
REMARK VINA RESULT:     -10.8      5.170     11.011
REMARK  Name = 448890
REMARK  6 active torsions:
REMARK  status: ('A' for Active; 'I' for Inactive)
REMARK    1  A    between atoms: C_1  and  C_2
REMARK    2  A    between atoms: C_1  and  C_17
REMARK    3  A    between atoms: C_2  and  C_3
REMARK    4  A    between atoms: C_3  and  N_4
REMARK    5  A    between atoms: C_8  and  C_11
REMARK    6  A    between atoms: C_17  and  N_21
REMARK                            x       y       z     vdW  Elec       q    Type
REMARK                         _______ _______ _______ _____ _____    ______ ____
ROOT
ATOM      1  C   UNL     1      34.581 -20.139 -20.148  0.00  0.00    +0.022 C 
ENDROOT
BRANCH   1   2
ATOM      2  C   UNL     1      35.488 -19.011 -20.651  0.00  0.00    -0.021 C 
BRANCH   2   3
ATOM      3  C   UNL     1      35.652 -19.073 -22.170  0.00  0.00    -0.077 C 
BRANCH   3   4
ATOM      4  N   UNL     1      35.500 -17.740 -22.750  0.00  0.00    +0.390 N 
ATOM      5  C   UNL     1      34.413 -17.712 -23.733  0.00  0.00    -0.072 C 
ATOM      6  C   UNL     1      35.275 -16.737 -21.698  0.00  0.00    -0.051 C 
ATOM      7  C   UNL     1      34.388 -16.350 -24.443  0.00  0.00    +0.003 C 
ATOM      8  C   UNL     1      34.460 -15.183 -23.485  0.00  0.00    -0.031 C 
ATOM      9  C   UNL     1      34.872 -15.383 -22.218  0.00  0.00    -0.053 C 
ATOM     10  H   UNL     1      36.368 -17.509 -23.234  0.00  0.00    -0.079 HD
BRANCH   8  11
ATOM     11  C   UNL     1      34.077 -13.840 -23.981  0.00  0.00    -0.004 C 
ATOM     12  C   UNL     1      34.075 -12.746 -23.114  0.00  0.00    -0.000 C 
ATOM     13  C   UNL     1      33.717 -13.664 -25.320  0.00  0.00    -0.000 C 
ATOM     14  C   UNL     1      33.715 -11.482 -23.582  0.00  0.00    -0.000 C 
ATOM     15  C   UNL     1      33.356 -12.400 -25.787  0.00  0.00    -0.000 C 
ATOM     16  C   UNL     1      33.355 -11.309 -24.918  0.00  0.00    -0.000 C 
ENDBRANCH   8  11
ENDBRANCH   3   4
ENDBRANCH   2   3
ENDBRANCH   1   2
BRANCH   1  17
ATOM     17  C   UNL     1      35.367 -21.358 -19.676  0.00  0.00    +0.110 C 
BRANCH  17  21
ATOM     18  F   UNL     1      35.365 -23.340 -13.864  0.00  0.00    -0.204 F 
ATOM     19  O   UNL     1      32.720 -22.292 -19.471  0.00  0.00    -0.246 OA
ATOM     20  O   UNL     1      33.185 -23.623 -15.119  0.00  0.00    -0.267 OA
ATOM     21  N   UNL     1      34.798 -21.955 -18.471  0.00  0.00    -0.281 N 
ATOM     22  N   UNL     1      32.992 -22.942 -17.304  0.00  0.00    -0.274 N 
ATOM     23  C   UNL     1      35.613 -22.087 -17.304  0.00  0.00    +0.071 A 
ATOM     24  C   UNL     1      33.463 -22.384 -18.490  0.00  0.00    +0.330 A 
ATOM     25  C   UNL     1      35.084 -22.656 -16.139  0.00  0.00    +0.099 A 
ATOM     26  C   UNL     1      36.952 -21.658 -17.279  0.00  0.00    +0.018 C 
ATOM     27  C   UNL     1      33.686 -23.120 -16.120  0.00  0.00    +0.265 A 
ATOM     28  C   UNL     1      35.863 -22.796 -14.983  0.00  0.00    +0.146 C 
ATOM     29  C   UNL     1      37.730 -21.797 -16.127  0.00  0.00    +0.004 C 
ATOM     30  C   UNL     1      37.187 -22.365 -14.980  0.00  0.00    +0.030 C 
ATOM     31  H   UNL     1      32.055 -23.246 -17.308  0.00  0.00    +0.173 HD
ENDBRANCH  17  21
ENDBRANCH   1  17
TORSDOF 6
ENDMDL
MODEL 6
REMARK VINA RESULT:     -10.8      4.956     10.849
REMARK  Name = 448890
REMARK  6 active torsions:
REMARK  status: ('A' for Active; 'I' for Inactive)
REMARK    1  A    between atoms: C_1  and  C_2
REMARK    2  A    between atoms: C_1  and  C_17
REMARK    3  A    between atoms: C_2  and  C_3
REMARK    4  A    between atoms: C_3  and  N_4
REMARK    5  A    between atoms: C_8  and  C_11
REMARK    6  A    between atoms: C_17  and  N_21
REMARK                            x       y       z     vdW  Elec       q    Type
REMARK                         _______ _______ _______ _____ _____    ______ ____
ROOT
ATOM      1  C   UNL     1      34.773 -19.782 -20.384  0.00  0.00    +0.022 C 
ENDROOT
BRANCH   1   2
ATOM      2  C   UNL     1      35.856 -18.743 -20.692  0.00  0.00    -0.021 C 
BRANCH   2   3
ATOM      3  C   UNL     1      35.855 -18.370 -22.174  0.00  0.00    -0.077 C 
BRANCH   3   4
ATOM      4  N   UNL     1      35.537 -16.953 -22.339  0.00  0.00    +0.390 N 
ATOM      5  C   UNL     1      34.546 -16.754 -23.401  0.00  0.00    -0.072 C 
ATOM      6  C   UNL     1      35.063 -16.374 -21.073  0.00  0.00    -0.051 C 
ATOM      7  C   UNL     1      34.357 -15.253 -23.664  0.00  0.00    +0.003 C 
ATOM      8  C   UNL     1      34.158 -14.452 -22.397  0.00  0.00    -0.031 C 
ATOM      9  C   UNL     1      34.489 -14.990 -21.208  0.00  0.00    -0.053 C 
ATOM     10  H   UNL     1      36.392 -16.470 -22.614  0.00  0.00    -0.079 HD
BRANCH   8  11
ATOM     11  C   UNL     1      33.603 -13.082 -22.511  0.00  0.00    -0.004 C 
ATOM     12  C   UNL     1      32.589 -12.662 -21.648  0.00  0.00    -0.000 C 
ATOM     13  C   UNL     1      34.094 -12.205 -23.481  0.00  0.00    -0.000 C 
ATOM     14  C   UNL     1      32.067 -11.373 -21.754  0.00  0.00    -0.000 C 
ATOM     15  C   UNL     1      33.573 -10.916 -23.588  0.00  0.00    -0.000 C 
ATOM     16  C   UNL     1      32.559 -10.499 -22.725  0.00  0.00    -0.000 C 
ENDBRANCH   8  11
ENDBRANCH   3   4
ENDBRANCH   2   3
ENDBRANCH   1   2
BRANCH   1  17
ATOM     17  C   UNL     1      35.355 -21.126 -19.955  0.00  0.00    +0.110 C 
BRANCH  17  21
ATOM     18  F   UNL     1      34.710 -23.430 -14.299  0.00  0.00    -0.204 F 
ATOM     19  O   UNL     1      32.598 -21.698 -19.963  0.00  0.00    -0.246 OA
ATOM     20  O   UNL     1      32.598 -23.336 -15.692  0.00  0.00    -0.267 OA
ATOM     21  N   UNL     1      34.633 -21.709 -18.827  0.00  0.00    -0.281 N 
ATOM     22  N   UNL     1      32.640 -22.507 -17.833  0.00  0.00    -0.274 N 
ATOM     23  C   UNL     1      35.346 -22.021 -17.628  0.00  0.00    +0.071 A 
ATOM     24  C   UNL     1      33.257 -21.949 -18.950  0.00  0.00    +0.330 A 
ATOM     25  C   UNL     1      34.671 -22.580 -16.536  0.00  0.00    +0.099 A 
ATOM     26  C   UNL     1      36.725 -21.783 -17.498  0.00  0.00    +0.018 C 
ATOM     27  C   UNL     1      33.225 -22.848 -16.626  0.00  0.00    +0.265 A 
ATOM     28  C   UNL     1      35.348 -22.894 -15.349  0.00  0.00    +0.146 C 
ATOM     29  C   UNL     1      37.402 -22.095 -16.316  0.00  0.00    +0.004 C 
ATOM     30  C   UNL     1      36.714 -22.651 -15.242  0.00  0.00    +0.030 C 
ATOM     31  H   UNL     1      31.673 -22.678 -17.910  0.00  0.00    +0.173 HD
ENDBRANCH  17  21
ENDBRANCH   1  17
TORSDOF 6
ENDMDL
MODEL 7
REMARK VINA RESULT:     -10.8      3.041      5.279
REMARK  Name = 448890
REMARK  6 active torsions:
REMARK  status: ('A' for Active; 'I' for Inactive)
REMARK    1  A    between atoms: C_1  and  C_2
REMARK    2  A    between atoms: C_1  and  C_17
REMARK    3  A    between atoms: C_2  and  C_3
REMARK    4  A    between atoms: C_3  and  N_4
REMARK    5  A    between atoms: C_8  and  C_11
REMARK    6  A    between atoms: C_17  and  N_21
REMARK                            x       y       z     vdW  Elec       q    Type
REMARK                         _______ _______ _______ _____ _____    ______ ____
ROOT
ATOM      1  C   UNL     1      33.160  -8.928 -22.665  0.00  0.00    +0.022 C 
ENDROOT
BRANCH   1   2
ATOM      2  C   UNL     1      34.129  -9.813 -23.457  0.00  0.00    -0.021 C 
BRANCH   2   3
ATOM      3  C   UNL     1      33.373 -10.835 -24.305  0.00  0.00    -0.077 C 
BRANCH   3   4
ATOM      4  N   UNL     1      33.926 -12.172 -24.101  0.00  0.00    +0.390 N 
ATOM      5  C   UNL     1      33.661 -12.651 -22.741  0.00  0.00    -0.072 C 
ATOM      6  C   UNL     1      33.394 -13.114 -25.096  0.00  0.00    -0.051 C 
ATOM      7  C   UNL     1      34.395 -13.980 -22.504  0.00  0.00    +0.003 C 
ATOM      8  C   UNL     1      34.188 -14.976 -23.623  0.00  0.00    -0.031 C 
ATOM      9  C   UNL     1      33.722 -14.555 -24.815  0.00  0.00    -0.053 C 
ATOM     10  H   UNL     1      34.938 -12.114 -24.222  0.00  0.00    -0.079 HD
BRANCH   8  11
ATOM     11  C   UNL     1      34.516 -16.399 -23.368  0.00  0.00    -0.004 C 
ATOM     12  C   UNL     1      35.263 -16.756 -22.243  0.00  0.00    -0.000 C 
ATOM     13  C   UNL     1      34.078 -17.389 -24.251  0.00  0.00    -0.000 C 
ATOM     14  C   UNL     1      35.571 -18.095 -22.003  0.00  0.00    -0.000 C 
ATOM     15  C   UNL     1      34.387 -18.728 -24.011  0.00  0.00    -0.000 C 
ATOM     16  C   UNL     1      35.133 -19.081 -22.887  0.00  0.00    -0.000 C 
ENDBRANCH   8  11
ENDBRANCH   3   4
ENDBRANCH   2   3
ENDBRANCH   1   2
BRANCH   1  17
ATOM     17  C   UNL     1      33.861  -7.758 -21.981  0.00  0.00    +0.110 C 
BRANCH  17  21
ATOM     18  F   UNL     1      31.943  -2.430 -24.357  0.00  0.00    -0.204 F 
ATOM     19  O   UNL     1      31.978  -6.994 -20.032  0.00  0.00    -0.246 OA
ATOM     20  O   UNL     1      30.863  -3.107 -22.171  0.00  0.00    -0.267 OA
ATOM     21  N   UNL     1      33.073  -6.529 -22.037  0.00  0.00    -0.281 N 
ATOM     22  N   UNL     1      31.451  -5.067 -21.128  0.00  0.00    -0.274 N 
ATOM     23  C   UNL     1      33.248  -5.637 -23.140  0.00  0.00    +0.071 A 
ATOM     24  C   UNL     1      32.164  -6.257 -21.005  0.00  0.00    +0.330 A 
ATOM     25  C   UNL     1      32.501  -4.455 -23.210  0.00  0.00    +0.099 A 
ATOM     26  C   UNL     1      34.157  -5.905 -24.178  0.00  0.00    +0.018 C 
ATOM     27  C   UNL     1      31.536  -4.132 -22.145  0.00  0.00    +0.265 A 
ATOM     28  C   UNL     1      32.654  -3.564 -24.282  0.00  0.00    +0.146 C 
ATOM     29  C   UNL     1      34.311  -5.019 -25.247  0.00  0.00    +0.004 C 
ATOM     30  C   UNL     1      33.560  -3.849 -25.299  0.00  0.00    +0.030 C 
ATOM     31  H   UNL     1      30.810  -4.867 -20.407  0.00  0.00    +0.173 HD
ENDBRANCH  17  21
ENDBRANCH   1  17
TORSDOF 6
ENDMDL
MODEL 8
REMARK VINA RESULT:     -10.7      4.085     10.393
REMARK  Name = 448890
REMARK  6 active torsions:
REMARK  status: ('A' for Active; 'I' for Inactive)
REMARK    1  A    between atoms: C_1  and  C_2
REMARK    2  A    between atoms: C_1  and  C_17
REMARK    3  A    between atoms: C_2  and  C_3
REMARK    4  A    between atoms: C_3  and  N_4
REMARK    5  A    between atoms: C_8  and  C_11
REMARK    6  A    between atoms: C_17  and  N_21
REMARK                            x       y       z     vdW  Elec       q    Type
REMARK                         _______ _______ _______ _____ _____    ______ ____
ROOT
ATOM      1  C   UNL     1      35.068 -16.736 -22.327  0.00  0.00    +0.022 C 
ENDROOT
BRANCH   1   2
ATOM      2  C   UNL     1      35.100 -15.841 -23.570  0.00  0.00    -0.021 C 
BRANCH   2   3
ATOM      3  C   UNL     1      33.773 -15.104 -23.752  0.00  0.00    -0.077 C 
BRANCH   3   4
ATOM      4  N   UNL     1      33.963 -13.667 -23.569  0.00  0.00    +0.390 N 
ATOM      5  C   UNL     1      33.679 -12.935 -24.808  0.00  0.00    -0.072 C 
ATOM      6  C   UNL     1      33.127 -13.166 -22.468  0.00  0.00    -0.051 C 
ATOM      7  C   UNL     1      34.047 -11.453 -24.634  0.00  0.00    +0.003 C 
ATOM      8  C   UNL     1      33.501 -10.855 -23.357  0.00  0.00    -0.031 C 
ATOM      9  C   UNL     1      33.079 -11.666 -22.367  0.00  0.00    -0.053 C 
ATOM     10  H   UNL     1      34.942 -13.508 -23.328  0.00  0.00    -0.079 HD
BRANCH   8  11
ATOM     11  C   UNL     1      33.455  -9.379 -23.234  0.00  0.00    -0.004 C 
ATOM     12  C   UNL     1      34.588  -8.616 -23.522  0.00  0.00    -0.000 C 
ATOM     13  C   UNL     1      32.277  -8.745 -22.832  0.00  0.00    -0.000 C 
ATOM     14  C   UNL     1      34.544  -7.226 -23.407  0.00  0.00    -0.000 C 
ATOM     15  C   UNL     1      32.233  -7.356 -22.717  0.00  0.00    -0.000 C 
ATOM     16  C   UNL     1      33.367  -6.596 -23.004  0.00  0.00    -0.000 C 
ENDBRANCH   8  11
ENDBRANCH   3   4
ENDBRANCH   2   3
ENDBRANCH   1   2
BRANCH   1  17
ATOM     17  C   UNL     1      35.319 -18.204 -22.655  0.00  0.00    +0.110 C 
BRANCH  17  21
ATOM     18  F   UNL     1      34.485 -21.966 -17.873  0.00  0.00    -0.204 F 
ATOM     19  O   UNL     1      37.941 -18.300 -21.634  0.00  0.00    -0.246 OA
ATOM     20  O   UNL     1      36.848 -21.123 -18.205  0.00  0.00    -0.267 OA
ATOM     21  N   UNL     1      35.716 -18.976 -21.480  0.00  0.00    -0.281 N 
ATOM     22  N   UNL     1      37.356 -19.706 -19.939  0.00  0.00    -0.274 N 
ATOM     23  C   UNL     1      34.731 -19.742 -20.782  0.00  0.00    +0.071 A 
ATOM     24  C   UNL     1      37.055 -18.945 -21.067  0.00  0.00    +0.330 A 
ATOM     25  C   UNL     1      35.093 -20.489 -19.654  0.00  0.00    +0.099 A 
ATOM     26  C   UNL     1      33.387 -19.778 -21.192  0.00  0.00    +0.018 C 
ATOM     27  C   UNL     1      36.491 -20.482 -19.188  0.00  0.00    +0.265 A 
ATOM     28  C   UNL     1      34.147 -21.249 -18.954  0.00  0.00    +0.146 C 
ATOM     29  C   UNL     1      32.442 -20.534 -20.495  0.00  0.00    +0.004 C 
ATOM     30  C   UNL     1      32.820 -21.269 -19.376  0.00  0.00    +0.030 C 
ATOM     31  H   UNL     1      38.295 -19.690 -19.642  0.00  0.00    +0.173 HD
ENDBRANCH  17  21
ENDBRANCH   1  17
TORSDOF 6
ENDMDL
MODEL 9
REMARK VINA RESULT:     -10.5      8.333     13.612
REMARK  Name = 448890
REMARK  6 active torsions:
REMARK  status: ('A' for Active; 'I' for Inactive)
REMARK    1  A    between atoms: C_1  and  C_2
REMARK    2  A    between atoms: C_1  and  C_17
REMARK    3  A    between atoms: C_2  and  C_3
REMARK    4  A    between atoms: C_3  and  N_4
REMARK    5  A    between atoms: C_8  and  C_11
REMARK    6  A    between atoms: C_17  and  N_21
REMARK                            x       y       z     vdW  Elec       q    Type
REMARK                         _______ _______ _______ _____ _____    ______ ____
ROOT
ATOM      1  C   UNL     1      33.712 -23.789 -14.441  0.00  0.00    +0.022 C 
ENDROOT
BRANCH   1   2
ATOM      2  C   UNL     1      34.174 -23.697 -15.900  0.00  0.00    -0.021 C 
BRANCH   2   3
ATOM      3  C   UNL     1      32.993 -23.445 -16.836  0.00  0.00    -0.077 C 
BRANCH   3   4
ATOM      4  N   UNL     1      33.437 -22.726 -18.029  0.00  0.00    +0.390 N 
ATOM      5  C   UNL     1      32.568 -21.580 -18.309  0.00  0.00    -0.072 C 
ATOM      6  C   UNL     1      34.836 -22.294 -17.886  0.00  0.00    -0.051 C 
ATOM      7  C   UNL     1      32.956 -20.947 -19.653  0.00  0.00    +0.003 C 
ATOM      8  C   UNL     1      34.444 -20.713 -19.788  0.00  0.00    -0.031 C 
ATOM      9  C   UNL     1      35.298 -21.345 -18.959  0.00  0.00    -0.053 C 
ATOM     10  H   UNL     1      33.378 -23.366 -18.821  0.00  0.00    -0.079 HD
BRANCH   8  11
ATOM     11  C   UNL     1      34.919 -19.790 -20.846  0.00  0.00    -0.004 C 
ATOM     12  C   UNL     1      36.168 -19.176 -20.732  0.00  0.00    -0.000 C 
ATOM     13  C   UNL     1      34.119 -19.532 -21.962  0.00  0.00    -0.000 C 
ATOM     14  C   UNL     1      36.614 -18.307 -21.728  0.00  0.00    -0.000 C 
ATOM     15  C   UNL     1      34.566 -18.664 -22.958  0.00  0.00    -0.000 C 
ATOM     16  C   UNL     1      35.813 -18.051 -22.841  0.00  0.00    -0.000 C 
ENDBRANCH   8  11
ENDBRANCH   3   4
ENDBRANCH   2   3
ENDBRANCH   1   2
BRANCH   1  17
ATOM     17  C   UNL     1      34.331 -24.972 -13.703  0.00  0.00    +0.110 C 
BRANCH  17  21
ATOM     18  F   UNL     1      40.384 -24.967 -12.664  0.00  0.00    -0.204 F 
ATOM     19  O   UNL     1      34.446 -23.297 -11.444  0.00  0.00    -0.246 OA
ATOM     20  O   UNL     1      38.995 -23.588 -11.059  0.00  0.00    -0.267 OA
ATOM     21  N   UNL     1      35.565 -24.611 -13.010  0.00  0.00    -0.281 N 
ATOM     22  N   UNL     1      36.713 -23.468 -11.286  0.00  0.00    -0.274 N 
ATOM     23  C   UNL     1      36.810 -25.127 -13.486  0.00  0.00    +0.071 A 
ATOM     24  C   UNL     1      35.495 -23.767 -11.893  0.00  0.00    +0.330 A 
ATOM     25  C   UNL     1      38.003 -24.791 -12.835  0.00  0.00    +0.099 A 
ATOM     26  C   UNL     1      36.887 -25.973 -14.606  0.00  0.00    +0.018 C 
ATOM     27  C   UNL     1      37.972 -23.906 -11.657  0.00  0.00    +0.265 A 
ATOM     28  C   UNL     1      39.237 -25.283 -13.283  0.00  0.00    +0.146 C 
ATOM     29  C   UNL     1      38.115 -26.465 -15.054  0.00  0.00    +0.004 C 
ATOM     30  C   UNL     1      39.290 -26.121 -14.393  0.00  0.00    +0.030 C 
ATOM     31  H   UNL     1      36.673 -22.875 -10.501  0.00  0.00    +0.173 HD
ENDBRANCH  17  21
ENDBRANCH   1  17
TORSDOF 6
ENDMDL
