MODEL 1
REMARK VINA RESULT:     -11.3      0.000      0.000
REMARK  Name = 54713659
REMARK  4 active torsions:
REMARK  status: ('A' for Active; 'I' for Inactive)
REMARK    1  A    between atoms: C_14  and  O_30
REMARK    2  A    between atoms: C_15  and  C_19
REMARK    3  A    between atoms: N_18  and  C_21
REMARK    4  A    between atoms: C_21  and  C_24
REMARK                            x       y       z     vdW  Elec       q    Type
REMARK                         _______ _______ _______ _____ _____    ______ ____
ROOT
ATOM      1  O   UNL     1      38.096 -23.530 -12.845  0.00  0.00    -0.334 OA
ATOM      2  O   UNL     1      33.578 -23.614 -12.035  0.00  0.00    -0.268 OA
ATOM      3  O   UNL     1      31.575 -23.534 -16.749  0.00  0.00    -0.283 OA
ATOM      4  N   UNL     1      35.816 -23.697 -12.561  0.00  0.00    -0.251 N 
ATOM      5  N   UNL     1      35.268 -22.956 -15.170  0.00  0.00    -0.275 N 
ATOM      6  C   UNL     1      36.865 -23.759 -13.545  0.00  0.00    +0.215 C 
ATOM      7  C   UNL     1      36.378 -23.718 -11.234  0.00  0.00    +0.107 C 
ATOM      8  C   UNL     1      36.609 -22.724 -14.619  0.00  0.00    +0.147 C 
ATOM      9  C   UNL     1      37.758 -23.142 -11.498  0.00  0.00    +0.164 C 
ATOM     10  C   UNL     1      34.477 -23.589 -12.873  0.00  0.00    +0.268 C 
ATOM     11  C   UNL     1      34.205 -23.377 -14.347  0.00  0.00    +0.143 C 
ATOM     12  C   UNL     1      36.433 -25.138 -10.681  0.00  0.00    +0.024 C 
ATOM     13  C   UNL     1      35.012 -22.709 -16.511  0.00  0.00    +0.074 C 
ATOM     14  C   UNL     1      32.956 -23.582 -14.815  0.00  0.00    +0.191 C 
ATOM     15  C   UNL     1      33.824 -22.870 -17.105  0.00  0.00    +0.110 C 
ATOM     16  C   UNL     1      32.690 -23.345 -16.270  0.00  0.00    +0.236 C 
ENDROOT
BRANCH  15  19
ATOM     17  O   UNL     1      33.827 -23.459 -19.379  0.00  0.00    -0.270 OA
ATOM     18  N   UNL     1      33.471 -21.232 -18.791  0.00  0.00    -0.297 N 
ATOM     19  C   UNL     1      33.711 -22.572 -18.533  0.00  0.00    +0.251 C 
ATOM     20  H   UNL     1      33.398 -20.616 -18.026  0.00  0.00    +0.150 HD
BRANCH  18  21
ATOM     21  C   UNL     1      33.323 -20.689 -20.122  0.00  0.00    +0.119 C 
BRANCH  21  24
ATOM     22  F   UNL     1      33.477 -19.254 -22.556  0.00  0.00    -0.204 F 
ATOM     23  F   UNL     1      38.054 -18.228 -21.930  0.00  0.00    -0.204 F 
ATOM     24  C   UNL     1      34.584 -20.033 -20.605  0.00  0.00    +0.025 C 
ATOM     25  C   UNL     1      34.592 -19.340 -21.816  0.00  0.00    +0.140 C 
ATOM     26  C   UNL     1      35.749 -20.116 -19.842  0.00  0.00    +0.002 C 
ATOM     27  C   UNL     1      35.763 -18.730 -22.264  0.00  0.00    +0.059 C 
ATOM     28  C   UNL     1      36.921 -19.507 -20.290  0.00  0.00    +0.030 C 
ATOM     29  C   UNL     1      36.929 -18.813 -21.500  0.00  0.00    +0.142 C 
ENDBRANCH  21  24
ENDBRANCH  18  21
ENDBRANCH  15  19
BRANCH  14  30
ATOM     30  O   UNL     1      31.903 -24.009 -14.038  0.00  0.00    -0.502 OA
ATOM     31  H   UNL     1      32.057 -24.313 -13.166  0.00  0.00    +0.292 HD
ENDBRANCH  14  30
TORSDOF 4
ENDMDL
MODEL 2
REMARK VINA RESULT:     -11.2      1.406      1.605
REMARK  Name = 54713659
REMARK  4 active torsions:
REMARK  status: ('A' for Active; 'I' for Inactive)
REMARK    1  A    between atoms: C_14  and  O_30
REMARK    2  A    between atoms: C_15  and  C_19
REMARK    3  A    between atoms: N_18  and  C_21
REMARK    4  A    between atoms: C_21  and  C_24
REMARK                            x       y       z     vdW  Elec       q    Type
REMARK                         _______ _______ _______ _____ _____    ______ ____
ROOT
ATOM      1  O   UNL     1      38.607 -25.261 -14.085  0.00  0.00    -0.334 OA
ATOM      2  O   UNL     1      34.875 -24.873 -11.440  0.00  0.00    -0.268 OA
ATOM      3  O   UNL     1      31.238 -23.546 -14.794  0.00  0.00    -0.283 OA
ATOM      4  N   UNL     1      36.648 -25.160 -12.878  0.00  0.00    -0.251 N 
ATOM      5  N   UNL     1      35.284 -23.830 -14.884  0.00  0.00    -0.275 N 
ATOM      6  C   UNL     1      37.182 -25.166 -14.214  0.00  0.00    +0.215 C 
ATOM      7  C   UNL     1      37.671 -25.532 -11.932  0.00  0.00    +0.107 C 
ATOM      8  C   UNL     1      36.749 -23.907 -14.935  0.00  0.00    +0.147 C 
ATOM      9  C   UNL     1      38.922 -25.114 -12.685  0.00  0.00    +0.164 C 
ATOM     10  C   UNL     1      35.352 -24.804 -12.571  0.00  0.00    +0.268 C 
ATOM     11  C   UNL     1      34.571 -24.256 -13.748  0.00  0.00    +0.143 C 
ATOM     12  C   UNL     1      37.635 -27.029 -11.642  0.00  0.00    +0.024 C 
ATOM     13  C   UNL     1      34.578 -23.279 -15.943  0.00  0.00    +0.074 C 
ATOM     14  C   UNL     1      33.226 -24.183 -13.659  0.00  0.00    +0.191 C 
ATOM     15  C   UNL     1      33.246 -23.146 -15.989  0.00  0.00    +0.110 C 
ATOM     16  C   UNL     1      32.463 -23.618 -14.817  0.00  0.00    +0.236 C 
ENDROOT
BRANCH  15  19
ATOM     17  O   UNL     1      31.421 -22.465 -17.301  0.00  0.00    -0.270 OA
ATOM     18  N   UNL     1      33.582 -22.116 -18.103  0.00  0.00    -0.297 N 
ATOM     19  C   UNL     1      32.644 -22.548 -17.181  0.00  0.00    +0.251 C 
ATOM     20  H   UNL     1      34.536 -22.239 -17.892  0.00  0.00    +0.150 HD
BRANCH  18  21
ATOM     21  C   UNL     1      33.236 -21.494 -19.362  0.00  0.00    +0.119 C 
BRANCH  21  24
ATOM     22  F   UNL     1      32.939 -19.716 -21.542  0.00  0.00    -0.204 F 
ATOM     23  F   UNL     1      37.515 -18.513 -21.485  0.00  0.00    -0.204 F 
ATOM     24  C   UNL     1      34.376 -20.699 -19.929  0.00  0.00    +0.025 C 
ATOM     25  C   UNL     1      34.161 -19.839 -21.006  0.00  0.00    +0.140 C 
ATOM     26  C   UNL     1      35.652 -20.820 -19.377  0.00  0.00    +0.002 C 
ATOM     27  C   UNL     1      35.221 -19.101 -21.532  0.00  0.00    +0.059 C 
ATOM     28  C   UNL     1      36.712 -20.082 -19.904  0.00  0.00    +0.030 C 
ATOM     29  C   UNL     1      36.497 -19.222 -20.980  0.00  0.00    +0.142 C 
ENDBRANCH  21  24
ENDBRANCH  18  21
ENDBRANCH  15  19
BRANCH  14  30
ATOM     30  O   UNL     1      32.502 -24.608 -12.568  0.00  0.00    -0.502 OA
ATOM     31  H   UNL     1      32.428 -24.060 -11.812  0.00  0.00    +0.292 HD
ENDBRANCH  14  30
TORSDOF 4
ENDMDL
MODEL 3
REMARK VINA RESULT:     -10.9      9.178     13.069
REMARK  Name = 54713659
REMARK  4 active torsions:
REMARK  status: ('A' for Active; 'I' for Inactive)
REMARK    1  A    between atoms: C_14  and  O_30
REMARK    2  A    between atoms: C_15  and  C_19
REMARK    3  A    between atoms: N_18  and  C_21
REMARK    4  A    between atoms: C_21  and  C_24
REMARK                            x       y       z     vdW  Elec       q    Type
REMARK                         _______ _______ _______ _____ _____    ______ ____
ROOT
ATOM      1  O   UNL     1      33.117  -6.621 -22.793  0.00  0.00    -0.334 OA
ATOM      2  O   UNL     1      31.258  -9.376 -19.626  0.00  0.00    -0.268 OA
ATOM      3  O   UNL     1      32.772 -14.030 -21.138  0.00  0.00    -0.283 OA
ATOM      4  N   UNL     1      32.340  -8.084 -21.193  0.00  0.00    -0.251 N 
ATOM      5  N   UNL     1      32.805 -10.313 -22.764  0.00  0.00    -0.275 N 
ATOM      6  C   UNL     1      33.219  -7.973 -22.327  0.00  0.00    +0.215 C 
ATOM      7  C   UNL     1      31.911  -6.775 -20.767  0.00  0.00    +0.107 C 
ATOM      8  C   UNL     1      32.810  -8.981 -23.380  0.00  0.00    +0.147 C 
ATOM      9  C   UNL     1      32.042  -5.995 -22.064  0.00  0.00    +0.164 C 
ATOM     10  C   UNL     1      31.946  -9.285 -20.641  0.00  0.00    +0.268 C 
ATOM     11  C   UNL     1      32.389 -10.498 -21.432  0.00  0.00    +0.143 C 
ATOM     12  C   UNL     1      32.813  -6.231 -19.664  0.00  0.00    +0.024 C 
ATOM     13  C   UNL     1      33.161 -11.428 -23.510  0.00  0.00    +0.074 C 
ATOM     14  C   UNL     1      32.354 -11.710 -20.839  0.00  0.00    +0.191 C 
ATOM     15  C   UNL     1      33.171 -12.685 -23.049  0.00  0.00    +0.110 C 
ATOM     16  C   UNL     1      32.769 -12.908 -21.636  0.00  0.00    +0.236 C 
ENDROOT
BRANCH  15  19
ATOM     17  O   UNL     1      33.222 -13.760 -25.137  0.00  0.00    -0.270 OA
ATOM     18  N   UNL     1      34.366 -14.717 -23.346  0.00  0.00    -0.297 N 
ATOM     19  C   UNL     1      33.577 -13.758 -23.957  0.00  0.00    +0.251 C 
ATOM     20  H   UNL     1      34.583 -14.603 -22.391  0.00  0.00    +0.150 HD
BRANCH  18  21
ATOM     21  C   UNL     1      34.890 -15.876 -24.032  0.00  0.00    +0.119 C 
BRANCH  21  24
ATOM     22  F   UNL     1      33.948 -18.428 -24.811  0.00  0.00    -0.204 F 
ATOM     23  F   UNL     1      35.132 -20.386 -20.669  0.00  0.00    -0.204 F 
ATOM     24  C   UNL     1      34.954 -17.079 -23.137  0.00  0.00    +0.025 C 
ATOM     25  C   UNL     1      34.470 -18.309 -23.582  0.00  0.00    +0.140 C 
ATOM     26  C   UNL     1      35.497 -16.966 -21.856  0.00  0.00    +0.002 C 
ATOM     27  C   UNL     1      34.531 -19.426 -22.750  0.00  0.00    +0.059 C 
ATOM     28  C   UNL     1      35.556 -18.083 -21.023  0.00  0.00    +0.030 C 
ATOM     29  C   UNL     1      35.074 -19.313 -21.469  0.00  0.00    +0.142 C 
ENDBRANCH  21  24
ENDBRANCH  18  21
ENDBRANCH  15  19
BRANCH  14  30
ATOM     30  O   UNL     1      31.968 -11.918 -19.534  0.00  0.00    -0.502 OA
ATOM     31  H   UNL     1      32.138 -11.265 -18.885  0.00  0.00    +0.292 HD
ENDBRANCH  14  30
TORSDOF 4
ENDMDL
MODEL 4
REMARK VINA RESULT:     -10.7      6.392     10.988
REMARK  Name = 54713659
REMARK  4 active torsions:
REMARK  status: ('A' for Active; 'I' for Inactive)
REMARK    1  A    between atoms: C_14  and  O_30
REMARK    2  A    between atoms: C_15  and  C_19
REMARK    3  A    between atoms: N_18  and  C_21
REMARK    4  A    between atoms: C_21  and  C_24
REMARK                            x       y       z     vdW  Elec       q    Type
REMARK                         _______ _______ _______ _____ _____    ______ ____
ROOT
ATOM      1  O   UNL     1      32.264 -12.160 -19.541  0.00  0.00    -0.334 OA
ATOM      2  O   UNL     1      33.164 -12.028 -24.041  0.00  0.00    -0.268 OA
ATOM      3  O   UNL     1      34.798 -16.784 -25.014  0.00  0.00    -0.283 OA
ATOM      4  N   UNL     1      32.629 -12.245 -21.814  0.00  0.00    -0.251 N 
ATOM      5  N   UNL     1      34.044 -14.617 -21.667  0.00  0.00    -0.275 N 
ATOM      6  C   UNL     1      32.519 -13.057 -20.630  0.00  0.00    +0.215 C 
ATOM      7  C   UNL     1      32.171 -10.905 -21.541  0.00  0.00    +0.107 C 
ATOM      8  C   UNL     1      33.797 -13.847 -20.443  0.00  0.00    +0.147 C 
ATOM      9  C   UNL     1      32.418 -10.817 -20.045  0.00  0.00    +0.164 C 
ATOM     10  C   UNL     1      33.143 -12.698 -23.010  0.00  0.00    +0.268 C 
ATOM     11  C   UNL     1      33.739 -14.088 -22.935  0.00  0.00    +0.143 C 
ATOM     12  C   UNL     1      30.698 -10.742 -21.902  0.00  0.00    +0.024 C 
ATOM     13  C   UNL     1      34.640 -15.868 -21.595  0.00  0.00    +0.074 C 
ATOM     14  C   UNL     1      33.970 -14.760 -24.083  0.00  0.00    +0.191 C 
ATOM     15  C   UNL     1      34.925 -16.642 -22.650  0.00  0.00    +0.110 C 
ATOM     16  C   UNL     1      34.583 -16.124 -24.001  0.00  0.00    +0.236 C 
ENDROOT
BRANCH  15  19
ATOM     17  O   UNL     1      35.875 -18.672 -23.352  0.00  0.00    -0.270 OA
ATOM     18  N   UNL     1      35.717 -18.228 -21.069  0.00  0.00    -0.297 N 
ATOM     19  C   UNL     1      35.551 -17.943 -22.414  0.00  0.00    +0.251 C 
ATOM     20  H   UNL     1      35.416 -17.561 -20.410  0.00  0.00    +0.150 HD
BRANCH  18  21
ATOM     21  C   UNL     1      36.310 -19.453 -20.580  0.00  0.00    +0.119 C 
BRANCH  21  24
ATOM     22  F   UNL     1      37.038 -21.426 -18.688  0.00  0.00    -0.204 F 
ATOM     23  F   UNL     1      32.543 -22.712 -17.954  0.00  0.00    -0.204 F 
ATOM     24  C   UNL     1      35.307 -20.322 -19.879  0.00  0.00    +0.025 C 
ATOM     25  C   UNL     1      35.733 -21.278 -18.957  0.00  0.00    +0.140 C 
ATOM     26  C   UNL     1      33.946 -20.175 -20.152  0.00  0.00    +0.002 C 
ATOM     27  C   UNL     1      34.801 -22.085 -18.306  0.00  0.00    +0.059 C 
ATOM     28  C   UNL     1      33.014 -20.983 -19.502  0.00  0.00    +0.030 C 
ATOM     29  C   UNL     1      33.440 -21.937 -18.578  0.00  0.00    +0.142 C 
ENDBRANCH  21  24
ENDBRANCH  18  21
ENDBRANCH  15  19
BRANCH  14  30
ATOM     30  O   UNL     1      33.666 -14.274 -25.334  0.00  0.00    -0.502 OA
ATOM     31  H   UNL     1      32.906 -14.584 -25.786  0.00  0.00    +0.292 HD
ENDBRANCH  14  30
TORSDOF 4
ENDMDL
MODEL 5
REMARK VINA RESULT:     -10.2      5.174      8.476
REMARK  Name = 54713659
REMARK  4 active torsions:
REMARK  status: ('A' for Active; 'I' for Inactive)
REMARK    1  A    between atoms: C_14  and  O_30
REMARK    2  A    between atoms: C_15  and  C_19
REMARK    3  A    between atoms: N_18  and  C_21
REMARK    4  A    between atoms: C_21  and  C_24
REMARK                            x       y       z     vdW  Elec       q    Type
REMARK                         _______ _______ _______ _____ _____    ______ ____
ROOT
ATOM      1  O   UNL     1      28.414 -23.804 -14.099  0.00  0.00    -0.334 OA
ATOM      2  O   UNL     1      31.337 -22.313 -17.309  0.00  0.00    -0.268 OA
ATOM      3  O   UNL     1      35.884 -23.821 -15.495  0.00  0.00    -0.283 OA
ATOM      4  N   UNL     1      29.956 -23.213 -15.704  0.00  0.00    -0.251 N 
ATOM      5  N   UNL     1      32.112 -23.602 -14.015  0.00  0.00    -0.275 N 
ATOM      6  C   UNL     1      29.777 -23.985 -14.502  0.00  0.00    +0.215 C 
ATOM      7  C   UNL     1      28.677 -22.787 -16.215  0.00  0.00    +0.107 C 
ATOM      8  C   UNL     1      30.760 -23.514 -13.451  0.00  0.00    +0.147 C 
ATOM      9  C   UNL     1      27.848 -22.779 -14.942  0.00  0.00    +0.164 C 
ATOM     10  C   UNL     1      31.188 -22.905 -16.242  0.00  0.00    +0.268 C 
ATOM     11  C   UNL     1      32.357 -23.311 -15.370  0.00  0.00    +0.143 C 
ATOM     12  C   UNL     1      28.144 -23.766 -17.255  0.00  0.00    +0.024 C 
ATOM     13  C   UNL     1      33.188 -23.923 -13.199  0.00  0.00    +0.074 C 
ATOM     14  C   UNL     1      33.590 -23.364 -15.918  0.00  0.00    +0.191 C 
ATOM     15  C   UNL     1      34.459 -24.011 -13.609  0.00  0.00    +0.110 C 
ATOM     16  C   UNL     1      34.745 -23.742 -15.042  0.00  0.00    +0.236 C 
ENDROOT
BRANCH  15  19
ATOM     17  O   UNL     1      35.668 -23.679 -11.622  0.00  0.00    -0.270 OA
ATOM     18  N   UNL     1      36.187 -25.510 -12.968  0.00  0.00    -0.297 N 
ATOM     19  C   UNL     1      35.486 -24.365 -12.629  0.00  0.00    +0.251 C 
ATOM     20  H   UNL     1      35.948 -25.973 -13.803  0.00  0.00    +0.150 HD
BRANCH  18  21
ATOM     21  C   UNL     1      37.252 -26.062 -12.161  0.00  0.00    +0.119 C 
BRANCH  21  24
ATOM     22  F   UNL     1      37.351 -28.795 -12.884  0.00  0.00    -0.204 F 
ATOM     23  F   UNL     1      41.374 -28.245 -15.316  0.00  0.00    -0.204 F 
ATOM     24  C   UNL     1      38.351 -26.645 -13.002  0.00  0.00    +0.025 C 
ATOM     25  C   UNL     1      38.340 -28.003 -13.322  0.00  0.00    +0.140 C 
ATOM     26  C   UNL     1      39.384 -25.828 -13.463  0.00  0.00    +0.002 C 
ATOM     27  C   UNL     1      39.360 -28.544 -14.104  0.00  0.00    +0.059 C 
ATOM     28  C   UNL     1      40.404 -26.369 -14.244  0.00  0.00    +0.030 C 
ATOM     29  C   UNL     1      40.393 -27.726 -14.565  0.00  0.00    +0.142 C 
ENDBRANCH  21  24
ENDBRANCH  18  21
ENDBRANCH  15  19
BRANCH  14  30
ATOM     30  O   UNL     1      33.856 -23.101 -17.242  0.00  0.00    -0.502 OA
ATOM     31  H   UNL     1      34.742 -23.083 -17.548  0.00  0.00    +0.292 HD
ENDBRANCH  14  30
TORSDOF 4
ENDMDL
MODEL 6
REMARK VINA RESULT:     -10.1      6.279     10.834
REMARK  Name = 54713659
REMARK  4 active torsions:
REMARK  status: ('A' for Active; 'I' for Inactive)
REMARK    1  A    between atoms: C_14  and  O_30
REMARK    2  A    between atoms: C_15  and  C_19
REMARK    3  A    between atoms: N_18  and  C_21
REMARK    4  A    between atoms: C_21  and  C_24
REMARK                            x       y       z     vdW  Elec       q    Type
REMARK                         _______ _______ _______ _____ _____    ______ ____
ROOT
ATOM      1  O   UNL     1      32.313 -12.289 -19.478  0.00  0.00    -0.334 OA
ATOM      2  O   UNL     1      33.147 -12.116 -23.989  0.00  0.00    -0.268 OA
ATOM      3  O   UNL     1      34.855 -16.835 -25.012  0.00  0.00    -0.283 OA
ATOM      4  N   UNL     1      32.647 -12.355 -21.756  0.00  0.00    -0.251 N 
ATOM      5  N   UNL     1      34.108 -14.701 -21.643  0.00  0.00    -0.275 N 
ATOM      6  C   UNL     1      32.569 -13.175 -20.575  0.00  0.00    +0.215 C 
ATOM      7  C   UNL     1      32.168 -11.025 -21.469  0.00  0.00    +0.107 C 
ATOM      8  C   UNL     1      33.864 -13.942 -20.410  0.00  0.00    +0.147 C 
ATOM      9  C   UNL     1      32.434 -10.941 -19.976  0.00  0.00    +0.164 C 
ATOM     10  C   UNL     1      33.152 -12.792 -22.962  0.00  0.00    +0.268 C 
ATOM     11  C   UNL     1      33.775 -14.170 -22.903  0.00  0.00    +0.143 C 
ATOM     12  C   UNL     1      30.688 -10.888 -21.808  0.00  0.00    +0.024 C 
ATOM     13  C   UNL     1      34.728 -15.941 -21.586  0.00  0.00    +0.074 C 
ATOM     14  C   UNL     1      34.003 -14.832 -24.058  0.00  0.00    +0.191 C 
ATOM     15  C   UNL     1      35.013 -16.703 -22.649  0.00  0.00    +0.110 C 
ATOM     16  C   UNL     1      34.642 -16.185 -23.992  0.00  0.00    +0.236 C 
ENDROOT
BRANCH  15  19
ATOM     17  O   UNL     1      36.032 -18.691 -23.376  0.00  0.00    -0.270 OA
ATOM     18  N   UNL     1      35.806 -18.309 -21.088  0.00  0.00    -0.297 N 
ATOM     19  C   UNL     1      35.665 -17.994 -22.429  0.00  0.00    +0.251 C 
ATOM     20  H   UNL     1      35.471 -17.667 -20.421  0.00  0.00    +0.150 HD
BRANCH  18  21
ATOM     21  C   UNL     1      36.418 -19.531 -20.615  0.00  0.00    +0.119 C 
BRANCH  21  24
ATOM     22  F   UNL     1      33.644 -19.567 -21.174  0.00  0.00    -0.204 F 
ATOM     23  F   UNL     1      32.771 -22.767 -17.799  0.00  0.00    -0.204 F 
ATOM     24  C   UNL     1      35.444 -20.393 -19.865  0.00  0.00    +0.025 C 
ATOM     25  C   UNL     1      34.088 -20.363 -20.190  0.00  0.00    +0.140 C 
ATOM     26  C   UNL     1      35.897 -21.226 -18.840  0.00  0.00    +0.002 C 
ATOM     27  C   UNL     1      33.185 -21.164 -19.494  0.00  0.00    +0.059 C 
ATOM     28  C   UNL     1      34.993 -22.026 -18.143  0.00  0.00    +0.030 C 
ATOM     29  C   UNL     1      33.638 -21.997 -18.469  0.00  0.00    +0.142 C 
ENDBRANCH  21  24
ENDBRANCH  18  21
ENDBRANCH  15  19
BRANCH  14  30
ATOM     30  O   UNL     1      33.672 -14.345 -25.302  0.00  0.00    -0.502 OA
ATOM     31  H   UNL     1      33.561 -14.934 -26.022  0.00  0.00    +0.292 HD
ENDBRANCH  14  30
TORSDOF 4
ENDMDL
MODEL 7
REMARK VINA RESULT:     -10.0      3.953      6.451
REMARK  Name = 54713659
REMARK  4 active torsions:
REMARK  status: ('A' for Active; 'I' for Inactive)
REMARK    1  A    between atoms: C_14  and  O_30
REMARK    2  A    between atoms: C_15  and  C_19
REMARK    3  A    between atoms: N_18  and  C_21
REMARK    4  A    between atoms: C_21  and  C_24
REMARK                            x       y       z     vdW  Elec       q    Type
REMARK                         _______ _______ _______ _____ _____    ______ ____
ROOT
ATOM      1  O   UNL     1      32.003 -22.752 -17.517  0.00  0.00    -0.334 OA
ATOM      2  O   UNL     1      36.561 -22.212 -17.473  0.00  0.00    -0.268 OA
ATOM      3  O   UNL     1      37.305 -18.541 -20.967  0.00  0.00    -0.283 OA
ATOM      4  N   UNL     1      34.263 -22.308 -17.489  0.00  0.00    -0.251 N 
ATOM      5  N   UNL     1      34.182 -20.882 -19.858  0.00  0.00    -0.275 N 
ATOM      6  C   UNL     1      32.997 -21.827 -17.977  0.00  0.00    +0.215 C 
ATOM      7  C   UNL     1      34.055 -23.343 -16.506  0.00  0.00    +0.107 C 
ATOM      8  C   UNL     1      33.044 -21.731 -19.487  0.00  0.00    +0.147 C 
ATOM      9  C   UNL     1      32.696 -23.872 -16.931  0.00  0.00    +0.164 C 
ATOM     10  C   UNL     1      35.483 -21.857 -17.945  0.00  0.00    +0.268 C 
ATOM     11  C   UNL     1      35.387 -20.919 -19.130  0.00  0.00    +0.143 C 
ATOM     12  C   UNL     1      34.044 -22.768 -15.094  0.00  0.00    +0.024 C 
ATOM     13  C   UNL     1      34.107 -20.064 -20.976  0.00  0.00    +0.074 C 
ATOM     14  C   UNL     1      36.459 -20.165 -19.453  0.00  0.00    +0.191 C 
ATOM     15  C   UNL     1      35.091 -19.267 -21.409  0.00  0.00    +0.110 C 
ATOM     16  C   UNL     1      36.364 -19.258 -20.641  0.00  0.00    +0.236 C 
ENDROOT
BRANCH  15  19
ATOM     17  O   UNL     1      34.378 -18.951 -23.625  0.00  0.00    -0.270 OA
ATOM     18  N   UNL     1      35.234 -17.133 -22.444  0.00  0.00    -0.297 N 
ATOM     19  C   UNL     1      34.859 -18.456 -22.605  0.00  0.00    +0.251 C 
ATOM     20  H   UNL     1      35.609 -16.857 -21.576  0.00  0.00    +0.150 HD
BRANCH  18  21
ATOM     21  C   UNL     1      35.105 -16.135 -23.482  0.00  0.00    +0.119 C 
BRANCH  21  24
ATOM     22  F   UNL     1      33.723 -14.400 -25.237  0.00  0.00    -0.204 F 
ATOM     23  F   UNL     1      32.277 -11.602 -21.704  0.00  0.00    -0.204 F 
ATOM     24  C   UNL     1      34.351 -14.926 -23.009  0.00  0.00    +0.025 C 
ATOM     25  C   UNL     1      33.691 -14.111 -23.928  0.00  0.00    +0.140 C 
ATOM     26  C   UNL     1      34.311 -14.618 -21.648  0.00  0.00    +0.002 C 
ATOM     27  C   UNL     1      32.990 -12.988 -23.488  0.00  0.00    +0.059 C 
ATOM     28  C   UNL     1      33.611 -13.495 -21.209  0.00  0.00    +0.030 C 
ATOM     29  C   UNL     1      32.950 -12.680 -22.128  0.00  0.00    +0.142 C 
ENDBRANCH  21  24
ENDBRANCH  18  21
ENDBRANCH  15  19
BRANCH  14  30
ATOM     30  O   UNL     1      37.642 -20.168 -18.750  0.00  0.00    -0.502 OA
ATOM     31  H   UNL     1      37.640 -20.337 -17.828  0.00  0.00    +0.292 HD
ENDBRANCH  14  30
TORSDOF 4
ENDMDL
MODEL 8
REMARK VINA RESULT:      -9.9      2.518      4.265
REMARK  Name = 54713659
REMARK  4 active torsions:
REMARK  status: ('A' for Active; 'I' for Inactive)
REMARK    1  A    between atoms: C_14  and  O_30
REMARK    2  A    between atoms: C_15  and  C_19
REMARK    3  A    between atoms: N_18  and  C_21
REMARK    4  A    between atoms: C_21  and  C_24
REMARK                            x       y       z     vdW  Elec       q    Type
REMARK                         _______ _______ _______ _____ _____    ______ ____
ROOT
ATOM      1  O   UNL     1      31.119 -23.425 -14.660  0.00  0.00    -0.334 OA
ATOM      2  O   UNL     1      35.612 -23.970 -15.428  0.00  0.00    -0.268 OA
ATOM      3  O   UNL     1      36.468 -20.872 -19.417  0.00  0.00    -0.283 OA
ATOM      4  N   UNL     1      33.386 -23.524 -15.056  0.00  0.00    -0.251 N 
ATOM      5  N   UNL     1      33.176 -22.316 -17.536  0.00  0.00    -0.275 N 
ATOM      6  C   UNL     1      32.186 -22.800 -15.385  0.00  0.00    +0.215 C 
ATOM      7  C   UNL     1      33.146 -24.398 -13.934  0.00  0.00    +0.107 C 
ATOM      8  C   UNL     1      31.970 -22.841 -16.883  0.00  0.00    +0.147 C 
ATOM      9  C   UNL     1      31.650 -24.626 -14.064  0.00  0.00    +0.164 C 
ATOM     10  C   UNL     1      34.568 -23.411 -15.757  0.00  0.00    +0.268 C 
ATOM     11  C   UNL     1      34.458 -22.576 -17.015  0.00  0.00    +0.143 C 
ATOM     12  C   UNL     1      33.524 -23.724 -12.619  0.00  0.00    +0.024 C 
ATOM     13  C   UNL     1      33.072 -21.597 -18.717  0.00  0.00    +0.074 C 
ATOM     14  C   UNL     1      35.588 -22.124 -17.599  0.00  0.00    +0.191 C 
ATOM     15  C   UNL     1      34.107 -21.092 -19.399  0.00  0.00    +0.110 C 
ATOM     16  C   UNL     1      35.472 -21.320 -18.856  0.00  0.00    +0.236 C 
ENDROOT
BRANCH  15  19
ATOM     17  O   UNL     1      32.685 -20.069 -20.964  0.00  0.00    -0.270 OA
ATOM     18  N   UNL     1      34.987 -20.023 -21.331  0.00  0.00    -0.297 N 
ATOM     19  C   UNL     1      33.837 -20.349 -20.631  0.00  0.00    +0.251 C 
ATOM     20  H   UNL     1      35.854 -20.304 -20.960  0.00  0.00    +0.150 HD
BRANCH  18  21
ATOM     21  C   UNL     1      34.981 -19.293 -22.578  0.00  0.00    +0.119 C 
BRANCH  21  24
ATOM     22  F   UNL     1      34.530 -17.453 -24.680  0.00  0.00    -0.204 F 
ATOM     23  F   UNL     1      34.661 -13.731 -21.759  0.00  0.00    -0.204 F 
ATOM     24  C   UNL     1      34.895 -17.810 -22.361  0.00  0.00    +0.025 C 
ATOM     25  C   UNL     1      34.672 -16.957 -23.442  0.00  0.00    +0.140 C 
ATOM     26  C   UNL     1      35.040 -17.284 -21.077  0.00  0.00    +0.002 C 
ATOM     27  C   UNL     1      34.592 -15.579 -23.240  0.00  0.00    +0.059 C 
ATOM     28  C   UNL     1      34.962 -15.907 -20.875  0.00  0.00    +0.030 C 
ATOM     29  C   UNL     1      34.737 -15.054 -21.955  0.00  0.00    +0.142 C 
ENDBRANCH  21  24
ENDBRANCH  18  21
ENDBRANCH  15  19
BRANCH  14  30
ATOM     30  O   UNL     1      36.853 -22.348 -17.103  0.00  0.00    -0.502 OA
ATOM     31  H   UNL     1      37.590 -21.911 -17.481  0.00  0.00    +0.292 HD
ENDBRANCH  14  30
TORSDOF 4
ENDMDL
MODEL 9
REMARK VINA RESULT:      -9.9      8.176     12.430
REMARK  Name = 54713659
REMARK  4 active torsions:
REMARK  status: ('A' for Active; 'I' for Inactive)
REMARK    1  A    between atoms: C_14  and  O_30
REMARK    2  A    between atoms: C_15  and  C_19
REMARK    3  A    between atoms: N_18  and  C_21
REMARK    4  A    between atoms: C_21  and  C_24
REMARK                            x       y       z     vdW  Elec       q    Type
REMARK                         _______ _______ _______ _____ _____    ______ ____
ROOT
ATOM      1  O   UNL     1      33.012  -8.105 -23.836  0.00  0.00    -0.334 OA
ATOM      2  O   UNL     1      31.348 -10.428 -20.243  0.00  0.00    -0.268 OA
ATOM      3  O   UNL     1      33.580 -15.013 -20.720  0.00  0.00    -0.283 OA
ATOM      4  N   UNL     1      32.341  -9.324 -22.000  0.00  0.00    -0.251 N 
ATOM      5  N   UNL     1      33.208 -11.725 -23.067  0.00  0.00    -0.275 N 
ATOM      6  C   UNL     1      33.268  -9.309 -23.101  0.00  0.00    +0.215 C 
ATOM      7  C   UNL     1      31.710  -8.034 -21.866  0.00  0.00    +0.107 C 
ATOM      8  C   UNL     1      33.070 -10.553 -23.941  0.00  0.00    +0.147 C 
ATOM      9  C   UNL     1      31.816  -7.514 -23.289  0.00  0.00    +0.164 C 
ATOM     10  C   UNL     1      32.081 -10.437 -21.230  0.00  0.00    +0.268 C 
ATOM     11  C   UNL     1      32.736 -11.703 -21.741  0.00  0.00    +0.143 C 
ATOM     12  C   UNL     1      32.456  -7.157 -20.865  0.00  0.00    +0.024 C 
ATOM     13  C   UNL     1      33.761 -12.899 -23.556  0.00  0.00    +0.074 C 
ATOM     14  C   UNL     1      32.829 -12.767 -20.915  0.00  0.00    +0.191 C 
ATOM     15  C   UNL     1      33.914 -14.025 -22.850  0.00  0.00    +0.110 C 
ATOM     16  C   UNL     1      33.456 -14.024 -21.435  0.00  0.00    +0.236 C 
ENDROOT
BRANCH  15  19
ATOM     17  O   UNL     1      34.579 -15.262 -24.733  0.00  0.00    -0.270 OA
ATOM     18  N   UNL     1      34.991 -16.129 -22.609  0.00  0.00    -0.297 N 
ATOM     19  C   UNL     1      34.521 -15.184 -23.505  0.00  0.00    +0.251 C 
ATOM     20  H   UNL     1      34.886 -15.953 -21.646  0.00  0.00    +0.150 HD
BRANCH  18  21
ATOM     21  C   UNL     1      35.630 -17.363 -23.012  0.00  0.00    +0.119 C 
BRANCH  21  24
ATOM     22  F   UNL     1      37.913 -18.205 -21.569  0.00  0.00    -0.204 F 
ATOM     23  F   UNL     1      35.420 -21.266 -18.958  0.00  0.00    -0.204 F 
ATOM     24  C   UNL     1      35.575 -18.403 -21.931  0.00  0.00    +0.025 C 
ATOM     25  C   UNL     1      36.739 -18.774 -21.258  0.00  0.00    +0.140 C 
ATOM     26  C   UNL     1      34.358 -19.000 -21.599  0.00  0.00    +0.002 C 
ATOM     27  C   UNL     1      36.688 -19.740 -20.254  0.00  0.00    +0.059 C 
ATOM     28  C   UNL     1      34.307 -19.967 -20.596  0.00  0.00    +0.030 C 
ATOM     29  C   UNL     1      35.471 -20.337 -19.922  0.00  0.00    +0.142 C 
ENDBRANCH  21  24
ENDBRANCH  18  21
ENDBRANCH  15  19
BRANCH  14  30
ATOM     30  O   UNL     1      32.392 -12.769 -19.610  0.00  0.00    -0.502 OA
ATOM     31  H   UNL     1      31.777 -13.415 -19.322  0.00  0.00    +0.292 HD
ENDBRANCH  14  30
TORSDOF 4
ENDMDL
