MODEL 1
REMARK VINA RESULT:     -11.2      0.000      0.000
REMARK  Name = 66000
REMARK  8 active torsions:
REMARK  status: ('A' for Active; 'I' for Inactive)
REMARK    1  A    between atoms: C_1  and  O_19
REMARK    2  A    between atoms: C_4  and  C_7
REMARK    3  A    between atoms: C_10  and  C_15
REMARK    4  A    between atoms: O_19  and  C_20
REMARK    5  A    between atoms: C_20  and  C_24
REMARK    6  A    between atoms: C_23  and  C_28
REMARK    7  A    between atoms: C_28  and  C_30
REMARK    8  A    between atoms: C_30  and  O_31
REMARK                            x       y       z     vdW  Elec       q    Type
REMARK                         _______ _______ _______ _____ _____    ______ ____
ROOT
ATOM      1  C   UNL     1      34.861 -20.958 -19.606  0.00  0.00    +0.139 C 
ATOM      2  C   UNL     1      33.473 -20.893 -19.629  0.00  0.00    +0.037 C 
ATOM      3  C   UNL     1      35.524 -21.646 -18.598  0.00  0.00    +0.037 C 
ATOM      4  C   UNL     1      33.395 -22.218 -17.611  0.00  0.00    +0.000 C 
ATOM      5  C   UNL     1      32.737 -21.526 -18.627  0.00  0.00    +0.003 C 
ATOM      6  C   UNL     1      34.788 -22.278 -17.595  0.00  0.00    +0.003 C 
ENDROOT
BRANCH   4   7
ATOM      7  C   UNL     1      32.632 -22.875 -16.571  0.00  0.00    +0.000 C 
ATOM      8  C   UNL     1      31.238 -22.857 -16.612  0.00  0.00    +0.000 C 
ATOM      9  C   UNL     1      33.290 -23.526 -15.528  0.00  0.00    +0.000 C 
ATOM     10  C   UNL     1      31.161 -24.142 -14.568  0.00  0.00    +0.031 C 
ATOM     11  C   UNL     1      30.502 -23.490 -15.610  0.00  0.00    +0.003 C 
ATOM     12  C   UNL     1      32.555 -24.160 -14.526  0.00  0.00    +0.003 C 
BRANCH  10  15
ATOM     13  N   UNL     1      29.248 -25.538 -13.819  0.00  0.00    -0.343 N 
ATOM     14  N   UNL     1      30.778 -24.704 -12.262  0.00  0.00    -0.285 NA
ATOM     15  C   UNL     1      30.393 -24.802 -13.523  0.00  0.00    +0.117 C 
ATOM     16  H   UNL     1      28.744 -25.976 -13.096  0.00  0.00    +0.144 HD
ATOM     17  H   UNL     1      28.943 -25.620 -14.751  0.00  0.00    +0.144 HD
ATOM     18  H   UNL     1      30.261 -25.149 -11.554  0.00  0.00    +0.188 HD
ENDBRANCH  10  15
ENDBRANCH   4   7
BRANCH   1  19
ATOM     19  O   UNL     1      35.585 -20.334 -20.591  0.00  0.00    -0.474 OA
BRANCH  19  20
ATOM     20  C   UNL     1      35.070 -19.113 -21.092  0.00  0.00    +0.225 C 
BRANCH  20  24
ATOM     21  O   UNL     1      33.002 -18.326 -24.883  0.00  0.00    -0.275 OA
ATOM     22  N   UNL     1      34.581 -19.334 -23.481  0.00  0.00    -0.302 N 
ATOM     23  C   UNL     1      34.434 -16.999 -23.413  0.00  0.00    +0.089 C 
ATOM     24  C   UNL     1      35.572 -18.920 -22.517  0.00  0.00    +0.116 C 
ATOM     25  C   UNL     1      35.795 -17.455 -22.876  0.00  0.00    +0.033 C 
ATOM     26  C   UNL     1      33.895 -18.265 -24.052  0.00  0.00    +0.223 C 
ATOM     27  H   UNL     1      34.409 -20.275 -23.711  0.00  0.00    +0.149 HD
BRANCH  23  28
ATOM     28  C   UNL     1      34.534 -15.842 -24.389  0.00  0.00    +0.118 C 
BRANCH  28  30
ATOM     29  O   UNL     1      33.583 -14.209 -22.851  0.00  0.00    -0.250 OA
ATOM     30  C   UNL     1      33.672 -14.677 -23.976  0.00  0.00    +0.314 C 
BRANCH  30  31
ATOM     31  O   UNL     1      32.988 -14.199 -25.048  0.00  0.00    -0.480 OA
ATOM     32  H   UNL     1      32.697 -14.786 -25.718  0.00  0.00    +0.295 HD
ENDBRANCH  30  31
ENDBRANCH  28  30
ENDBRANCH  23  28
ENDBRANCH  20  24
ENDBRANCH  19  20
ENDBRANCH   1  19
TORSDOF 8
ENDMDL
MODEL 2
REMARK VINA RESULT:     -11.2      3.041      5.506
REMARK  Name = 66000
REMARK  8 active torsions:
REMARK  status: ('A' for Active; 'I' for Inactive)
REMARK    1  A    between atoms: C_1  and  O_19
REMARK    2  A    between atoms: C_4  and  C_7
REMARK    3  A    between atoms: C_10  and  C_15
REMARK    4  A    between atoms: O_19  and  C_20
REMARK    5  A    between atoms: C_20  and  C_24
REMARK    6  A    between atoms: C_23  and  C_28
REMARK    7  A    between atoms: C_28  and  C_30
REMARK    8  A    between atoms: C_30  and  O_31
REMARK                            x       y       z     vdW  Elec       q    Type
REMARK                         _______ _______ _______ _____ _____    ______ ____
ROOT
ATOM      1  C   UNL     1      34.797 -17.267 -23.695  0.00  0.00    +0.139 C 
ATOM      2  C   UNL     1      34.156 -18.484 -23.893  0.00  0.00    +0.037 C 
ATOM      3  C   UNL     1      35.345 -16.944 -22.460  0.00  0.00    +0.037 C 
ATOM      4  C   UNL     1      34.607 -19.075 -21.595  0.00  0.00    +0.000 C 
ATOM      5  C   UNL     1      34.061 -19.391 -22.838  0.00  0.00    +0.003 C 
ATOM      6  C   UNL     1      35.249 -17.851 -21.405  0.00  0.00    +0.003 C 
ENDROOT
BRANCH   4   7
ATOM      7  C   UNL     1      34.508 -20.016 -20.500  0.00  0.00    +0.000 C 
ATOM      8  C   UNL     1      33.256 -20.387 -20.011  0.00  0.00    +0.000 C 
ATOM      9  C   UNL     1      35.665 -20.553 -19.934  0.00  0.00    +0.000 C 
ATOM     10  C   UNL     1      34.316 -21.832 -18.391  0.00  0.00    +0.031 C 
ATOM     11  C   UNL     1      33.160 -21.296 -18.956  0.00  0.00    +0.003 C 
ATOM     12  C   UNL     1      35.569 -21.461 -18.879  0.00  0.00    +0.003 C 
BRANCH  10  15
ATOM     13  N   UNL     1      33.048 -23.503 -17.060  0.00  0.00    -0.343 N 
ATOM     14  N   UNL     1      35.246 -22.960 -16.483  0.00  0.00    -0.285 NA
ATOM     15  C   UNL     1      34.216 -22.778 -17.291  0.00  0.00    +0.117 C 
ATOM     16  H   UNL     1      33.002 -24.137 -16.309  0.00  0.00    +0.144 HD
ATOM     17  H   UNL     1      32.269 -23.379 -17.648  0.00  0.00    +0.144 HD
ATOM     18  H   UNL     1      35.181 -23.600 -15.738  0.00  0.00    +0.188 HD
ENDBRANCH  10  15
ENDBRANCH   4   7
BRANCH   1  19
ATOM     19  O   UNL     1      34.890 -16.374 -24.733  0.00  0.00    -0.474 OA
BRANCH  19  20
ATOM     20  C   UNL     1      35.004 -15.003 -24.394  0.00  0.00    +0.225 C 
BRANCH  20  24
ATOM     21  O   UNL     1      32.771 -12.225 -21.831  0.00  0.00    -0.275 OA
ATOM     22  N   UNL     1      33.056 -14.073 -23.239  0.00  0.00    -0.302 N 
ATOM     23  C   UNL     1      33.901 -12.023 -23.988  0.00  0.00    +0.089 C 
ATOM     24  C   UNL     1      33.634 -14.351 -24.532  0.00  0.00    +0.116 C 
ATOM     25  C   UNL     1      33.695 -12.971 -25.175  0.00  0.00    +0.033 C 
ATOM     26  C   UNL     1      33.162 -12.734 -22.871  0.00  0.00    +0.223 C 
ATOM     27  H   UNL     1      32.629 -14.758 -22.677  0.00  0.00    +0.149 HD
BRANCH  23  28
ATOM     28  C   UNL     1      33.379 -10.622 -24.244  0.00  0.00    +0.118 C 
BRANCH  28  30
ATOM     29  O   UNL     1      33.636  -8.758 -22.696  0.00  0.00    -0.250 OA
ATOM     30  C   UNL     1      34.129  -9.584 -23.448  0.00  0.00    +0.314 C 
BRANCH  30  31
ATOM     31  O   UNL     1      35.462  -9.691 -23.682  0.00  0.00    -0.480 OA
ATOM     32  H   UNL     1      36.008 -10.157 -23.079  0.00  0.00    +0.295 HD
ENDBRANCH  30  31
ENDBRANCH  28  30
ENDBRANCH  23  28
ENDBRANCH  20  24
ENDBRANCH  19  20
ENDBRANCH   1  19
TORSDOF 8
ENDMDL
MODEL 3
REMARK VINA RESULT:     -11.2      4.079      9.971
REMARK  Name = 66000
REMARK  8 active torsions:
REMARK  status: ('A' for Active; 'I' for Inactive)
REMARK    1  A    between atoms: C_1  and  O_19
REMARK    2  A    between atoms: C_4  and  C_7
REMARK    3  A    between atoms: C_10  and  C_15
REMARK    4  A    between atoms: O_19  and  C_20
REMARK    5  A    between atoms: C_20  and  C_24
REMARK    6  A    between atoms: C_23  and  C_28
REMARK    7  A    between atoms: C_28  and  C_30
REMARK    8  A    between atoms: C_30  and  O_31
REMARK                            x       y       z     vdW  Elec       q    Type
REMARK                         _______ _______ _______ _____ _____    ______ ____
ROOT
ATOM      1  C   UNL     1      34.761 -22.359 -17.796  0.00  0.00    +0.139 C 
ATOM      2  C   UNL     1      33.565 -21.997 -18.405  0.00  0.00    +0.037 C 
ATOM      3  C   UNL     1      35.963 -21.790 -18.196  0.00  0.00    +0.037 C 
ATOM      4  C   UNL     1      34.776 -20.476 -19.839  0.00  0.00    +0.000 C 
ATOM      5  C   UNL     1      33.573 -21.052 -19.430  0.00  0.00    +0.003 C 
ATOM      6  C   UNL     1      35.971 -20.845 -19.222  0.00  0.00    +0.003 C 
ENDROOT
BRANCH   4   7
ATOM      7  C   UNL     1      34.785 -19.496 -20.903  0.00  0.00    +0.000 C 
ATOM      8  C   UNL     1      35.499 -18.307 -20.750  0.00  0.00    +0.000 C 
ATOM      9  C   UNL     1      34.081 -19.740 -22.082  0.00  0.00    +0.000 C 
ATOM     10  C   UNL     1      34.805 -17.607 -22.956  0.00  0.00    +0.031 C 
ATOM     11  C   UNL     1      35.508 -17.362 -21.777  0.00  0.00    +0.003 C 
ATOM     12  C   UNL     1      34.091 -18.795 -23.109  0.00  0.00    +0.003 C 
BRANCH  10  15
ATOM     13  N   UNL     1      35.641 -15.500 -23.973  0.00  0.00    -0.343 N 
ATOM     14  N   UNL     1      34.024 -16.779 -25.073  0.00  0.00    -0.285 NA
ATOM     15  C   UNL     1      34.814 -16.621 -24.026  0.00  0.00    +0.117 C 
ATOM     16  H   UNL     1      35.631 -14.846 -24.708  0.00  0.00    +0.144 HD
ATOM     17  H   UNL     1      36.234 -15.364 -23.200  0.00  0.00    +0.144 HD
ATOM     18  H   UNL     1      34.028 -16.113 -25.798  0.00  0.00    +0.188 HD
ENDBRANCH  10  15
ENDBRANCH   4   7
BRANCH   1  19
ATOM     19  O   UNL     1      34.752 -23.290 -16.787  0.00  0.00    -0.474 OA
BRANCH  19  20
ATOM     20  C   UNL     1      34.203 -22.887 -15.545  0.00  0.00    +0.225 C 
BRANCH  20  24
ATOM     21  O   UNL     1      31.522 -23.122 -12.077  0.00  0.00    -0.275 OA
ATOM     22  N   UNL     1      33.029 -23.938 -13.671  0.00  0.00    -0.302 N 
ATOM     23  C   UNL     1      31.192 -22.726 -14.466  0.00  0.00    +0.089 C 
ATOM     24  C   UNL     1      33.177 -23.924 -15.106  0.00  0.00    +0.116 C 
ATOM     25  C   UNL     1      31.766 -23.603 -15.585  0.00  0.00    +0.033 C 
ATOM     26  C   UNL     1      31.886 -23.273 -13.233  0.00  0.00    +0.223 C 
ATOM     27  H   UNL     1      33.670 -24.372 -13.064  0.00  0.00    +0.149 HD
BRANCH  23  28
ATOM     28  C   UNL     1      29.679 -22.794 -14.370  0.00  0.00    +0.118 C 
BRANCH  28  30
ATOM     29  O   UNL     1      28.949 -22.098 -16.589  0.00  0.00    -0.250 OA
ATOM     30  C   UNL     1      29.033 -22.955 -15.723  0.00  0.00    +0.314 C 
BRANCH  30  31
ATOM     31  O   UNL     1      28.543 -24.214 -15.858  0.00  0.00    -0.480 OA
ATOM     32  H   UNL     1      27.736 -24.450 -15.445  0.00  0.00    +0.295 HD
ENDBRANCH  30  31
ENDBRANCH  28  30
ENDBRANCH  23  28
ENDBRANCH  20  24
ENDBRANCH  19  20
ENDBRANCH   1  19
TORSDOF 8
ENDMDL
MODEL 4
REMARK VINA RESULT:     -10.8      4.982     10.533
REMARK  Name = 66000
REMARK  8 active torsions:
REMARK  status: ('A' for Active; 'I' for Inactive)
REMARK    1  A    between atoms: C_1  and  O_19
REMARK    2  A    between atoms: C_4  and  C_7
REMARK    3  A    between atoms: C_10  and  C_15
REMARK    4  A    between atoms: O_19  and  C_20
REMARK    5  A    between atoms: C_20  and  C_24
REMARK    6  A    between atoms: C_23  and  C_28
REMARK    7  A    between atoms: C_28  and  C_30
REMARK    8  A    between atoms: C_30  and  O_31
REMARK                            x       y       z     vdW  Elec       q    Type
REMARK                         _______ _______ _______ _____ _____    ______ ____
ROOT
ATOM      1  C   UNL     1      34.758 -23.024 -16.596  0.00  0.00    +0.139 C 
ATOM      2  C   UNL     1      35.950 -22.401 -16.942  0.00  0.00    +0.037 C 
ATOM      3  C   UNL     1      33.603 -22.816 -17.340  0.00  0.00    +0.037 C 
ATOM      4  C   UNL     1      34.835 -21.338 -18.802  0.00  0.00    +0.000 C 
ATOM      5  C   UNL     1      35.988 -21.554 -18.049  0.00  0.00    +0.003 C 
ATOM      6  C   UNL     1      33.642 -21.968 -18.447  0.00  0.00    +0.003 C 
ENDROOT
BRANCH   4   7
ATOM      7  C   UNL     1      34.874 -20.459 -19.951  0.00  0.00    +0.000 C 
ATOM      8  C   UNL     1      33.730 -20.278 -20.730  0.00  0.00    +0.000 C 
ATOM      9  C   UNL     1      36.054 -19.792 -20.279  0.00  0.00    +0.000 C 
ATOM     10  C   UNL     1      34.948 -18.763 -22.164  0.00  0.00    +0.031 C 
ATOM     11  C   UNL     1      33.768 -19.430 -21.837  0.00  0.00    +0.003 C 
ATOM     12  C   UNL     1      36.091 -18.944 -21.387  0.00  0.00    +0.003 C 
BRANCH  10  15
ATOM     13  N   UNL     1      35.624 -16.641 -23.265  0.00  0.00    -0.343 N 
ATOM     14  N   UNL     1      34.404 -18.245 -24.448  0.00  0.00    -0.285 NA
ATOM     15  C   UNL     1      34.987 -17.879 -23.319  0.00  0.00    +0.117 C 
ATOM     16  H   UNL     1      35.637 -16.059 -24.058  0.00  0.00    +0.144 HD
ATOM     17  H   UNL     1      36.061 -16.349 -22.433  0.00  0.00    +0.144 HD
ATOM     18  H   UNL     1      34.429 -17.649 -25.230  0.00  0.00    +0.188 HD
ENDBRANCH  10  15
ENDBRANCH   4   7
BRANCH   1  19
ATOM     19  O   UNL     1      34.720 -23.857 -15.505  0.00  0.00    -0.474 OA
BRANCH  19  20
ATOM     20  C   UNL     1      35.366 -23.405 -14.328  0.00  0.00    +0.225 C 
BRANCH  20  24
ATOM     21  O   UNL     1      36.783 -27.425 -15.378  0.00  0.00    -0.275 OA
ATOM     22  N   UNL     1      35.517 -25.845 -14.203  0.00  0.00    -0.302 N 
ATOM     23  C   UNL     1      37.821 -25.461 -14.357  0.00  0.00    +0.089 C 
ATOM     24  C   UNL     1      35.745 -24.614 -13.484  0.00  0.00    +0.116 C 
ATOM     25  C   UNL     1      37.236 -24.679 -13.175  0.00  0.00    +0.033 C 
ATOM     26  C   UNL     1      36.685 -26.399 -14.721  0.00  0.00    +0.223 C 
ATOM     27  H   UNL     1      34.628 -26.251 -14.314  0.00  0.00    +0.149 HD
BRANCH  23  28
ATOM     28  C   UNL     1      39.103 -26.194 -14.012  0.00  0.00    +0.118 C 
BRANCH  28  30
ATOM     29  O   UNL     1      41.059 -24.771 -14.307  0.00  0.00    -0.250 OA
ATOM     30  C   UNL     1      40.295 -25.621 -14.737  0.00  0.00    +0.314 C 
BRANCH  30  31
ATOM     31  O   UNL     1      40.413 -26.191 -15.964  0.00  0.00    -0.480 OA
ATOM     32  H   UNL     1      40.192 -27.093 -16.085  0.00  0.00    +0.295 HD
ENDBRANCH  30  31
ENDBRANCH  28  30
ENDBRANCH  23  28
ENDBRANCH  20  24
ENDBRANCH  19  20
ENDBRANCH   1  19
TORSDOF 8
ENDMDL
MODEL 5
REMARK VINA RESULT:     -10.6      4.473     10.754
REMARK  Name = 66000
REMARK  8 active torsions:
REMARK  status: ('A' for Active; 'I' for Inactive)
REMARK    1  A    between atoms: C_1  and  O_19
REMARK    2  A    between atoms: C_4  and  C_7
REMARK    3  A    between atoms: C_10  and  C_15
REMARK    4  A    between atoms: O_19  and  C_20
REMARK    5  A    between atoms: C_20  and  C_24
REMARK    6  A    between atoms: C_23  and  C_28
REMARK    7  A    between atoms: C_28  and  C_30
REMARK    8  A    between atoms: C_30  and  O_31
REMARK                            x       y       z     vdW  Elec       q    Type
REMARK                         _______ _______ _______ _____ _____    ______ ____
ROOT
ATOM      1  C   UNL     1      34.447 -22.453 -17.906  0.00  0.00    +0.139 C 
ATOM      2  C   UNL     1      35.684 -21.994 -18.343  0.00  0.00    +0.037 C 
ATOM      3  C   UNL     1      33.270 -21.954 -18.451  0.00  0.00    +0.037 C 
ATOM      4  C   UNL     1      34.568 -20.514 -19.892  0.00  0.00    +0.000 C 
ATOM      5  C   UNL     1      35.744 -21.021 -19.340  0.00  0.00    +0.003 C 
ATOM      6  C   UNL     1      33.331 -20.980 -19.448  0.00  0.00    +0.003 C 
ENDROOT
BRANCH   4   7
ATOM      7  C   UNL     1      34.631 -19.504 -20.926  0.00  0.00    +0.000 C 
ATOM      8  C   UNL     1      35.301 -18.304 -20.689  0.00  0.00    +0.000 C 
ATOM      9  C   UNL     1      34.022 -19.730 -22.161  0.00  0.00    +0.000 C 
ATOM     10  C   UNL     1      34.754 -17.557 -22.921  0.00  0.00    +0.031 C 
ATOM     11  C   UNL     1      35.363 -17.330 -21.687  0.00  0.00    +0.003 C 
ATOM     12  C   UNL     1      34.084 -18.757 -23.158  0.00  0.00    +0.003 C 
BRANCH  10  15
ATOM     13  N   UNL     1      35.676 -15.449 -23.856  0.00  0.00    -0.343 N 
ATOM     14  N   UNL     1      34.047 -16.644 -25.028  0.00  0.00    -0.285 NA
ATOM     15  C   UNL     1      34.818 -16.541 -23.960  0.00  0.00    +0.117 C 
ATOM     16  H   UNL     1      35.702 -14.773 -24.571  0.00  0.00    +0.144 HD
ATOM     17  H   UNL     1      36.256 -15.353 -23.066  0.00  0.00    +0.144 HD
ATOM     18  H   UNL     1      34.087 -15.958 -25.733  0.00  0.00    +0.188 HD
ENDBRANCH  10  15
ENDBRANCH   4   7
BRANCH   1  19
ATOM     19  O   UNL     1      34.387 -23.410 -16.924  0.00  0.00    -0.474 OA
BRANCH  19  20
ATOM     20  C   UNL     1      34.304 -22.954 -15.585  0.00  0.00    +0.225 C 
BRANCH  20  24
ATOM     21  O   UNL     1      37.583 -25.400 -13.993  0.00  0.00    -0.275 OA
ATOM     22  N   UNL     1      35.472 -25.001 -14.923  0.00  0.00    -0.302 N 
ATOM     23  C   UNL     1      36.051 -23.760 -13.025  0.00  0.00    +0.089 C 
ATOM     24  C   UNL     1      34.330 -24.161 -14.657  0.00  0.00    +0.116 C 
ATOM     25  C   UNL     1      34.528 -23.781 -13.194  0.00  0.00    +0.033 C 
ATOM     26  C   UNL     1      36.502 -24.830 -14.001  0.00  0.00    +0.223 C 
ATOM     27  H   UNL     1      35.519 -25.631 -15.678  0.00  0.00    +0.149 HD
BRANCH  23  28
ATOM     28  C   UNL     1      36.499 -24.034 -11.602  0.00  0.00    +0.118 C 
BRANCH  28  30
ATOM     29  O   UNL     1      38.894 -23.672 -11.334  0.00  0.00    -0.250 OA
ATOM     30  C   UNL     1      37.746 -23.266 -11.243  0.00  0.00    +0.314 C 
BRANCH  30  31
ATOM     31  O   UNL     1      37.417 -22.028 -10.792  0.00  0.00    -0.480 OA
ATOM     32  H   UNL     1      37.454 -21.837  -9.876  0.00  0.00    +0.295 HD
ENDBRANCH  30  31
ENDBRANCH  28  30
ENDBRANCH  23  28
ENDBRANCH  20  24
ENDBRANCH  19  20
ENDBRANCH   1  19
TORSDOF 8
ENDMDL
MODEL 6
REMARK VINA RESULT:     -10.4      4.945     11.251
REMARK  Name = 66000
REMARK  8 active torsions:
REMARK  status: ('A' for Active; 'I' for Inactive)
REMARK    1  A    between atoms: C_1  and  O_19
REMARK    2  A    between atoms: C_4  and  C_7
REMARK    3  A    between atoms: C_10  and  C_15
REMARK    4  A    between atoms: O_19  and  C_20
REMARK    5  A    between atoms: C_20  and  C_24
REMARK    6  A    between atoms: C_23  and  C_28
REMARK    7  A    between atoms: C_28  and  C_30
REMARK    8  A    between atoms: C_30  and  O_31
REMARK                            x       y       z     vdW  Elec       q    Type
REMARK                         _______ _______ _______ _____ _____    ______ ____
ROOT
ATOM      1  C   UNL     1      34.343 -15.272 -24.156  0.00  0.00    +0.139 C 
ATOM      2  C   UNL     1      34.558 -14.895 -22.836  0.00  0.00    +0.037 C 
ATOM      3  C   UNL     1      33.721 -14.410 -25.050  0.00  0.00    +0.037 C 
ATOM      4  C   UNL     1      33.516 -12.765 -23.293  0.00  0.00    +0.000 C 
ATOM      5  C   UNL     1      34.142 -13.637 -22.403  0.00  0.00    +0.003 C 
ATOM      6  C   UNL     1      33.304 -13.151 -24.616  0.00  0.00    +0.003 C 
ENDROOT
BRANCH   4   7
ATOM      7  C   UNL     1      33.084 -11.459 -22.843  0.00  0.00    +0.000 C 
ATOM      8  C   UNL     1      32.161 -11.350 -21.803  0.00  0.00    +0.000 C 
ATOM      9  C   UNL     1      33.591 -10.309 -23.449  0.00  0.00    +0.000 C 
ATOM     10  C   UNL     1      32.253  -8.942 -21.974  0.00  0.00    +0.031 C 
ATOM     11  C   UNL     1      31.745 -10.091 -21.368  0.00  0.00    +0.003 C 
ATOM     12  C   UNL     1      33.175  -9.050 -23.015  0.00  0.00    +0.003 C 
BRANCH  10  15
ATOM     13  N   UNL     1      32.149  -7.152 -20.255  0.00  0.00    -0.343 N 
ATOM     14  N   UNL     1      31.091  -6.866 -22.319  0.00  0.00    -0.285 NA
ATOM     15  C   UNL     1      31.818  -7.629 -21.522  0.00  0.00    +0.117 C 
ATOM     16  H   UNL     1      31.844  -6.261 -19.969  0.00  0.00    +0.144 HD
ATOM     17  H   UNL     1      32.687  -7.707 -19.646  0.00  0.00    +0.144 HD
ATOM     18  H   UNL     1      30.796  -5.977 -22.015  0.00  0.00    +0.188 HD
ENDBRANCH  10  15
ENDBRANCH   4   7
BRANCH   1  19
ATOM     19  O   UNL     1      34.752 -16.512 -24.583  0.00  0.00    -0.474 OA
BRANCH  19  20
ATOM     20  C   UNL     1      34.129 -17.635 -23.985  0.00  0.00    +0.225 C 
BRANCH  20  24
ATOM     21  O   UNL     1      36.319 -17.888 -20.188  0.00  0.00    -0.275 OA
ATOM     22  N   UNL     1      36.063 -17.936 -22.514  0.00  0.00    -0.302 N 
ATOM     23  C   UNL     1      34.589 -19.246 -21.255  0.00  0.00    +0.089 C 
ATOM     24  C   UNL     1      35.210 -18.582 -23.482  0.00  0.00    +0.116 C 
ATOM     25  C   UNL     1      34.649 -19.762 -22.697  0.00  0.00    +0.033 C 
ATOM     26  C   UNL     1      35.767 -18.291 -21.201  0.00  0.00    +0.223 C 
ATOM     27  H   UNL     1      36.781 -17.308 -22.758  0.00  0.00    +0.149 HD
BRANCH  23  28
ATOM     28  C   UNL     1      34.678 -20.351 -20.220  0.00  0.00    +0.118 C 
BRANCH  28  30
ATOM     29  O   UNL     1      32.248 -20.526 -20.254  0.00  0.00    -0.250 OA
ATOM     30  C   UNL     1      33.319 -20.772 -19.721  0.00  0.00    +0.314 C 
BRANCH  30  31
ATOM     31  O   UNL     1      33.443 -21.481 -18.570  0.00  0.00    -0.480 OA
ATOM     32  H   UNL     1      34.289 -21.610 -18.188  0.00  0.00    +0.295 HD
ENDBRANCH  30  31
ENDBRANCH  28  30
ENDBRANCH  23  28
ENDBRANCH  20  24
ENDBRANCH  19  20
ENDBRANCH   1  19
TORSDOF 8
ENDMDL
MODEL 7
REMARK VINA RESULT:      -9.8      3.145      5.562
REMARK  Name = 66000
REMARK  8 active torsions:
REMARK  status: ('A' for Active; 'I' for Inactive)
REMARK    1  A    between atoms: C_1  and  O_19
REMARK    2  A    between atoms: C_4  and  C_7
REMARK    3  A    between atoms: C_10  and  C_15
REMARK    4  A    between atoms: O_19  and  C_20
REMARK    5  A    between atoms: C_20  and  C_24
REMARK    6  A    between atoms: C_23  and  C_28
REMARK    7  A    between atoms: C_28  and  C_30
REMARK    8  A    between atoms: C_30  and  O_31
REMARK                            x       y       z     vdW  Elec       q    Type
REMARK                         _______ _______ _______ _____ _____    ______ ____
ROOT
ATOM      1  C   UNL     1      34.821 -17.028 -23.303  0.00  0.00    +0.139 C 
ATOM      2  C   UNL     1      35.418 -16.831 -22.064  0.00  0.00    +0.037 C 
ATOM      3  C   UNL     1      34.119 -18.194 -23.578  0.00  0.00    +0.037 C 
ATOM      4  C   UNL     1      34.609 -18.992 -21.351  0.00  0.00    +0.000 C 
ATOM      5  C   UNL     1      35.311 -17.817 -21.084  0.00  0.00    +0.003 C 
ATOM      6  C   UNL     1      34.013 -19.182 -22.598  0.00  0.00    +0.003 C 
ENDROOT
BRANCH   4   7
ATOM      7  C   UNL     1      34.499 -20.017 -20.335  0.00  0.00    +0.000 C 
ATOM      8  C   UNL     1      33.241 -20.427 -19.892  0.00  0.00    +0.000 C 
ATOM      9  C   UNL     1      35.650 -20.595 -19.799  0.00  0.00    +0.000 C 
ATOM     10  C   UNL     1      34.285 -21.993 -18.378  0.00  0.00    +0.031 C 
ATOM     11  C   UNL     1      33.134 -21.416 -18.913  0.00  0.00    +0.003 C 
ATOM     12  C   UNL     1      35.543 -21.583 -18.820  0.00  0.00    +0.003 C 
BRANCH  10  15
ATOM     13  N   UNL     1      33.061 -23.859 -17.287  0.00  0.00    -0.343 N 
ATOM     14  N   UNL     1      35.140 -23.176 -16.468  0.00  0.00    -0.285 NA
ATOM     15  C   UNL     1      34.174 -23.023 -17.357  0.00  0.00    +0.117 C 
ATOM     16  H   UNL     1      33.007 -24.549 -16.588  0.00  0.00    +0.144 HD
ATOM     17  H   UNL     1      32.330 -23.759 -17.938  0.00  0.00    +0.144 HD
ATOM     18  H   UNL     1      35.067 -23.872 -15.776  0.00  0.00    +0.188 HD
ENDBRANCH  10  15
ENDBRANCH   4   7
BRANCH   1  19
ATOM     19  O   UNL     1      34.927 -16.056 -24.268  0.00  0.00    -0.474 OA
BRANCH  19  20
ATOM     20  C   UNL     1      34.048 -14.950 -24.166  0.00  0.00    +0.225 C 
BRANCH  20  24
ATOM     21  O   UNL     1      33.066 -10.793 -23.150  0.00  0.00    -0.275 OA
ATOM     22  N   UNL     1      34.475 -12.621 -23.543  0.00  0.00    -0.302 N 
ATOM     23  C   UNL     1      32.693 -12.950 -22.062  0.00  0.00    +0.089 C 
ATOM     24  C   UNL     1      34.590 -13.993 -23.112  0.00  0.00    +0.116 C 
ATOM     25  C   UNL     1      33.777 -14.007 -21.822  0.00  0.00    +0.033 C 
ATOM     26  C   UNL     1      33.403 -11.952 -22.958  0.00  0.00    +0.223 C 
ATOM     27  H   UNL     1      35.091 -12.201 -24.185  0.00  0.00    +0.149 HD
BRANCH  23  28
ATOM     28  C   UNL     1      32.172 -12.327 -20.781  0.00  0.00    +0.118 C 
BRANCH  28  30
ATOM     29  O   UNL     1      30.233 -11.120 -21.632  0.00  0.00    -0.250 OA
ATOM     30  C   UNL     1      31.307 -11.121 -21.049  0.00  0.00    +0.314 C 
BRANCH  30  31
ATOM     31  O   UNL     1      31.891 -10.005 -20.542  0.00  0.00    -0.480 OA
ATOM     32  H   UNL     1      32.664 -10.078 -20.018  0.00  0.00    +0.295 HD
ENDBRANCH  30  31
ENDBRANCH  28  30
ENDBRANCH  23  28
ENDBRANCH  20  24
ENDBRANCH  19  20
ENDBRANCH   1  19
TORSDOF 8
ENDMDL
MODEL 8
REMARK VINA RESULT:      -9.7      4.818     11.454
REMARK  Name = 66000
REMARK  8 active torsions:
REMARK  status: ('A' for Active; 'I' for Inactive)
REMARK    1  A    between atoms: C_1  and  O_19
REMARK    2  A    between atoms: C_4  and  C_7
REMARK    3  A    between atoms: C_10  and  C_15
REMARK    4  A    between atoms: O_19  and  C_20
REMARK    5  A    between atoms: C_20  and  C_24
REMARK    6  A    between atoms: C_23  and  C_28
REMARK    7  A    between atoms: C_28  and  C_30
REMARK    8  A    between atoms: C_30  and  O_31
REMARK                            x       y       z     vdW  Elec       q    Type
REMARK                         _______ _______ _______ _____ _____    ______ ____
ROOT
ATOM      1  C   UNL     1      34.562 -15.477 -22.770  0.00  0.00    +0.139 C 
ATOM      2  C   UNL     1      34.578 -14.771 -21.573  0.00  0.00    +0.037 C 
ATOM      3  C   UNL     1      34.057 -14.901 -23.929  0.00  0.00    +0.037 C 
ATOM      4  C   UNL     1      33.571 -12.883 -22.693  0.00  0.00    +0.000 C 
ATOM      5  C   UNL     1      34.081 -13.470 -21.535  0.00  0.00    +0.003 C 
ATOM      6  C   UNL     1      33.559 -13.599 -23.890  0.00  0.00    +0.003 C 
ENDROOT
BRANCH   4   7
ATOM      7  C   UNL     1      33.054 -11.532 -22.653  0.00  0.00    +0.000 C 
ATOM      8  C   UNL     1      33.601 -10.552 -23.482  0.00  0.00    +0.000 C 
ATOM      9  C   UNL     1      32.009 -11.210 -21.788  0.00  0.00    +0.000 C 
ATOM     10  C   UNL     1      32.056  -8.928 -22.579  0.00  0.00    +0.031 C 
ATOM     11  C   UNL     1      33.102  -9.249 -23.445  0.00  0.00    +0.003 C 
ATOM     12  C   UNL     1      31.510  -9.907 -21.750  0.00  0.00    +0.003 C 
BRANCH  10  15
ATOM     13  N   UNL     1      31.566  -6.815 -21.370  0.00  0.00    -0.343 N 
ATOM     14  N   UNL     1      31.020  -7.032 -23.631  0.00  0.00    -0.285 NA
ATOM     15  C   UNL     1      31.537  -7.570 -22.540  0.00  0.00    +0.117 C 
ATOM     16  H   UNL     1      31.208  -5.898 -21.366  0.00  0.00    +0.144 HD
ATOM     17  H   UNL     1      31.944  -7.199 -20.546  0.00  0.00    +0.144 HD
ATOM     18  H   UNL     1      30.667  -6.113 -23.607  0.00  0.00    +0.188 HD
ENDBRANCH  10  15
ENDBRANCH   4   7
BRANCH   1  19
ATOM     19  O   UNL     1      35.051 -16.760 -22.808  0.00  0.00    -0.474 OA
BRANCH  19  20
ATOM     20  C   UNL     1      35.438 -17.336 -21.573  0.00  0.00    +0.225 C 
BRANCH  20  24
ATOM     21  O   UNL     1      36.634 -20.581 -18.869  0.00  0.00    -0.275 OA
ATOM     22  N   UNL     1      36.759 -19.241 -20.783  0.00  0.00    -0.302 N 
ATOM     23  C   UNL     1      34.670 -20.154 -20.258  0.00  0.00    +0.089 C 
ATOM     24  C   UNL     1      35.871 -18.775 -21.821  0.00  0.00    +0.116 C 
ATOM     25  C   UNL     1      34.715 -19.766 -21.741  0.00  0.00    +0.033 C 
ATOM     26  C   UNL     1      36.128 -20.061 -19.852  0.00  0.00    +0.223 C 
ATOM     27  H   UNL     1      37.713 -19.003 -20.739  0.00  0.00    +0.149 HD
BRANCH  23  28
ATOM     28  C   UNL     1      34.077 -21.530 -20.019  0.00  0.00    +0.118 C 
BRANCH  28  30
ATOM     29  O   UNL     1      32.207 -21.286 -18.475  0.00  0.00    -0.250 OA
ATOM     30  C   UNL     1      33.362 -21.616 -18.694  0.00  0.00    +0.314 C 
BRANCH  30  31
ATOM     31  O   UNL     1      34.194 -22.125 -17.748  0.00  0.00    -0.480 OA
ATOM     32  H   UNL     1      35.108 -21.923 -17.770  0.00  0.00    +0.295 HD
ENDBRANCH  30  31
ENDBRANCH  28  30
ENDBRANCH  23  28
ENDBRANCH  20  24
ENDBRANCH  19  20
ENDBRANCH   1  19
TORSDOF 8
ENDMDL
MODEL 9
REMARK VINA RESULT:      -9.7      7.430     14.043
REMARK  Name = 66000
REMARK  8 active torsions:
REMARK  status: ('A' for Active; 'I' for Inactive)
REMARK    1  A    between atoms: C_1  and  O_19
REMARK    2  A    between atoms: C_4  and  C_7
REMARK    3  A    between atoms: C_10  and  C_15
REMARK    4  A    between atoms: O_19  and  C_20
REMARK    5  A    between atoms: C_20  and  C_24
REMARK    6  A    between atoms: C_23  and  C_28
REMARK    7  A    between atoms: C_28  and  C_30
REMARK    8  A    between atoms: C_30  and  O_31
REMARK                            x       y       z     vdW  Elec       q    Type
REMARK                         _______ _______ _______ _____ _____    ______ ____
ROOT
ATOM      1  C   UNL     1      33.863 -11.046 -23.508  0.00  0.00    +0.139 C 
ATOM      2  C   UNL     1      32.738 -10.746 -22.749  0.00  0.00    +0.037 C 
ATOM      3  C   UNL     1      34.606 -10.038 -24.108  0.00  0.00    +0.037 C 
ATOM      4  C   UNL     1      33.089  -8.397 -23.190  0.00  0.00    +0.000 C 
ATOM      5  C   UNL     1      32.350  -9.416 -22.590  0.00  0.00    +0.003 C 
ATOM      6  C   UNL     1      34.217  -8.708 -23.950  0.00  0.00    +0.003 C 
ENDROOT
BRANCH   4   7
ATOM      7  C   UNL     1      32.686  -7.017 -23.026  0.00  0.00    +0.000 C 
ATOM      8  C   UNL     1      33.378  -6.005 -23.691  0.00  0.00    +0.000 C 
ATOM      9  C   UNL     1      31.605  -6.699 -22.203  0.00  0.00    +0.000 C 
ATOM     10  C   UNL     1      31.907  -4.357 -22.712  0.00  0.00    +0.031 C 
ATOM     11  C   UNL     1      32.988  -4.674 -23.534  0.00  0.00    +0.003 C 
ATOM     12  C   UNL     1      31.216  -5.368 -22.046  0.00  0.00    +0.003 C 
BRANCH  10  15
ATOM     13  N   UNL     1      30.475  -2.611 -21.676  0.00  0.00    -0.343 N 
ATOM     14  N   UNL     1      32.110  -2.020 -23.237  0.00  0.00    -0.285 NA
ATOM     15  C   UNL     1      31.502  -2.969 -22.547  0.00  0.00    +0.117 C 
ATOM     16  H   UNL     1      30.217  -1.666 -21.581  0.00  0.00    +0.144 HD
ATOM     17  H   UNL     1      30.008  -3.304 -21.156  0.00  0.00    +0.144 HD
ATOM     18  H   UNL     1      31.838  -1.081 -23.128  0.00  0.00    +0.188 HD
ENDBRANCH  10  15
ENDBRANCH   4   7
BRANCH   1  19
ATOM     19  O   UNL     1      34.245 -12.355 -23.665  0.00  0.00    -0.474 OA
BRANCH  19  20
ATOM     20  C   UNL     1      34.597 -13.067 -22.492  0.00  0.00    +0.225 C 
BRANCH  20  24
ATOM     21  O   UNL     1      34.174 -16.553 -25.127  0.00  0.00    -0.275 OA
ATOM     22  N   UNL     1      33.432 -14.835 -23.721  0.00  0.00    -0.302 N 
ATOM     23  C   UNL     1      35.165 -16.190 -22.923  0.00  0.00    +0.089 C 
ATOM     24  C   UNL     1      33.739 -14.323 -22.407  0.00  0.00    +0.116 C 
ATOM     25  C   UNL     1      34.462 -15.494 -21.752  0.00  0.00    +0.033 C 
ATOM     26  C   UNL     1      34.213 -15.932 -24.075  0.00  0.00    +0.223 C 
ATOM     27  H   UNL     1      32.741 -14.450 -24.306  0.00  0.00    +0.149 HD
BRANCH  23  28
ATOM     28  C   UNL     1      35.411 -17.667 -22.680  0.00  0.00    +0.118 C 
BRANCH  28  30
ATOM     29  O   UNL     1      35.872 -17.852 -20.294  0.00  0.00    -0.250 OA
ATOM     30  C   UNL     1      36.254 -17.907 -21.453  0.00  0.00    +0.314 C 
BRANCH  30  31
ATOM     31  O   UNL     1      37.529 -18.203 -21.815  0.00  0.00    -0.480 OA
ATOM     32  H   UNL     1      37.999 -17.629 -22.387  0.00  0.00    +0.295 HD
ENDBRANCH  30  31
ENDBRANCH  28  30
ENDBRANCH  23  28
ENDBRANCH  20  24
ENDBRANCH  19  20
ENDBRANCH   1  19
TORSDOF 8
ENDMDL
