MODEL 1
REMARK VINA RESULT:     -11.9      0.000      0.000
REMARK  Name = 60795
REMARK  7 active torsions:
REMARK  status: ('A' for Active; 'I' for Inactive)
REMARK    1  A    between atoms: C_1  and  N_2
REMARK    2  A    between atoms: C_1  and  C_17
REMARK    3  A    between atoms: N_3  and  C_11
REMARK    4  A    between atoms: C_17  and  C_18
REMARK    5  A    between atoms: C_18  and  C_19
REMARK    6  A    between atoms: C_19  and  O_20
REMARK    7  A    between atoms: O_20  and  C_26
REMARK                            x       y       z     vdW  Elec       q    Type
REMARK                         _______ _______ _______ _____ _____    ______ ____
ROOT
ATOM      1  C   UNL     1      34.594 -15.977 -24.150  0.00  0.00    -0.077 C 
ENDROOT
BRANCH   1   2
ATOM      2  N   UNL     1      35.128 -17.049 -23.310  0.00  0.00    +0.389 N 
ATOM      3  N   UNL     1      35.060 -19.029 -21.252  0.00  0.00    -0.311 N 
ATOM      4  C   UNL     1      35.115 -16.651 -21.897  0.00  0.00    -0.055 C 
ATOM      5  C   UNL     1      34.350 -18.280 -23.489  0.00  0.00    -0.055 C 
ATOM      6  C   UNL     1      35.725 -17.741 -21.014  0.00  0.00    +0.068 C 
ATOM      7  C   UNL     1      34.933 -19.426 -22.658  0.00  0.00    +0.068 C 
ATOM      8  H   UNL     1      36.092 -17.225 -23.594  0.00  0.00    -0.080 HD
BRANCH   3  11
ATOM      9 CL   UNL     1      32.452 -20.200 -20.310  0.00  0.00    -0.080 Cl
ATOM     10 CL   UNL     1      32.788 -22.437 -18.032  0.00  0.00    -0.081 Cl
ATOM     11  C   UNL     1      35.153 -20.011 -20.260  0.00  0.00    +0.059 C 
ATOM     12  C   UNL     1      34.019 -20.653 -19.715  0.00  0.00    +0.081 C 
ATOM     13  C   UNL     1      36.420 -20.388 -19.770  0.00  0.00    +0.015 C 
ATOM     14  C   UNL     1      34.150 -21.627 -18.724  0.00  0.00    +0.069 C 
ATOM     15  C   UNL     1      36.551 -21.362 -18.781  0.00  0.00    +0.002 C 
ATOM     16  C   UNL     1      35.416 -21.982 -18.258  0.00  0.00    +0.012 C 
ENDBRANCH   3  11
ENDBRANCH   1   2
BRANCH   1  17
ATOM     17  C   UNL     1      34.598 -14.654 -23.387  0.00  0.00    -0.019 C 
BRANCH  17  18
ATOM     18  C   UNL     1      33.441 -13.758 -23.828  0.00  0.00    +0.045 C 
BRANCH  18  19
ATOM     19  C   UNL     1      33.860 -12.296 -23.909  0.00  0.00    +0.205 C 
BRANCH  19  20
ATOM     20  O   UNL     1      33.082 -11.520 -23.000  0.00  0.00    -0.475 OA
BRANCH  20  26
ATOM     21  O   UNL     1      30.406  -5.032 -21.902  0.00  0.00    -0.275 OA
ATOM     22  N   UNL     1      31.263  -7.123 -22.310  0.00  0.00    -0.284 N 
ATOM     23  C   UNL     1      33.509  -7.386 -23.206  0.00  0.00    -0.008 C 
ATOM     24  C   UNL     1      33.599  -5.896 -23.370  0.00  0.00    +0.037 C 
ATOM     25  C   UNL     1      32.324  -7.952 -22.717  0.00  0.00    +0.049 C 
ATOM     26  C   UNL     1      33.220 -10.166 -23.067  0.00  0.00    +0.140 C 
ATOM     27  C   UNL     1      32.764  -5.184 -22.317  0.00  0.00    +0.090 C 
ATOM     28  C   UNL     1      32.174  -9.340 -22.656  0.00  0.00    +0.051 C 
ATOM     29  C   UNL     1      34.546  -8.224 -23.628  0.00  0.00    +0.000 C 
ATOM     30  C   UNL     1      34.404  -9.611 -23.549  0.00  0.00    +0.037 C 
ATOM     31  C   UNL     1      31.363  -5.751 -22.189  0.00  0.00    +0.226 C 
ATOM     32  H   UNL     1      30.399  -7.547 -22.100  0.00  0.00    +0.155 HD
ENDBRANCH  20  26
ENDBRANCH  19  20
ENDBRANCH  18  19
ENDBRANCH  17  18
ENDBRANCH   1  17
TORSDOF 7
ENDMDL
MODEL 2
REMARK VINA RESULT:     -11.5      4.967     12.093
REMARK  Name = 60795
REMARK  7 active torsions:
REMARK  status: ('A' for Active; 'I' for Inactive)
REMARK    1  A    between atoms: C_1  and  N_2
REMARK    2  A    between atoms: C_1  and  C_17
REMARK    3  A    between atoms: N_3  and  C_11
REMARK    4  A    between atoms: C_17  and  C_18
REMARK    5  A    between atoms: C_18  and  C_19
REMARK    6  A    between atoms: C_19  and  O_20
REMARK    7  A    between atoms: O_20  and  C_26
REMARK                            x       y       z     vdW  Elec       q    Type
REMARK                         _______ _______ _______ _____ _____    ______ ____
ROOT
ATOM      1  C   UNL     1      34.357 -16.070 -24.275  0.00  0.00    -0.077 C 
ENDROOT
BRANCH   1   2
ATOM      2  N   UNL     1      33.669 -14.825 -23.940  0.00  0.00    +0.389 N 
ATOM      3  N   UNL     1      33.456 -12.031 -23.381  0.00  0.00    -0.311 N 
ATOM      4  C   UNL     1      34.179 -14.279 -22.676  0.00  0.00    -0.055 C 
ATOM      5  C   UNL     1      33.836 -13.838 -25.013  0.00  0.00    -0.055 C 
ATOM      6  C   UNL     1      33.427 -13.006 -22.284  0.00  0.00    +0.068 C 
ATOM      7  C   UNL     1      33.073 -12.548 -24.699  0.00  0.00    +0.068 C 
ATOM      8  H   UNL     1      32.676 -15.029 -23.833  0.00  0.00    -0.080 HD
BRANCH   3  11
ATOM      9 CL   UNL     1      35.214 -10.043 -24.803  0.00  0.00    -0.080 Cl
ATOM     10 CL   UNL     1      34.612  -6.990 -24.013  0.00  0.00    -0.081 Cl
ATOM     11  C   UNL     1      33.232 -10.685 -23.073  0.00  0.00    +0.059 C 
ATOM     12  C   UNL     1      33.976  -9.635 -23.655  0.00  0.00    +0.081 C 
ATOM     13  C   UNL     1      32.228 -10.342 -22.144  0.00  0.00    +0.015 C 
ATOM     14  C   UNL     1      33.725  -8.303 -23.322  0.00  0.00    +0.069 C 
ATOM     15  C   UNL     1      31.977  -9.011 -21.812  0.00  0.00    +0.002 C 
ATOM     16  C   UNL     1      32.725  -7.992 -22.401  0.00  0.00    +0.012 C 
ENDBRANCH   3  11
ENDBRANCH   1   2
BRANCH   1  17
ATOM     17  C   UNL     1      34.969 -16.693 -23.022  0.00  0.00    -0.019 C 
BRANCH  17  18
ATOM     18  C   UNL     1      35.003 -18.218 -23.123  0.00  0.00    +0.045 C 
BRANCH  18  19
ATOM     19  C   UNL     1      35.237 -18.866 -21.765  0.00  0.00    +0.205 C 
BRANCH  19  20
ATOM     20  O   UNL     1      34.161 -19.751 -21.459  0.00  0.00    -0.475 OA
BRANCH  20  26
ATOM     21  O   UNL     1      31.055 -23.228 -16.101  0.00  0.00    -0.275 OA
ATOM     22  N   UNL     1      32.072 -22.064 -17.799  0.00  0.00    -0.284 N 
ATOM     23  C   UNL     1      34.497 -21.999 -17.974  0.00  0.00    -0.008 C 
ATOM     24  C   UNL     1      34.593 -22.719 -16.660  0.00  0.00    +0.037 C 
ATOM     25  C   UNL     1      33.234 -21.661 -18.480  0.00  0.00    +0.049 C 
ATOM     26  C   UNL     1      34.269 -20.487 -20.319  0.00  0.00    +0.140 C 
ATOM     27  C   UNL     1      33.393 -23.630 -16.452  0.00  0.00    +0.090 C 
ATOM     28  C   UNL     1      33.119 -20.897 -19.645  0.00  0.00    +0.051 C 
ATOM     29  C   UNL     1      35.643 -21.571 -18.651  0.00  0.00    +0.000 C 
ATOM     30  C   UNL     1      35.528 -20.825 -19.825  0.00  0.00    +0.037 C 
ATOM     31  C   UNL     1      32.072 -22.941 -16.732  0.00  0.00    +0.226 C 
ATOM     32  H   UNL     1      31.208 -21.699 -18.101  0.00  0.00    +0.155 HD
ENDBRANCH  20  26
ENDBRANCH  19  20
ENDBRANCH  18  19
ENDBRANCH  17  18
ENDBRANCH   1  17
TORSDOF 7
ENDMDL
MODEL 3
REMARK VINA RESULT:     -11.2      4.610     12.005
REMARK  Name = 60795
REMARK  7 active torsions:
REMARK  status: ('A' for Active; 'I' for Inactive)
REMARK    1  A    between atoms: C_1  and  N_2
REMARK    2  A    between atoms: C_1  and  C_17
REMARK    3  A    between atoms: N_3  and  C_11
REMARK    4  A    between atoms: C_17  and  C_18
REMARK    5  A    between atoms: C_18  and  C_19
REMARK    6  A    between atoms: C_19  and  O_20
REMARK    7  A    between atoms: O_20  and  C_26
REMARK                            x       y       z     vdW  Elec       q    Type
REMARK                         _______ _______ _______ _____ _____    ______ ____
ROOT
ATOM      1  C   UNL     1      33.768 -15.779 -23.867  0.00  0.00    -0.077 C 
ENDROOT
BRANCH   1   2
ATOM      2  N   UNL     1      34.169 -14.374 -23.811  0.00  0.00    +0.389 N 
ATOM      3  N   UNL     1      33.782 -11.563 -23.479  0.00  0.00    -0.311 N 
ATOM      4  C   UNL     1      33.463 -13.595 -24.836  0.00  0.00    -0.055 C 
ATOM      5  C   UNL     1      33.896 -13.813 -22.482  0.00  0.00    -0.055 C 
ATOM      6  C   UNL     1      33.917 -12.134 -24.825  0.00  0.00    +0.068 C 
ATOM      7  C   UNL     1      34.363 -12.357 -22.392  0.00  0.00    +0.068 C 
ATOM      8  H   UNL     1      35.171 -14.322 -23.990  0.00  0.00    -0.080 HD
BRANCH   3  11
ATOM      9 CL   UNL     1      31.451 -10.492 -21.905  0.00  0.00    -0.080 Cl
ATOM     10 CL   UNL     1      31.391  -7.289 -21.700  0.00  0.00    -0.081 Cl
ATOM     11  C   UNL     1      33.712 -10.171 -23.359  0.00  0.00    +0.059 C 
ATOM     12  C   UNL     1      32.678  -9.518 -22.653  0.00  0.00    +0.081 C 
ATOM     13  C   UNL     1      34.704  -9.370 -23.961  0.00  0.00    +0.015 C 
ATOM     14  C   UNL     1      32.639  -8.126 -22.556  0.00  0.00    +0.069 C 
ATOM     15  C   UNL     1      34.666  -7.979 -23.863  0.00  0.00    +0.002 C 
ATOM     16  C   UNL     1      33.634  -7.357 -23.160  0.00  0.00    +0.012 C 
ENDBRANCH   3  11
ENDBRANCH   1   2
BRANCH   1  17
ATOM     17  C   UNL     1      34.896 -16.674 -23.358  0.00  0.00    -0.019 C 
BRANCH  17  18
ATOM     18  C   UNL     1      34.619 -18.144 -23.669  0.00  0.00    +0.045 C 
BRANCH  18  19
ATOM     19  C   UNL     1      35.047 -19.052 -22.524  0.00  0.00    +0.205 C 
BRANCH  19  20
ATOM     20  O   UNL     1      33.906 -19.432 -21.757  0.00  0.00    -0.475 OA
BRANCH  20  26
ATOM     21  O   UNL     1      31.357 -23.139 -16.260  0.00  0.00    -0.275 OA
ATOM     22  N   UNL     1      32.196 -21.901 -18.003  0.00  0.00    -0.284 N 
ATOM     23  C   UNL     1      34.595 -21.765 -18.381  0.00  0.00    -0.008 C 
ATOM     24  C   UNL     1      34.821 -22.519 -17.102  0.00  0.00    +0.037 C 
ATOM     25  C   UNL     1      33.286 -21.447 -18.767  0.00  0.00    +0.049 C 
ATOM     26  C   UNL     1      34.129 -20.196 -20.652  0.00  0.00    +0.140 C 
ATOM     27  C   UNL     1      33.666 -23.468 -16.820  0.00  0.00    +0.090 C 
ATOM     28  C   UNL     1      33.052 -20.655 -19.895  0.00  0.00    +0.051 C 
ATOM     29  C   UNL     1      35.668 -21.288 -19.140  0.00  0.00    +0.000 C 
ATOM     30  C   UNL     1      35.435 -20.513 -20.277  0.00  0.00    +0.037 C 
ATOM     31  C   UNL     1      32.309 -22.807 -16.966  0.00  0.00    +0.226 C 
ATOM     32  H   UNL     1      31.301 -21.552 -18.219  0.00  0.00    +0.155 HD
ENDBRANCH  20  26
ENDBRANCH  19  20
ENDBRANCH  18  19
ENDBRANCH  17  18
ENDBRANCH   1  17
TORSDOF 7
ENDMDL
MODEL 4
REMARK VINA RESULT:     -11.1      5.140     12.251
REMARK  Name = 60795
REMARK  7 active torsions:
REMARK  status: ('A' for Active; 'I' for Inactive)
REMARK    1  A    between atoms: C_1  and  N_2
REMARK    2  A    between atoms: C_1  and  C_17
REMARK    3  A    between atoms: N_3  and  C_11
REMARK    4  A    between atoms: C_17  and  C_18
REMARK    5  A    between atoms: C_18  and  C_19
REMARK    6  A    between atoms: C_19  and  O_20
REMARK    7  A    between atoms: O_20  and  C_26
REMARK                            x       y       z     vdW  Elec       q    Type
REMARK                         _______ _______ _______ _____ _____    ______ ____
ROOT
ATOM      1  C   UNL     1      35.001 -16.988 -23.786  0.00  0.00    -0.077 C 
ENDROOT
BRANCH   1   2
ATOM      2  N   UNL     1      34.803 -15.554 -23.584  0.00  0.00    +0.389 N 
ATOM      3  N   UNL     1      33.397 -13.205 -22.767  0.00  0.00    -0.311 N 
ATOM      4  C   UNL     1      33.640 -15.082 -24.345  0.00  0.00    -0.055 C 
ATOM      5  C   UNL     1      34.622 -15.254 -22.158  0.00  0.00    -0.055 C 
ATOM      6  C   UNL     1      33.455 -13.572 -24.188  0.00  0.00    +0.068 C 
ATOM      7  C   UNL     1      34.469 -13.748 -21.927  0.00  0.00    +0.068 C 
ATOM      8  H   UNL     1      35.634 -15.068 -23.918  0.00  0.00    -0.080 HD
BRANCH   3  11
ATOM      9 CL   UNL     1      34.394 -10.784 -24.253  0.00  0.00    -0.080 Cl
ATOM     10 CL   UNL     1      32.953  -8.050 -23.383  0.00  0.00    -0.081 Cl
ATOM     11  C   UNL     1      32.799 -11.987 -22.426  0.00  0.00    +0.059 C 
ATOM     12  C   UNL     1      33.159 -10.764 -23.032  0.00  0.00    +0.081 C 
ATOM     13  C   UNL     1      31.793 -11.960 -21.437  0.00  0.00    +0.015 C 
ATOM     14  C   UNL     1      32.541  -9.568 -22.664  0.00  0.00    +0.069 C 
ATOM     15  C   UNL     1      31.175 -10.764 -21.070  0.00  0.00    +0.002 C 
ATOM     16  C   UNL     1      31.549  -9.569 -21.684  0.00  0.00    +0.012 C 
ENDBRANCH   3  11
ENDBRANCH   1   2
BRANCH   1  17
ATOM     17  C   UNL     1      35.382 -17.662 -22.469  0.00  0.00    -0.019 C 
BRANCH  17  18
ATOM     18  C   UNL     1      34.889 -19.108 -22.425  0.00  0.00    +0.045 C 
BRANCH  18  19
ATOM     19  C   UNL     1      34.573 -19.551 -21.003  0.00  0.00    +0.205 C 
BRANCH  19  20
ATOM     20  O   UNL     1      35.541 -20.502 -20.565  0.00  0.00    -0.475 OA
BRANCH  20  26
ATOM     21  O   UNL     1      37.801 -22.942 -14.289  0.00  0.00    -0.275 OA
ATOM     22  N   UNL     1      37.071 -22.204 -16.337  0.00  0.00    -0.284 N 
ATOM     23  C   UNL     1      34.750 -22.501 -17.003  0.00  0.00    -0.008 C 
ATOM     24  C   UNL     1      34.516 -23.311 -15.760  0.00  0.00    +0.037 C 
ATOM     25  C   UNL     1      36.035 -22.008 -17.268  0.00  0.00    +0.049 C 
ATOM     26  C   UNL     1      35.284 -21.156 -19.399  0.00  0.00    +0.140 C 
ATOM     27  C   UNL     1      35.429 -22.851 -14.634  0.00  0.00    +0.090 C 
ATOM     28  C   UNL     1      36.306 -21.345 -18.469  0.00  0.00    +0.051 C 
ATOM     29  C   UNL     1      33.737 -22.318 -17.949  0.00  0.00    +0.000 C 
ATOM     30  C   UNL     1      34.002 -21.639 -19.140  0.00  0.00    +0.037 C 
ATOM     31  C   UNL     1      36.876 -22.709 -15.067  0.00  0.00    +0.226 C 
ATOM     32  H   UNL     1      37.988 -21.968 -16.608  0.00  0.00    +0.155 HD
ENDBRANCH  20  26
ENDBRANCH  19  20
ENDBRANCH  18  19
ENDBRANCH  17  18
ENDBRANCH   1  17
TORSDOF 7
ENDMDL
MODEL 5
REMARK VINA RESULT:     -11.1      4.721     11.740
REMARK  Name = 60795
REMARK  7 active torsions:
REMARK  status: ('A' for Active; 'I' for Inactive)
REMARK    1  A    between atoms: C_1  and  N_2
REMARK    2  A    between atoms: C_1  and  C_17
REMARK    3  A    between atoms: N_3  and  C_11
REMARK    4  A    between atoms: C_17  and  C_18
REMARK    5  A    between atoms: C_18  and  C_19
REMARK    6  A    between atoms: C_19  and  O_20
REMARK    7  A    between atoms: O_20  and  C_26
REMARK                            x       y       z     vdW  Elec       q    Type
REMARK                         _______ _______ _______ _____ _____    ______ ____
ROOT
ATOM      1  C   UNL     1      33.802 -14.558 -22.405  0.00  0.00    -0.077 C 
ENDROOT
BRANCH   1   2
ATOM      2  N   UNL     1      33.189 -13.280 -22.762  0.00  0.00    +0.389 N 
ATOM      3  N   UNL     1      32.904 -10.437 -22.772  0.00  0.00    -0.311 N 
ATOM      4  C   UNL     1      32.730 -12.575 -21.559  0.00  0.00    -0.055 C 
ATOM      5  C   UNL     1      34.141 -12.440 -23.500  0.00  0.00    -0.055 C 
ATOM      6  C   UNL     1      32.035 -11.261 -21.923  0.00  0.00    +0.068 C 
ATOM      7  C   UNL     1      33.495 -11.120 -23.928  0.00  0.00    +0.068 C 
ATOM      8  H   UNL     1      32.385 -13.468 -23.360  0.00  0.00    -0.080 HD
BRANCH   3  11
ATOM      9 CL   UNL     1      35.161  -8.728 -23.796  0.00  0.00    -0.080 Cl
ATOM     10 CL   UNL     1      34.471  -5.595 -23.889  0.00  0.00    -0.081 Cl
ATOM     11  C   UNL     1      32.653  -9.062 -22.833  0.00  0.00    +0.059 C 
ATOM     12  C   UNL     1      33.611  -8.131 -23.290  0.00  0.00    +0.081 C 
ATOM     13  C   UNL     1      31.397  -8.566 -22.426  0.00  0.00    +0.015 C 
ATOM     14  C   UNL     1      33.325  -6.766 -23.336  0.00  0.00    +0.069 C 
ATOM     15  C   UNL     1      31.110  -7.202 -22.473  0.00  0.00    +0.002 C 
ATOM     16  C   UNL     1      32.074  -6.302 -22.928  0.00  0.00    +0.012 C 
ENDBRANCH   3  11
ENDBRANCH   1   2
BRANCH   1  17
ATOM     17  C   UNL     1      34.751 -15.019 -23.510  0.00  0.00    -0.019 C 
BRANCH  17  18
ATOM     18  C   UNL     1      34.092 -16.069 -24.404  0.00  0.00    +0.045 C 
BRANCH  18  19
ATOM     19  C   UNL     1      34.387 -17.483 -23.921  0.00  0.00    +0.205 C 
BRANCH  19  20
ATOM     20  O   UNL     1      35.602 -17.495 -23.174  0.00  0.00    -0.475 OA
BRANCH  20  26
ATOM     21  O   UNL     1      32.418 -21.984 -18.682  0.00  0.00    -0.275 OA
ATOM     22  N   UNL     1      33.453 -20.497 -20.093  0.00  0.00    -0.284 N 
ATOM     23  C   UNL     1      35.867 -20.206 -20.028  0.00  0.00    -0.008 C 
ATOM     24  C   UNL     1      35.926 -21.105 -18.827  0.00  0.00    +0.037 C 
ATOM     25  C   UNL     1      34.623 -19.901 -20.597  0.00  0.00    +0.049 C 
ATOM     26  C   UNL     1      35.686 -18.383 -22.144  0.00  0.00    +0.140 C 
ATOM     27  C   UNL     1      34.805 -22.133 -18.864  0.00  0.00    +0.090 C 
ATOM     28  C   UNL     1      34.530 -18.983 -21.647  0.00  0.00    +0.051 C 
ATOM     29  C   UNL     1      37.019 -19.587 -20.526  0.00  0.00    +0.000 C 
ATOM     30  C   UNL     1      36.928 -18.685 -21.588  0.00  0.00    +0.037 C 
ATOM     31  C   UNL     1      33.451 -21.521 -19.167  0.00  0.00    +0.226 C 
ATOM     32  H   UNL     1      32.586 -20.164 -20.420  0.00  0.00    +0.155 HD
ENDBRANCH  20  26
ENDBRANCH  19  20
ENDBRANCH  18  19
ENDBRANCH  17  18
ENDBRANCH   1  17
TORSDOF 7
ENDMDL
MODEL 6
REMARK VINA RESULT:     -10.8      4.847     12.154
REMARK  Name = 60795
REMARK  7 active torsions:
REMARK  status: ('A' for Active; 'I' for Inactive)
REMARK    1  A    between atoms: C_1  and  N_2
REMARK    2  A    between atoms: C_1  and  C_17
REMARK    3  A    between atoms: N_3  and  C_11
REMARK    4  A    between atoms: C_17  and  C_18
REMARK    5  A    between atoms: C_18  and  C_19
REMARK    6  A    between atoms: C_19  and  O_20
REMARK    7  A    between atoms: O_20  and  C_26
REMARK                            x       y       z     vdW  Elec       q    Type
REMARK                         _______ _______ _______ _____ _____    ______ ____
ROOT
ATOM      1  C   UNL     1      32.983 -13.404 -22.593  0.00  0.00    -0.077 C 
ENDROOT
BRANCH   1   2
ATOM      2  N   UNL     1      33.406 -12.006 -22.525  0.00  0.00    +0.389 N 
ATOM      3  N   UNL     1      33.338  -9.226 -23.180  0.00  0.00    -0.311 N 
ATOM      4  C   UNL     1      33.862 -11.542 -23.841  0.00  0.00    -0.055 C 
ATOM      5  C   UNL     1      32.307 -11.158 -22.049  0.00  0.00    -0.055 C 
ATOM      6  C   UNL     1      34.362 -10.098 -23.772  0.00  0.00    +0.068 C 
ATOM      7  C   UNL     1      32.754  -9.699 -21.921  0.00  0.00    +0.068 C 
ATOM      8  H   UNL     1      34.181 -11.940 -21.866  0.00  0.00    -0.080 HD
BRANCH   3  11
ATOM      9 CL   UNL     1      30.708  -7.775 -23.377  0.00  0.00    -0.080 Cl
ATOM     10 CL   UNL     1      31.006  -4.635 -23.972  0.00  0.00    -0.081 Cl
ATOM     11  C   UNL     1      33.414  -7.853 -23.437  0.00  0.00    +0.059 C 
ATOM     12  C   UNL     1      32.269  -7.036 -23.559  0.00  0.00    +0.081 C 
ATOM     13  C   UNL     1      34.676  -7.242 -23.584  0.00  0.00    +0.015 C 
ATOM     14  C   UNL     1      32.384  -5.669 -23.817  0.00  0.00    +0.069 C 
ATOM     15  C   UNL     1      34.791  -5.876 -23.841  0.00  0.00    +0.002 C 
ATOM     16  C   UNL     1      33.644  -5.089 -23.958  0.00  0.00    +0.012 C 
ENDBRANCH   3  11
ENDBRANCH   1   2
BRANCH   1  17
ATOM     17  C   UNL     1      33.793 -14.153 -23.650  0.00  0.00    -0.019 C 
BRANCH  17  18
ATOM     18  C   UNL     1      34.729 -15.177 -23.007  0.00  0.00    +0.045 C 
BRANCH  18  19
ATOM     19  C   UNL     1      34.379 -16.599 -23.425  0.00  0.00    +0.205 C 
BRANCH  19  20
ATOM     20  O   UNL     1      35.546 -17.417 -23.377  0.00  0.00    -0.475 OA
BRANCH  20  26
ATOM     21  O   UNL     1      32.493 -21.918 -18.807  0.00  0.00    -0.275 OA
ATOM     22  N   UNL     1      33.485 -20.426 -20.245  0.00  0.00    -0.284 N 
ATOM     23  C   UNL     1      35.887 -20.052 -20.175  0.00  0.00    -0.008 C 
ATOM     24  C   UNL     1      35.969 -20.924 -18.955  0.00  0.00    +0.037 C 
ATOM     25  C   UNL     1      34.636 -19.801 -20.756  0.00  0.00    +0.049 C 
ATOM     26  C   UNL     1      35.655 -18.280 -22.329  0.00  0.00    +0.140 C 
ATOM     27  C   UNL     1      34.885 -21.990 -18.976  0.00  0.00    +0.090 C 
ATOM     28  C   UNL     1      34.517 -18.909 -21.825  0.00  0.00    +0.051 C 
ATOM     29  C   UNL     1      37.019 -19.405 -20.680  0.00  0.00    +0.000 C 
ATOM     30  C   UNL     1      36.904 -18.529 -21.761  0.00  0.00    +0.037 C 
ATOM     31  C   UNL     1      33.512 -21.431 -19.297  0.00  0.00    +0.226 C 
ATOM     32  H   UNL     1      32.608 -20.129 -20.582  0.00  0.00    +0.155 HD
ENDBRANCH  20  26
ENDBRANCH  19  20
ENDBRANCH  18  19
ENDBRANCH  17  18
ENDBRANCH   1  17
TORSDOF 7
ENDMDL
MODEL 7
REMARK VINA RESULT:     -10.7      4.644     12.182
REMARK  Name = 60795
REMARK  7 active torsions:
REMARK  status: ('A' for Active; 'I' for Inactive)
REMARK    1  A    between atoms: C_1  and  N_2
REMARK    2  A    between atoms: C_1  and  C_17
REMARK    3  A    between atoms: N_3  and  C_11
REMARK    4  A    between atoms: C_17  and  C_18
REMARK    5  A    between atoms: C_18  and  C_19
REMARK    6  A    between atoms: C_19  and  O_20
REMARK    7  A    between atoms: O_20  and  C_26
REMARK                            x       y       z     vdW  Elec       q    Type
REMARK                         _______ _______ _______ _____ _____    ______ ____
ROOT
ATOM      1  C   UNL     1      31.739 -10.703 -19.824  0.00  0.00    -0.077 C 
ENDROOT
BRANCH   1   2
ATOM      2  N   UNL     1      31.502  -9.411 -20.465  0.00  0.00    +0.389 N 
ATOM      3  N   UNL     1      32.150  -7.141 -22.075  0.00  0.00    -0.311 N 
ATOM      4  C   UNL     1      32.472  -8.416 -19.991  0.00  0.00    -0.055 C 
ATOM      5  C   UNL     1      31.589  -9.536 -21.925  0.00  0.00    -0.055 C 
ATOM      6  C   UNL     1      32.200  -7.044 -20.611  0.00  0.00    +0.068 C 
ATOM      7  C   UNL     1      31.289  -8.201 -22.612  0.00  0.00    +0.068 C 
ATOM      8  H   UNL     1      30.563  -9.100 -20.218  0.00  0.00    -0.080 HD
BRANCH   3  11
ATOM      9 CL   UNL     1      34.491  -7.191 -23.967  0.00  0.00    -0.080 Cl
ATOM     10 CL   UNL     1      34.878  -4.464 -25.616  0.00  0.00    -0.081 Cl
ATOM     11  C   UNL     1      32.360  -5.976 -22.820  0.00  0.00    +0.059 C 
ATOM     12  C   UNL     1      33.417  -5.844 -23.747  0.00  0.00    +0.081 C 
ATOM     13  C   UNL     1      31.493  -4.877 -22.651  0.00  0.00    +0.015 C 
ATOM     14  C   UNL     1      33.597  -4.665 -24.471  0.00  0.00    +0.069 C 
ATOM     15  C   UNL     1      31.673  -3.699 -23.376  0.00  0.00    +0.002 C 
ATOM     16  C   UNL     1      32.725  -3.593 -24.286  0.00  0.00    +0.012 C 
ENDBRANCH   3  11
ENDBRANCH   1   2
BRANCH   1  17
ATOM     17  C   UNL     1      31.434 -11.842 -20.796  0.00  0.00    -0.019 C 
BRANCH  17  18
ATOM     18  C   UNL     1      32.648 -12.752 -20.979  0.00  0.00    +0.045 C 
BRANCH  18  19
ATOM     19  C   UNL     1      32.987 -12.949 -22.451  0.00  0.00    +0.205 C 
BRANCH  19  20
ATOM     20  O   UNL     1      34.327 -13.418 -22.580  0.00  0.00    -0.475 OA
BRANCH  20  26
ATOM     21  O   UNL     1      36.058 -19.742 -19.849  0.00  0.00    -0.275 OA
ATOM     22  N   UNL     1      35.546 -17.696 -20.758  0.00  0.00    -0.284 N 
ATOM     23  C   UNL     1      34.861 -17.513 -23.084  0.00  0.00    -0.008 C 
ATOM     24  C   UNL     1      35.161 -18.972 -23.269  0.00  0.00    +0.037 C 
ATOM     25  C   UNL     1      35.102 -16.915 -21.840  0.00  0.00    +0.049 C 
ATOM     26  C   UNL     1      34.503 -14.758 -22.743  0.00  0.00    +0.140 C 
ATOM     27  C   UNL     1      34.944 -19.739 -21.974  0.00  0.00    +0.090 C 
ATOM     28  C   UNL     1      34.934 -15.538 -21.671  0.00  0.00    +0.051 C 
ATOM     29  C   UNL     1      34.442 -16.719 -24.156  0.00  0.00    +0.000 C 
ATOM     30  C   UNL     1      34.254 -15.346 -23.982  0.00  0.00    +0.037 C 
ATOM     31  C   UNL     1      35.600 -19.076 -20.777  0.00  0.00    +0.226 C 
ATOM     32  H   UNL     1      35.836 -17.231 -19.939  0.00  0.00    +0.155 HD
ENDBRANCH  20  26
ENDBRANCH  19  20
ENDBRANCH  18  19
ENDBRANCH  17  18
ENDBRANCH   1  17
TORSDOF 7
ENDMDL
MODEL 8
REMARK VINA RESULT:     -10.7      1.852      2.422
REMARK  Name = 60795
REMARK  7 active torsions:
REMARK  status: ('A' for Active; 'I' for Inactive)
REMARK    1  A    between atoms: C_1  and  N_2
REMARK    2  A    between atoms: C_1  and  C_17
REMARK    3  A    between atoms: N_3  and  C_11
REMARK    4  A    between atoms: C_17  and  C_18
REMARK    5  A    between atoms: C_18  and  C_19
REMARK    6  A    between atoms: C_19  and  O_20
REMARK    7  A    between atoms: O_20  and  C_26
REMARK                            x       y       z     vdW  Elec       q    Type
REMARK                         _______ _______ _______ _____ _____    ______ ____
ROOT
ATOM      1  C   UNL     1      34.934 -15.904 -24.422  0.00  0.00    -0.077 C 
ENDROOT
BRANCH   1   2
ATOM      2  N   UNL     1      35.235 -17.014 -23.520  0.00  0.00    +0.389 N 
ATOM      3  N   UNL     1      34.691 -18.936 -21.477  0.00  0.00    -0.311 N 
ATOM      4  C   UNL     1      35.096 -16.592 -22.120  0.00  0.00    -0.055 C 
ATOM      5  C   UNL     1      34.348 -18.152 -23.788  0.00  0.00    -0.055 C 
ATOM      6  C   UNL     1      35.465 -17.728 -21.165  0.00  0.00    +0.068 C 
ATOM      7  C   UNL     1      34.690 -19.342 -22.887  0.00  0.00    +0.068 C 
ATOM      8  H   UNL     1      36.199 -17.303 -23.682  0.00  0.00    -0.080 HD
BRANCH   3  11
ATOM      9 CL   UNL     1      37.217 -19.739 -20.050  0.00  0.00    -0.080 Cl
ATOM     10 CL   UNL     1      36.768 -21.967 -17.783  0.00  0.00    -0.081 Cl
ATOM     11  C   UNL     1      34.548 -19.904 -20.478  0.00  0.00    +0.059 C 
ATOM     12  C   UNL     1      35.639 -20.385 -19.721  0.00  0.00    +0.081 C 
ATOM     13  C   UNL     1      33.271 -20.434 -20.200  0.00  0.00    +0.015 C 
ATOM     14  C   UNL     1      35.459 -21.353 -18.732  0.00  0.00    +0.069 C 
ATOM     15  C   UNL     1      33.091 -21.401 -19.211  0.00  0.00    +0.002 C 
ATOM     16  C   UNL     1      34.185 -21.860 -18.477  0.00  0.00    +0.012 C 
ENDBRANCH   3  11
ENDBRANCH   1   2
BRANCH   1  17
ATOM     17  C   UNL     1      33.725 -15.120 -23.915  0.00  0.00    -0.019 C 
BRANCH  17  18
ATOM     18  C   UNL     1      34.155 -13.829 -23.219  0.00  0.00    +0.045 C 
BRANCH  18  19
ATOM     19  C   UNL     1      33.160 -12.702 -23.461  0.00  0.00    +0.205 C 
BRANCH  19  20
ATOM     20  O   UNL     1      32.276 -12.590 -22.348  0.00  0.00    -0.475 OA
BRANCH  20  26
ATOM     21  O   UNL     1      33.209  -5.553 -22.601  0.00  0.00    -0.275 OA
ATOM     22  N   UNL     1      32.951  -7.832 -22.487  0.00  0.00    -0.284 N 
ATOM     23  C   UNL     1      32.007  -8.871 -20.501  0.00  0.00    -0.008 C 
ATOM     24  C   UNL     1      32.018  -7.535 -19.818  0.00  0.00    +0.037 C 
ATOM     25  C   UNL     1      32.513  -8.980 -21.804  0.00  0.00    +0.049 C 
ATOM     26  C   UNL     1      32.189 -11.372 -21.745  0.00  0.00    +0.140 C 
ATOM     27  C   UNL     1      31.842  -6.409 -20.826  0.00  0.00    +0.090 C 
ATOM     28  C   UNL     1      32.614 -10.229 -22.423  0.00  0.00    +0.051 C 
ATOM     29  C   UNL     1      31.596 -10.026 -19.827  0.00  0.00    +0.000 C 
ATOM     30  C   UNL     1      31.678 -11.271 -20.452  0.00  0.00    +0.037 C 
ATOM     31  C   UNL     1      32.757  -6.544 -22.028  0.00  0.00    +0.226 C 
ATOM     32  H   UNL     1      33.424  -7.954 -23.343  0.00  0.00    +0.155 HD
ENDBRANCH  20  26
ENDBRANCH  19  20
ENDBRANCH  18  19
ENDBRANCH  17  18
ENDBRANCH   1  17
TORSDOF 7
ENDMDL
MODEL 9
REMARK VINA RESULT:     -10.7      4.705     12.234
REMARK  Name = 60795
REMARK  7 active torsions:
REMARK  status: ('A' for Active; 'I' for Inactive)
REMARK    1  A    between atoms: C_1  and  N_2
REMARK    2  A    between atoms: C_1  and  C_17
REMARK    3  A    between atoms: N_3  and  C_11
REMARK    4  A    between atoms: C_17  and  C_18
REMARK    5  A    between atoms: C_18  and  C_19
REMARK    6  A    between atoms: C_19  and  O_20
REMARK    7  A    between atoms: O_20  and  C_26
REMARK                            x       y       z     vdW  Elec       q    Type
REMARK                         _______ _______ _______ _____ _____    ______ ____
ROOT
ATOM      1  C   UNL     1      35.062 -17.947 -23.500  0.00  0.00    -0.077 C 
ENDROOT
BRANCH   1   2
ATOM      2  N   UNL     1      35.006 -16.486 -23.492  0.00  0.00    +0.389 N 
ATOM      3  N   UNL     1      33.830 -13.923 -23.032  0.00  0.00    -0.311 N 
ATOM      4  C   UNL     1      33.910 -16.008 -24.344  0.00  0.00    -0.055 C 
ATOM      5  C   UNL     1      34.830 -15.984 -22.124  0.00  0.00    -0.055 C 
ATOM      6  C   UNL     1      33.877 -14.479 -24.391  0.00  0.00    +0.068 C 
ATOM      7  C   UNL     1      34.826 -14.453 -22.096  0.00  0.00    +0.068 C 
ATOM      8  H   UNL     1      35.889 -16.132 -23.861  0.00  0.00    -0.080 HD
BRANCH   3  11
ATOM      9 CL   UNL     1      32.159 -13.426 -20.578  0.00  0.00    -0.080 Cl
ATOM     10 CL   UNL     1      31.115 -10.402 -20.317  0.00  0.00    -0.081 Cl
ATOM     11  C   UNL     1      33.351 -12.619 -22.871  0.00  0.00    +0.059 C 
ATOM     12  C   UNL     1      32.553 -12.229 -21.773  0.00  0.00    +0.081 C 
ATOM     13  C   UNL     1      33.667 -11.638 -23.835  0.00  0.00    +0.015 C 
ATOM     14  C   UNL     1      32.093 -10.918 -21.646  0.00  0.00    +0.069 C 
ATOM     15  C   UNL     1      33.207 -10.328 -23.707  0.00  0.00    +0.002 C 
ATOM     16  C   UNL     1      32.420  -9.968 -22.613  0.00  0.00    +0.012 C 
ENDBRANCH   3  11
ENDBRANCH   1   2
BRANCH   1  17
ATOM     17  C   UNL     1      35.515 -18.467 -22.137  0.00  0.00    -0.019 C 
BRANCH  17  18
ATOM     18  C   UNL     1      34.800 -19.769 -21.777  0.00  0.00    +0.045 C 
BRANCH  18  19
ATOM     19  C   UNL     1      34.996 -20.132 -20.311  0.00  0.00    +0.205 C 
BRANCH  19  20
ATOM     20  O   UNL     1      33.915 -20.949 -19.866  0.00  0.00    -0.475 OA
BRANCH  20  26
ATOM     21  O   UNL     1      38.205 -23.168 -14.658  0.00  0.00    -0.275 OA
ATOM     22  N   UNL     1      36.817 -22.501 -16.362  0.00  0.00    -0.284 N 
ATOM     23  C   UNL     1      34.441 -23.014 -16.293  0.00  0.00    -0.008 C 
ATOM     24  C   UNL     1      34.673 -23.842 -15.062  0.00  0.00    +0.037 C 
ATOM     25  C   UNL     1      35.532 -22.403 -16.924  0.00  0.00    +0.049 C 
ATOM     26  C   UNL     1      34.089 -21.624 -18.697  0.00  0.00    +0.140 C 
ATOM     27  C   UNL     1      35.844 -23.300 -14.257  0.00  0.00    +0.090 C 
ATOM     28  C   UNL     1      35.360 -21.717 -18.130  0.00  0.00    +0.051 C 
ATOM     29  C   UNL     1      33.173 -22.927 -16.877  0.00  0.00    +0.000 C 
ATOM     30  C   UNL     1      32.998 -22.225 -18.071  0.00  0.00    +0.037 C 
ATOM     31  C   UNL     1      37.069 -23.022 -15.108  0.00  0.00    +0.226 C 
ATOM     32  H   UNL     1      37.582 -22.179 -16.893  0.00  0.00    +0.155 HD
ENDBRANCH  20  26
ENDBRANCH  19  20
ENDBRANCH  18  19
ENDBRANCH  17  18
ENDBRANCH   1  17
TORSDOF 7
ENDMDL
