MODEL 1
REMARK VINA RESULT:     -11.7      0.000      0.000
REMARK  Name = 23650961
REMARK  5 active torsions:
REMARK  status: ('A' for Active; 'I' for Inactive)
REMARK    1  A    between atoms: N_1  and  C_23
REMARK    2  A    between atoms: C_5  and  C_12
REMARK    3  A    between atoms: C_23  and  C_24
REMARK    4  A    between atoms: C_24  and  C_25
REMARK    5  A    between atoms: C_25  and  C_27
REMARK                            x       y       z     vdW  Elec       q    Type
REMARK                         _______ _______ _______ _____ _____    ______ ____
ROOT
ATOM      1  N   UNL     1      34.604 -16.893 -23.388  0.00  0.00    -0.268 N 
ATOM      2  N   UNL     1      33.872 -14.978 -24.530  0.00  0.00    -0.342 NA
ATOM      3  N   UNL     1      34.770 -14.821 -22.300  0.00  0.00    -0.170 NA
ATOM      4  C   UNL     1      34.410 -15.520 -23.406  0.00  0.00    +0.144 C 
ATOM      5  C   UNL     1      34.028 -12.836 -23.442  0.00  0.00    +0.061 C 
ATOM      6  C   UNL     1      33.696 -13.641 -24.514  0.00  0.00    +0.123 C 
ATOM      7  C   UNL     1      34.566 -13.488 -22.351  0.00  0.00    +0.113 C 
ATOM      8  C   UNL     1      33.104 -13.056 -25.755  0.00  0.00    +0.067 C 
ATOM      9  H   UNL     1      34.346 -17.409 -24.186  0.00  0.00    +0.159 HD
ENDROOT
BRANCH   5  12
ATOM     10  N   UNL     1      34.779 -10.546 -23.919  0.00  0.00    -0.314 N 
ATOM     11  N   UNL     1      32.775 -10.772 -22.984  0.00  0.00    -0.315 N 
ATOM     12  C   UNL     1      33.835 -11.411 -23.434  0.00  0.00    +0.171 C 
ATOM     13  C   UNL     1      34.298  -9.271 -23.771  0.00  0.00    +0.059 C 
ATOM     14  C   UNL     1      33.046  -9.438 -23.186  0.00  0.00    +0.055 C 
ATOM     15  C   UNL     1      32.269  -8.305 -22.893  0.00  0.00    -0.008 C 
ATOM     16  C   UNL     1      34.834  -8.022 -24.090  0.00  0.00    +0.011 C 
ATOM     17  C   UNL     1      34.047  -6.904 -23.792  0.00  0.00    -0.021 C 
ATOM     18  C   UNL     1      32.788  -7.040 -23.204  0.00  0.00    -0.007 C 
ATOM     19  C   UNL     1      30.917  -8.398 -22.265  0.00  0.00    +0.032 C 
ATOM     20  C   UNL     1      34.565  -5.540 -24.110  0.00  0.00    +0.031 C 
ATOM     21  H   UNL     1      35.649 -10.795 -24.305  0.00  0.00    +0.149 HD
ATOM     22  H   UNL     1      31.964 -11.165 -22.587  0.00  0.00    +0.149 HD
ENDBRANCH   5  12
BRANCH   1  23
ATOM     23  C   UNL     1      35.164 -17.608 -22.267  0.00  0.00    +0.098 C 
BRANCH  23  24
ATOM     24  C   UNL     1      34.595 -19.022 -22.187  0.00  0.00    +0.022 C 
BRANCH  24  25
ATOM     25  C   UNL     1      35.480 -19.962 -21.369  0.00  0.00    +0.002 C 
BRANCH  25  27
ATOM     26  N   UNL     1      33.294 -22.291 -18.461  0.00  0.00    +0.385 N 
ATOM     27  C   UNL     1      34.807 -20.351 -20.054  0.00  0.00    -0.004 C 
ATOM     28  C   UNL     1      35.452 -21.605 -19.456  0.00  0.00    -0.023 C 
ATOM     29  C   UNL     1      33.306 -20.586 -20.253  0.00  0.00    -0.023 C 
ATOM     30  C   UNL     1      34.720 -22.059 -18.192  0.00  0.00    -0.077 C 
ATOM     31  C   UNL     1      32.644 -21.073 -18.963  0.00  0.00    -0.077 C 
ATOM     32  C   UNL     1      32.617 -22.773 -17.257  0.00  0.00    -0.101 C 
ATOM     33  H   UNL     1      33.223 -23.007 -19.185  0.00  0.00    -0.080 HD
ENDBRANCH  25  27
ENDBRANCH  24  25
ENDBRANCH  23  24
ENDBRANCH   1  23
TORSDOF 5
ENDMDL
MODEL 2
REMARK VINA RESULT:     -11.1      2.238     12.414
REMARK  Name = 23650961
REMARK  5 active torsions:
REMARK  status: ('A' for Active; 'I' for Inactive)
REMARK    1  A    between atoms: N_1  and  C_23
REMARK    2  A    between atoms: C_5  and  C_12
REMARK    3  A    between atoms: C_23  and  C_24
REMARK    4  A    between atoms: C_24  and  C_25
REMARK    5  A    between atoms: C_25  and  C_27
REMARK                            x       y       z     vdW  Elec       q    Type
REMARK                         _______ _______ _______ _____ _____    ______ ____
ROOT
ATOM      1  N   UNL     1      35.451 -19.164 -22.086  0.00  0.00    -0.268 N 
ATOM      2  N   UNL     1      35.853 -20.411 -20.139  0.00  0.00    -0.342 NA
ATOM      3  N   UNL     1      33.606 -20.020 -20.916  0.00  0.00    -0.170 NA
ATOM      4  C   UNL     1      34.954 -19.888 -21.013  0.00  0.00    +0.144 C 
ATOM      5  C   UNL     1      33.983 -21.303 -18.913  0.00  0.00    +0.061 C 
ATOM      6  C   UNL     1      35.337 -21.108 -19.107  0.00  0.00    +0.123 C 
ATOM      7  C   UNL     1      33.157 -20.730 -19.859  0.00  0.00    +0.113 C 
ATOM      8  C   UNL     1      36.336 -21.678 -18.153  0.00  0.00    +0.067 C 
ATOM      9  H   UNL     1      36.426 -19.063 -22.166  0.00  0.00    +0.159 HD
ENDROOT
BRANCH   5  12
ATOM     10  N   UNL     1      32.096 -22.236 -17.648  0.00  0.00    -0.314 N 
ATOM     11  N   UNL     1      34.133 -22.624 -16.847  0.00  0.00    -0.315 N 
ATOM     12  C   UNL     1      33.442 -22.047 -17.808  0.00  0.00    +0.171 C 
ATOM     13  C   UNL     1      31.907 -22.980 -16.511  0.00  0.00    +0.059 C 
ATOM     14  C   UNL     1      33.193 -23.210 -16.030  0.00  0.00    +0.055 C 
ATOM     15  C   UNL     1      33.361 -23.958 -14.852  0.00  0.00    -0.008 C 
ATOM     16  C   UNL     1      30.757 -23.458 -15.882  0.00  0.00    +0.011 C 
ATOM     17  C   UNL     1      30.941 -24.200 -14.711  0.00  0.00    -0.021 C 
ATOM     18  C   UNL     1      32.219 -24.447 -14.203  0.00  0.00    -0.007 C 
ATOM     19  C   UNL     1      34.705 -24.248 -14.270  0.00  0.00    +0.032 C 
ATOM     20  C   UNL     1      29.749 -24.740 -13.992  0.00  0.00    +0.031 C 
ATOM     21  H   UNL     1      31.389 -21.898 -18.242  0.00  0.00    +0.149 HD
ATOM     22  H   UNL     1      35.111 -22.634 -16.736  0.00  0.00    +0.149 HD
ENDBRANCH   5  12
BRANCH   1  23
ATOM     23  C   UNL     1      34.618 -18.552 -23.093  0.00  0.00    +0.098 C 
BRANCH  23  24
ATOM     24  C   UNL     1      34.942 -17.067 -23.234  0.00  0.00    +0.022 C 
BRANCH  24  25
ATOM     25  C   UNL     1      34.173 -16.408 -24.380  0.00  0.00    +0.002 C 
BRANCH  25  27
ATOM     26  N   UNL     1      34.208 -12.143 -23.695  0.00  0.00    +0.385 N 
ATOM     27  C   UNL     1      33.689 -15.013 -23.990  0.00  0.00    -0.004 C 
ATOM     28  C   UNL     1      33.740 -14.059 -25.188  0.00  0.00    -0.023 C 
ATOM     29  C   UNL     1      34.523 -14.442 -22.839  0.00  0.00    -0.023 C 
ATOM     30  C   UNL     1      33.352 -12.636 -24.783  0.00  0.00    -0.077 C 
ATOM     31  C   UNL     1      34.109 -13.007 -22.511  0.00  0.00    -0.077 C 
ATOM     32  C   UNL     1      33.860 -10.764 -23.353  0.00  0.00    -0.101 C 
ATOM     33  H   UNL     1      35.175 -12.165 -24.020  0.00  0.00    -0.080 HD
ENDBRANCH  25  27
ENDBRANCH  24  25
ENDBRANCH  23  24
ENDBRANCH   1  23
TORSDOF 5
ENDMDL
MODEL 3
REMARK VINA RESULT:     -11.1      0.697      1.726
REMARK  Name = 23650961
REMARK  5 active torsions:
REMARK  status: ('A' for Active; 'I' for Inactive)
REMARK    1  A    between atoms: N_1  and  C_23
REMARK    2  A    between atoms: C_5  and  C_12
REMARK    3  A    between atoms: C_23  and  C_24
REMARK    4  A    between atoms: C_24  and  C_25
REMARK    5  A    between atoms: C_25  and  C_27
REMARK                            x       y       z     vdW  Elec       q    Type
REMARK                         _______ _______ _______ _____ _____    ______ ____
ROOT
ATOM      1  N   UNL     1      34.751 -16.584 -23.566  0.00  0.00    -0.268 N 
ATOM      2  N   UNL     1      33.857 -14.656 -24.562  0.00  0.00    -0.342 NA
ATOM      3  N   UNL     1      34.709 -14.603 -22.309  0.00  0.00    -0.170 NA
ATOM      4  C   UNL     1      34.429 -15.238 -23.476  0.00  0.00    +0.144 C 
ATOM      5  C   UNL     1      33.797 -12.607 -23.299  0.00  0.00    +0.061 C 
ATOM      6  C   UNL     1      33.556 -13.347 -24.440  0.00  0.00    +0.123 C 
ATOM      7  C   UNL     1      34.381 -13.295 -22.255  0.00  0.00    +0.113 C 
ATOM      8  C   UNL     1      32.928 -12.718 -25.641  0.00  0.00    +0.067 C 
ATOM      9  H   UNL     1      34.553 -17.052 -24.408  0.00  0.00    +0.159 HD
ENDROOT
BRANCH   5  12
ATOM     10  N   UNL     1      32.369 -10.778 -22.492  0.00  0.00    -0.314 N 
ATOM     11  N   UNL     1      34.155 -10.207 -23.686  0.00  0.00    -0.315 N 
ATOM     12  C   UNL     1      33.472 -11.211 -23.179  0.00  0.00    +0.171 C 
ATOM     13  C   UNL     1      32.341  -9.409 -22.562  0.00  0.00    +0.059 C 
ATOM     14  C   UNL     1      33.466  -9.076 -23.311  0.00  0.00    +0.055 C 
ATOM     15  C   UNL     1      33.739  -7.724 -23.575  0.00  0.00    -0.008 C 
ATOM     16  C   UNL     1      31.455  -8.460 -22.048  0.00  0.00    +0.011 C 
ATOM     17  C   UNL     1      31.741  -7.119 -22.320  0.00  0.00    -0.021 C 
ATOM     18  C   UNL     1      32.862  -6.754 -23.069  0.00  0.00    -0.007 C 
ATOM     19  C   UNL     1      34.924  -7.283 -24.371  0.00  0.00    +0.032 C 
ATOM     20  C   UNL     1      30.830  -6.057 -21.797  0.00  0.00    +0.031 C 
ATOM     21  H   UNL     1      31.714 -11.348 -22.030  0.00  0.00    +0.149 HD
ATOM     22  H   UNL     1      34.983 -10.255 -24.218  0.00  0.00    +0.149 HD
ENDBRANCH   5  12
BRANCH   1  23
ATOM     23  C   UNL     1      35.362 -17.335 -22.496  0.00  0.00    +0.098 C 
BRANCH  23  24
ATOM     24  C   UNL     1      34.587 -18.621 -22.226  0.00  0.00    +0.022 C 
BRANCH  24  25
ATOM     25  C   UNL     1      35.458 -19.706 -21.593  0.00  0.00    +0.002 C 
BRANCH  25  27
ATOM     26  N   UNL     1      33.642 -22.221 -18.587  0.00  0.00    +0.385 N 
ATOM     27  C   UNL     1      34.892 -20.154 -20.247  0.00  0.00    -0.004 C 
ATOM     28  C   UNL     1      35.676 -21.347 -19.691  0.00  0.00    -0.023 C 
ATOM     29  C   UNL     1      33.410 -20.520 -20.367  0.00  0.00    -0.023 C 
ATOM     30  C   UNL     1      35.054 -21.865 -18.393  0.00  0.00    -0.077 C 
ATOM     31  C   UNL     1      32.862 -21.065 -19.047  0.00  0.00    -0.077 C 
ATOM     32  C   UNL     1      33.075 -22.763 -17.352  0.00  0.00    -0.101 C 
ATOM     33  H   UNL     1      33.596 -22.940 -19.310  0.00  0.00    -0.080 HD
ENDBRANCH  25  27
ENDBRANCH  24  25
ENDBRANCH  23  24
ENDBRANCH   1  23
TORSDOF 5
ENDMDL
MODEL 4
REMARK VINA RESULT:     -10.8      3.084     11.812
REMARK  Name = 23650961
REMARK  5 active torsions:
REMARK  status: ('A' for Active; 'I' for Inactive)
REMARK    1  A    between atoms: N_1  and  C_23
REMARK    2  A    between atoms: C_5  and  C_12
REMARK    3  A    between atoms: C_23  and  C_24
REMARK    4  A    between atoms: C_24  and  C_25
REMARK    5  A    between atoms: C_25  and  C_27
REMARK                            x       y       z     vdW  Elec       q    Type
REMARK                         _______ _______ _______ _____ _____    ______ ____
ROOT
ATOM      1  N   UNL     1      35.079 -19.174 -22.581  0.00  0.00    -0.268 N 
ATOM      2  N   UNL     1      35.524 -20.352 -20.600  0.00  0.00    -0.342 NA
ATOM      3  N   UNL     1      33.260 -19.930 -21.307  0.00  0.00    -0.170 NA
ATOM      4  C   UNL     1      34.606 -19.840 -21.461  0.00  0.00    +0.144 C 
ATOM      5  C   UNL     1      33.680 -21.141 -19.269  0.00  0.00    +0.061 C 
ATOM      6  C   UNL     1      35.029 -20.993 -19.522  0.00  0.00    +0.123 C 
ATOM      7  C   UNL     1      32.833 -20.583 -20.206  0.00  0.00    +0.113 C 
ATOM      8  C   UNL     1      36.049 -21.552 -18.583  0.00  0.00    +0.067 C 
ATOM      9  H   UNL     1      36.054 -19.104 -22.701  0.00  0.00    +0.159 HD
ENDROOT
BRANCH   5  12
ATOM     10  N   UNL     1      33.982 -22.400 -17.181  0.00  0.00    -0.314 N 
ATOM     11  N   UNL     1      31.892 -21.984 -17.811  0.00  0.00    -0.315 N 
ATOM     12  C   UNL     1      33.162 -21.826 -18.115  0.00  0.00    +0.171 C 
ATOM     13  C   UNL     1      33.190 -22.966 -16.216  0.00  0.00    +0.059 C 
ATOM     14  C   UNL     1      31.890 -22.692 -16.630  0.00  0.00    +0.055 C 
ATOM     15  C   UNL     1      30.812 -23.142 -15.849  0.00  0.00    -0.008 C 
ATOM     16  C   UNL     1      33.490 -23.671 -15.049  0.00  0.00    +0.011 C 
ATOM     17  C   UNL     1      32.405 -24.111 -14.283  0.00  0.00    -0.021 C 
ATOM     18  C   UNL     1      31.090 -23.853 -14.673  0.00  0.00    -0.007 C 
ATOM     19  C   UNL     1      29.388 -22.891 -16.224  0.00  0.00    +0.032 C 
ATOM     20  C   UNL     1      32.661 -24.871 -13.023  0.00  0.00    +0.031 C 
ATOM     21  H   UNL     1      34.966 -22.407 -17.200  0.00  0.00    +0.149 HD
ATOM     22  H   UNL     1      31.110 -21.666 -18.319  0.00  0.00    +0.149 HD
ENDBRANCH   5  12
BRANCH   1  23
ATOM     23  C   UNL     1      34.225 -18.579 -23.580  0.00  0.00    +0.098 C 
BRANCH  23  24
ATOM     24  C   UNL     1      34.683 -17.161 -23.909  0.00  0.00    +0.022 C 
BRANCH  24  25
ATOM     25  C   UNL     1      35.374 -16.481 -22.727  0.00  0.00    +0.002 C 
BRANCH  25  27
ATOM     26  N   UNL     1      32.642 -13.245 -21.877  0.00  0.00    +0.385 N 
ATOM     27  C   UNL     1      34.850 -15.061 -22.522  0.00  0.00    -0.004 C 
ATOM     28  C   UNL     1      34.339 -14.865 -21.091  0.00  0.00    -0.023 C 
ATOM     29  C   UNL     1      33.734 -14.737 -23.520  0.00  0.00    -0.023 C 
ATOM     30  C   UNL     1      33.720 -13.478 -20.906  0.00  0.00    -0.077 C 
ATOM     31  C   UNL     1      33.136 -13.354 -23.255  0.00  0.00    -0.077 C 
ATOM     32  C   UNL     1      32.027 -11.937 -21.655  0.00  0.00    -0.101 C 
ATOM     33  H   UNL     1      31.934 -13.967 -21.739  0.00  0.00    -0.080 HD
ENDBRANCH  25  27
ENDBRANCH  24  25
ENDBRANCH  23  24
ENDBRANCH   1  23
TORSDOF 5
ENDMDL
MODEL 5
REMARK VINA RESULT:     -10.6      4.175     13.640
REMARK  Name = 23650961
REMARK  5 active torsions:
REMARK  status: ('A' for Active; 'I' for Inactive)
REMARK    1  A    between atoms: N_1  and  C_23
REMARK    2  A    between atoms: C_5  and  C_12
REMARK    3  A    between atoms: C_23  and  C_24
REMARK    4  A    between atoms: C_24  and  C_25
REMARK    5  A    between atoms: C_25  and  C_27
REMARK                            x       y       z     vdW  Elec       q    Type
REMARK                         _______ _______ _______ _____ _____    ______ ____
ROOT
ATOM      1  N   UNL     1      35.066 -20.635 -20.144  0.00  0.00    -0.268 N 
ATOM      2  N   UNL     1      34.342 -21.975 -18.359  0.00  0.00    -0.342 NA
ATOM      3  N   UNL     1      36.554 -21.021 -18.372  0.00  0.00    -0.170 NA
ATOM      4  C   UNL     1      35.329 -21.229 -18.920  0.00  0.00    +0.144 C 
ATOM      5  C   UNL     1      35.844 -22.392 -16.525  0.00  0.00    +0.061 C 
ATOM      6  C   UNL     1      34.632 -22.539 -17.169  0.00  0.00    +0.123 C 
ATOM      7  C   UNL     1      36.777 -21.615 -17.181  0.00  0.00    +0.113 C 
ATOM      8  C   UNL     1      33.538 -23.357 -16.562  0.00  0.00    +0.067 C 
ATOM      9  H   UNL     1      34.180 -20.779 -20.549  0.00  0.00    +0.159 HD
ENDROOT
BRANCH   5  12
ATOM     10  N   UNL     1      35.392 -22.756 -14.138  0.00  0.00    -0.314 N 
ATOM     11  N   UNL     1      37.132 -23.833 -15.007  0.00  0.00    -0.315 N 
ATOM     12  C   UNL     1      36.144 -22.999 -15.256  0.00  0.00    +0.171 C 
ATOM     13  C   UNL     1      35.931 -23.477 -13.103  0.00  0.00    +0.059 C 
ATOM     14  C   UNL     1      37.015 -24.141 -13.671  0.00  0.00    +0.055 C 
ATOM     15  C   UNL     1      37.800 -24.984 -12.866  0.00  0.00    -0.008 C 
ATOM     16  C   UNL     1      35.574 -23.602 -11.759  0.00  0.00    +0.011 C 
ATOM     17  C   UNL     1      36.366 -24.444 -10.973  0.00  0.00    -0.021 C 
ATOM     18  C   UNL     1      37.460 -25.124 -11.514  0.00  0.00    -0.007 C 
ATOM     19  C   UNL     1      38.979 -25.731 -13.397  0.00  0.00    +0.032 C 
ATOM     20  C   UNL     1      36.034 -24.621  -9.528  0.00  0.00    +0.031 C 
ATOM     21  H   UNL     1      34.606 -22.167 -14.085  0.00  0.00    +0.149 HD
ATOM     22  H   UNL     1      37.809 -24.164 -15.640  0.00  0.00    +0.149 HD
ENDBRANCH   5  12
BRANCH   1  23
ATOM     23  C   UNL     1      36.015 -19.816 -20.859  0.00  0.00    +0.098 C 
BRANCH  23  24
ATOM     24  C   UNL     1      35.380 -18.496 -21.284  0.00  0.00    +0.022 C 
BRANCH  24  25
ATOM     25  C   UNL     1      35.422 -18.289 -22.799  0.00  0.00    +0.002 C 
BRANCH  25  27
ATOM     26  N   UNL     1      33.601 -14.409 -23.336  0.00  0.00    +0.385 N 
ATOM     27  C   UNL     1      35.269 -16.813 -23.160  0.00  0.00    -0.004 C 
ATOM     28  C   UNL     1      34.891 -15.983 -21.929  0.00  0.00    -0.023 C 
ATOM     29  C   UNL     1      34.217 -16.621 -24.257  0.00  0.00    -0.023 C 
ATOM     30  C   UNL     1      34.637 -14.521 -22.300  0.00  0.00    -0.077 C 
ATOM     31  C   UNL     1      33.987 -15.138 -24.552  0.00  0.00    -0.077 C 
ATOM     32  C   UNL     1      33.333 -13.004 -23.644  0.00  0.00    -0.101 C 
ATOM     33  H   UNL     1      32.747 -14.833 -22.973  0.00  0.00    -0.080 HD
ENDBRANCH  25  27
ENDBRANCH  24  25
ENDBRANCH  23  24
ENDBRANCH   1  23
TORSDOF 5
ENDMDL
MODEL 6
REMARK VINA RESULT:     -10.6      1.698      2.881
REMARK  Name = 23650961
REMARK  5 active torsions:
REMARK  status: ('A' for Active; 'I' for Inactive)
REMARK    1  A    between atoms: N_1  and  C_23
REMARK    2  A    between atoms: C_5  and  C_12
REMARK    3  A    between atoms: C_23  and  C_24
REMARK    4  A    between atoms: C_24  and  C_25
REMARK    5  A    between atoms: C_25  and  C_27
REMARK                            x       y       z     vdW  Elec       q    Type
REMARK                         _______ _______ _______ _____ _____    ______ ____
ROOT
ATOM      1  N   UNL     1      35.542 -18.709 -22.069  0.00  0.00    -0.268 N 
ATOM      2  N   UNL     1      34.712 -17.003 -23.451  0.00  0.00    -0.342 NA
ATOM      3  N   UNL     1      35.241 -16.576 -21.139  0.00  0.00    -0.170 NA
ATOM      4  C   UNL     1      35.153 -17.387 -22.224  0.00  0.00    +0.144 C 
ATOM      5  C   UNL     1      34.390 -14.803 -22.528  0.00  0.00    +0.061 C 
ATOM      6  C   UNL     1      34.341 -15.711 -23.566  0.00  0.00    +0.123 C 
ATOM      7  C   UNL     1      34.853 -15.297 -21.325  0.00  0.00    +0.113 C 
ATOM      8  C   UNL     1      33.858 -15.300 -24.920  0.00  0.00    +0.067 C 
ATOM      9  H   UNL     1      35.482 -19.304 -22.850  0.00  0.00    +0.159 HD
ENDROOT
BRANCH   5  12
ATOM     10  N   UNL     1      32.923 -12.910 -21.979  0.00  0.00    -0.314 N 
ATOM     11  N   UNL     1      34.570 -12.520 -23.419  0.00  0.00    -0.315 N 
ATOM     12  C   UNL     1      33.991 -13.427 -22.661  0.00  0.00    +0.171 C 
ATOM     13  C   UNL     1      32.806 -11.587 -22.319  0.00  0.00    +0.059 C 
ATOM     14  C   UNL     1      33.846 -11.367 -23.219  0.00  0.00    +0.055 C 
ATOM     15  C   UNL     1      34.015 -10.087 -23.772  0.00  0.00    -0.008 C 
ATOM     16  C   UNL     1      31.908 -10.592 -21.929  0.00  0.00    +0.011 C 
ATOM     17  C   UNL     1      32.090  -9.324 -22.490  0.00  0.00    -0.021 C 
ATOM     18  C   UNL     1      33.123  -9.073 -23.395  0.00  0.00    -0.007 C 
ATOM     19  C   UNL     1      35.103  -9.769 -24.744  0.00  0.00    +0.032 C 
ATOM     20  C   UNL     1      31.161  -8.217 -22.111  0.00  0.00    +0.031 C 
ATOM     21  H   UNL     1      32.341 -13.401 -21.355  0.00  0.00    +0.149 HD
ATOM     22  H   UNL     1      35.354 -12.640 -24.004  0.00  0.00    +0.149 HD
ENDBRANCH   5  12
BRANCH   1  23
ATOM     23  C   UNL     1      36.030 -19.260 -20.828  0.00  0.00    +0.098 C 
BRANCH  23  24
ATOM     24  C   UNL     1      35.053 -20.292 -20.272  0.00  0.00    +0.022 C 
BRANCH  24  25
ATOM     25  C   UNL     1      35.759 -21.409 -19.502  0.00  0.00    +0.002 C 
BRANCH  25  27
ATOM     26  N   UNL     1      34.330 -23.487 -15.995  0.00  0.00    +0.385 N 
ATOM     27  C   UNL     1      35.096 -21.651 -18.148  0.00  0.00    -0.004 C 
ATOM     28  C   UNL     1      36.105 -22.190 -17.130  0.00  0.00    -0.023 C 
ATOM     29  C   UNL     1      33.920 -22.624 -18.277  0.00  0.00    -0.023 C 
ATOM     30  C   UNL     1      35.429 -22.530 -15.801  0.00  0.00    -0.077 C 
ATOM     31  C   UNL     1      33.315 -22.949 -16.910  0.00  0.00    -0.077 C 
ATOM     32  C   UNL     1      33.726 -23.841 -14.711  0.00  0.00    -0.101 C 
ATOM     33  H   UNL     1      34.719 -24.330 -16.417  0.00  0.00    -0.080 HD
ENDBRANCH  25  27
ENDBRANCH  24  25
ENDBRANCH  23  24
ENDBRANCH   1  23
TORSDOF 5
ENDMDL
MODEL 7
REMARK VINA RESULT:     -10.2      3.275     12.758
REMARK  Name = 23650961
REMARK  5 active torsions:
REMARK  status: ('A' for Active; 'I' for Inactive)
REMARK    1  A    between atoms: N_1  and  C_23
REMARK    2  A    between atoms: C_5  and  C_12
REMARK    3  A    between atoms: C_23  and  C_24
REMARK    4  A    between atoms: C_24  and  C_25
REMARK    5  A    between atoms: C_25  and  C_27
REMARK                            x       y       z     vdW  Elec       q    Type
REMARK                         _______ _______ _______ _____ _____    ______ ____
ROOT
ATOM      1  N   UNL     1      34.775 -19.686 -21.462  0.00  0.00    -0.268 N 
ATOM      2  N   UNL     1      33.949 -21.024 -19.721  0.00  0.00    -0.342 NA
ATOM      3  N   UNL     1      36.255 -20.327 -19.757  0.00  0.00    -0.170 NA
ATOM      4  C   UNL     1      35.000 -20.367 -20.276  0.00  0.00    +0.144 C 
ATOM      5  C   UNL     1      35.440 -21.701 -17.956  0.00  0.00    +0.061 C 
ATOM      6  C   UNL     1      34.202 -21.677 -18.568  0.00  0.00    +0.123 C 
ATOM      7  C   UNL     1      36.439 -21.001 -18.603  0.00  0.00    +0.113 C 
ATOM      8  C   UNL     1      33.038 -22.395 -17.967  0.00  0.00    +0.067 C 
ATOM      9  H   UNL     1      33.869 -19.708 -21.845  0.00  0.00    +0.159 HD
ENDROOT
BRANCH   5  12
ATOM     10  N   UNL     1      36.971 -22.700 -16.315  0.00  0.00    -0.314 N 
ATOM     11  N   UNL     1      34.798 -22.826 -15.869  0.00  0.00    -0.315 N 
ATOM     12  C   UNL     1      35.700 -22.401 -16.727  0.00  0.00    +0.171 C 
ATOM     13  C   UNL     1      36.881 -23.362 -15.118  0.00  0.00    +0.059 C 
ATOM     14  C   UNL     1      35.515 -23.428 -14.860  0.00  0.00    +0.055 C 
ATOM     15  C   UNL     1      35.068 -24.056 -13.685  0.00  0.00    -0.008 C 
ATOM     16  C   UNL     1      37.849 -23.893 -14.263  0.00  0.00    +0.011 C 
ATOM     17  C   UNL     1      37.387 -24.515 -13.098  0.00  0.00    -0.021 C 
ATOM     18  C   UNL     1      36.023 -24.597 -12.812  0.00  0.00    -0.007 C 
ATOM     19  C   UNL     1      33.621 -24.169 -13.335  0.00  0.00    +0.032 C 
ATOM     20  C   UNL     1      38.374 -25.101 -12.143  0.00  0.00    +0.031 C 
ATOM     21  H   UNL     1      37.802 -22.481 -16.794  0.00  0.00    +0.149 HD
ATOM     22  H   UNL     1      33.819 -22.734 -15.934  0.00  0.00    +0.149 HD
ENDBRANCH   5  12
BRANCH   1  23
ATOM     23  C   UNL     1      35.794 -18.945 -22.166  0.00  0.00    +0.098 C 
BRANCH  23  24
ATOM     24  C   UNL     1      35.529 -17.444 -22.080  0.00  0.00    +0.022 C 
BRANCH  24  25
ATOM     25  C   UNL     1      35.108 -16.848 -23.424  0.00  0.00    +0.002 C 
BRANCH  25  27
ATOM     26  N   UNL     1      33.048 -13.135 -22.631  0.00  0.00    +0.385 N 
ATOM     27  C   UNL     1      34.848 -15.348 -23.305  0.00  0.00    -0.004 C 
ATOM     28  C   UNL     1      34.531 -14.957 -21.858  0.00  0.00    -0.023 C 
ATOM     29  C   UNL     1      33.699 -14.914 -24.221  0.00  0.00    -0.023 C 
ATOM     30  C   UNL     1      34.171 -13.475 -21.747  0.00  0.00    -0.077 C 
ATOM     31  C   UNL     1      33.368 -13.432 -24.033  0.00  0.00    -0.077 C 
ATOM     32  C   UNL     1      32.682 -11.727 -22.477  0.00  0.00    -0.101 C 
ATOM     33  H   UNL     1      32.250 -13.711 -22.361  0.00  0.00    -0.080 HD
ENDBRANCH  25  27
ENDBRANCH  24  25
ENDBRANCH  23  24
ENDBRANCH   1  23
TORSDOF 5
ENDMDL
MODEL 8
REMARK VINA RESULT:     -10.0      7.027     10.333
REMARK  Name = 23650961
REMARK  5 active torsions:
REMARK  status: ('A' for Active; 'I' for Inactive)
REMARK    1  A    between atoms: N_1  and  C_23
REMARK    2  A    between atoms: C_5  and  C_12
REMARK    3  A    between atoms: C_23  and  C_24
REMARK    4  A    between atoms: C_24  and  C_25
REMARK    5  A    between atoms: C_25  and  C_27
REMARK                            x       y       z     vdW  Elec       q    Type
REMARK                         _______ _______ _______ _____ _____    ______ ____
ROOT
ATOM      1  N   UNL     1      35.104 -24.051 -14.506  0.00  0.00    -0.268 N 
ATOM      2  N   UNL     1      36.261 -22.523 -15.861  0.00  0.00    -0.342 NA
ATOM      3  N   UNL     1      34.082 -23.336 -16.493  0.00  0.00    -0.170 NA
ATOM      4  C   UNL     1      35.150 -23.279 -15.656  0.00  0.00    +0.144 C 
ATOM      5  C   UNL     1      35.242 -21.770 -17.907  0.00  0.00    +0.061 C 
ATOM      6  C   UNL     1      36.273 -21.785 -16.989  0.00  0.00    +0.123 C 
ATOM      7  C   UNL     1      34.161 -22.573 -17.604  0.00  0.00    +0.113 C 
ATOM      8  C   UNL     1      37.499 -20.958 -17.203  0.00  0.00    +0.067 C 
ATOM      9  H   UNL     1      35.873 -24.016 -13.892  0.00  0.00    +0.159 HD
ENDROOT
BRANCH   5  12
ATOM     10  N   UNL     1      34.172 -20.864 -19.925  0.00  0.00    -0.314 N 
ATOM     11  N   UNL     1      36.289 -20.291 -19.566  0.00  0.00    -0.315 N 
ATOM     12  C   UNL     1      35.265 -20.980 -19.109  0.00  0.00    +0.171 C 
ATOM     13  C   UNL     1      34.514 -20.051 -20.975  0.00  0.00    +0.059 C 
ATOM     14  C   UNL     1      35.840 -19.705 -20.728  0.00  0.00    +0.055 C 
ATOM     15  C   UNL     1      36.508 -18.862 -21.632  0.00  0.00    -0.008 C 
ATOM     16  C   UNL     1      33.799 -19.600 -22.086  0.00  0.00    +0.011 C 
ATOM     17  C   UNL     1      34.479 -18.762 -22.975  0.00  0.00    -0.021 C 
ATOM     18  C   UNL     1      35.809 -18.398 -22.755  0.00  0.00    -0.007 C 
ATOM     19  C   UNL     1      37.929 -18.445 -21.440  0.00  0.00    +0.032 C 
ATOM     20  C   UNL     1      33.767 -18.246 -24.182  0.00  0.00    +0.031 C 
ATOM     21  H   UNL     1      33.296 -21.289 -19.784  0.00  0.00    +0.149 HD
ATOM     22  H   UNL     1      37.185 -20.211 -19.164  0.00  0.00    +0.149 HD
ENDBRANCH   5  12
BRANCH   1  23
ATOM     23  C   UNL     1      33.992 -24.901 -14.156  0.00  0.00    +0.098 C 
BRANCH  23  24
ATOM     24  C   UNL     1      33.074 -24.208 -13.154  0.00  0.00    +0.022 C 
BRANCH  24  25
ATOM     25  C   UNL     1      31.686 -24.846 -13.095  0.00  0.00    +0.002 C 
BRANCH  25  27
ATOM     26  N   UNL     1      28.636 -23.178 -15.658  0.00  0.00    +0.385 N 
ATOM     27  C   UNL     1      30.882 -24.539 -14.355  0.00  0.00    -0.004 C 
ATOM     28  C   UNL     1      30.897 -23.038 -14.665  0.00  0.00    -0.023 C 
ATOM     29  C   UNL     1      29.435 -25.024 -14.219  0.00  0.00    -0.023 C 
ATOM     30  C   UNL     1      30.012 -22.709 -15.868  0.00  0.00    -0.077 C 
ATOM     31  C   UNL     1      28.599 -24.630 -15.437  0.00  0.00    -0.077 C 
ATOM     32  C   UNL     1      27.790 -22.811 -16.793  0.00  0.00    -0.101 C 
ATOM     33  H   UNL     1      28.273 -22.723 -14.820  0.00  0.00    -0.080 HD
ENDBRANCH  25  27
ENDBRANCH  24  25
ENDBRANCH  23  24
ENDBRANCH   1  23
TORSDOF 5
ENDMDL
MODEL 9
REMARK VINA RESULT:      -9.8      2.871     11.655
REMARK  Name = 23650961
REMARK  5 active torsions:
REMARK  status: ('A' for Active; 'I' for Inactive)
REMARK    1  A    between atoms: N_1  and  C_23
REMARK    2  A    between atoms: C_5  and  C_12
REMARK    3  A    between atoms: C_23  and  C_24
REMARK    4  A    between atoms: C_24  and  C_25
REMARK    5  A    between atoms: C_25  and  C_27
REMARK                            x       y       z     vdW  Elec       q    Type
REMARK                         _______ _______ _______ _____ _____    ______ ____
ROOT
ATOM      1  N   UNL     1      32.796  -9.493 -22.744  0.00  0.00    -0.268 N 
ATOM      2  N   UNL     1      32.736 -11.620 -21.754  0.00  0.00    -0.342 NA
ATOM      3  N   UNL     1      33.808 -11.276 -23.884  0.00  0.00    -0.170 NA
ATOM      4  C   UNL     1      33.124 -10.839 -22.796  0.00  0.00    +0.144 C 
ATOM      5  C   UNL     1      33.765 -13.472 -22.897  0.00  0.00    +0.061 C 
ATOM      6  C   UNL     1      33.071 -12.923 -21.837  0.00  0.00    +0.123 C 
ATOM      7  C   UNL     1      34.110 -12.591 -23.903  0.00  0.00    +0.113 C 
ATOM      8  C   UNL     1      32.640 -13.772 -20.685  0.00  0.00    +0.067 C 
ATOM      9  H   UNL     1      32.300  -9.166 -21.959  0.00  0.00    +0.159 HD
ENDROOT
BRANCH   5  12
ATOM     10  N   UNL     1      33.715 -15.658 -24.017  0.00  0.00    -0.314 N 
ATOM     11  N   UNL     1      34.839 -15.534 -22.104  0.00  0.00    -0.315 N 
ATOM     12  C   UNL     1      34.116 -14.864 -22.976  0.00  0.00    +0.171 C 
ATOM     13  C   UNL     1      34.209 -16.918 -23.800  0.00  0.00    +0.059 C 
ATOM     14  C   UNL     1      34.907 -16.816 -22.601  0.00  0.00    +0.055 C 
ATOM     15  C   UNL     1      35.550 -17.952 -22.081  0.00  0.00    -0.008 C 
ATOM     16  C   UNL     1      34.108 -18.105 -24.529  0.00  0.00    +0.011 C 
ATOM     17  C   UNL     1      34.753 -19.227 -23.998  0.00  0.00    -0.021 C 
ATOM     18  C   UNL     1      35.461 -19.155 -22.797  0.00  0.00    -0.007 C 
ATOM     19  C   UNL     1      36.318 -17.926 -20.801  0.00  0.00    +0.032 C 
ATOM     20  C   UNL     1      34.683 -20.526 -24.732  0.00  0.00    +0.031 C 
ATOM     21  H   UNL     1      33.168 -15.374 -24.784  0.00  0.00    +0.149 HD
ATOM     22  H   UNL     1      35.244 -15.192 -21.274  0.00  0.00    +0.149 HD
ENDBRANCH   5  12
BRANCH   1  23
ATOM     23  C   UNL     1      33.140  -8.544 -23.775  0.00  0.00    +0.098 C 
BRANCH  23  24
ATOM     24  C   UNL     1      34.548  -7.997 -23.559  0.00  0.00    +0.022 C 
BRANCH  24  25
ATOM     25  C   UNL     1      34.543  -6.604 -22.929  0.00  0.00    +0.002 C 
BRANCH  25  27
ATOM     26  N   UNL     1      32.132  -3.137 -23.838  0.00  0.00    +0.385 N 
ATOM     27  C   UNL     1      33.391  -5.758 -23.465  0.00  0.00    -0.004 C 
ATOM     28  C   UNL     1      33.888  -4.747 -24.504  0.00  0.00    -0.023 C 
ATOM     29  C   UNL     1      32.672  -5.022 -22.330  0.00  0.00    -0.023 C 
ATOM     30  C   UNL     1      32.758  -3.829 -24.973  0.00  0.00    -0.077 C 
ATOM     31  C   UNL     1      31.582  -4.096 -22.871  0.00  0.00    -0.077 C 
ATOM     32  C   UNL     1      31.088  -2.225 -24.306  0.00  0.00    -0.101 C 
ATOM     33  H   UNL     1      32.854  -2.593 -23.365  0.00  0.00    -0.080 HD
ENDBRANCH  25  27
ENDBRANCH  24  25
ENDBRANCH  23  24
ENDBRANCH   1  23
TORSDOF 5
ENDMDL
