MODEL 1
REMARK VINA RESULT:     -12.6      0.000      0.000
REMARK  Name = 448889
REMARK  5 active torsions:
REMARK  status: ('A' for Active; 'I' for Inactive)
REMARK    1  A    between atoms: C_1  and  N_2
REMARK    2  A    between atoms: C_1  and  C_16
REMARK    3  A    between atoms: C_6  and  C_10
REMARK    4  A    between atoms: C_16  and  C_17
REMARK    5  A    between atoms: C_17  and  C_21
REMARK                            x       y       z     vdW  Elec       q    Type
REMARK                         _______ _______ _______ _____ _____    ______ ____
ROOT
ATOM      1  C   UNL     1      34.845 -16.030 -24.355  0.00  0.00    -0.076 C 
ENDROOT
BRANCH   1   2
ATOM      2  N   UNL     1      34.572 -16.924 -23.232  0.00  0.00    +0.390 N 
ATOM      3  C   UNL     1      35.703 -16.963 -22.301  0.00  0.00    -0.072 C 
ATOM      4  C   UNL     1      35.323 -17.774 -21.052  0.00  0.00    +0.003 C 
ATOM      5  C   UNL     1      34.246 -18.276 -23.710  0.00  0.00    -0.051 C 
ATOM      6  C   UNL     1      34.675 -19.099 -21.383  0.00  0.00    -0.031 C 
ATOM      7  C   UNL     1      34.185 -19.313 -22.620  0.00  0.00    -0.053 C 
ATOM      8  H   UNL     1      33.764 -16.557 -22.730  0.00  0.00    -0.079 HD
BRANCH   6  10
ATOM      9  F   UNL     1      34.369 -23.000 -17.357  0.00  0.00    -0.204 F 
ATOM     10  C   UNL     1      34.595 -20.129 -20.320  0.00  0.00    -0.004 C 
ATOM     11  C   UNL     1      35.763 -20.676 -19.784  0.00  0.00    +0.002 C 
ATOM     12  C   UNL     1      33.350 -20.555 -19.851  0.00  0.00    +0.002 C 
ATOM     13  C   UNL     1      35.687 -21.644 -18.783  0.00  0.00    +0.030 C 
ATOM     14  C   UNL     1      33.275 -21.524 -18.850  0.00  0.00    +0.030 C 
ATOM     15  C   UNL     1      34.443 -22.069 -18.317  0.00  0.00    +0.140 C 
ENDBRANCH   6  10
ENDBRANCH   1   2
BRANCH   1  16
ATOM     16  C   UNL     1      34.061 -14.725 -24.196  0.00  0.00    -0.014 C 
BRANCH  16  17
ATOM     17  C   UNL     1      33.823 -14.362 -22.739  0.00  0.00    +0.074 C 
BRANCH  17  21
ATOM     18  O   UNL     1      30.986 -11.064 -20.965  0.00  0.00    -0.209 OA
ATOM     19  N   UNL     1      34.053 -12.002 -23.370  0.00  0.00    -0.290 N 
ATOM     20  N   UNL     1      32.367 -12.677 -21.827  0.00  0.00    -0.322 NA
ATOM     21  C   UNL     1      33.367 -12.929 -22.621  0.00  0.00    +0.173 C 
ATOM     22  C   UNL     1      33.675 -10.659 -23.301  0.00  0.00    +0.058 C 
ATOM     23  C   UNL     1      32.608 -10.298 -22.468  0.00  0.00    +0.108 C 
ATOM     24  C   UNL     1      34.334  -9.670 -24.036  0.00  0.00    -0.008 C 
ATOM     25  C   UNL     1      31.923 -11.373 -21.693  0.00  0.00    +0.207 C 
ATOM     26  C   UNL     1      32.199  -8.965 -22.369  0.00  0.00    +0.014 C 
ATOM     27  C   UNL     1      33.928  -8.338 -23.940  0.00  0.00    -0.003 C 
ATOM     28  C   UNL     1      32.863  -7.988 -23.110  0.00  0.00    +0.001 C 
ATOM     29  C   UNL     1      35.479 -10.001 -24.938  0.00  0.00    +0.032 C 
ATOM     30  H   UNL     1      34.800 -12.281 -23.947  0.00  0.00    +0.154 HD
ENDBRANCH  17  21
ENDBRANCH  16  17
ENDBRANCH   1  16
TORSDOF 5
ENDMDL
MODEL 2
REMARK VINA RESULT:     -12.6      1.254      2.134
REMARK  Name = 448889
REMARK  5 active torsions:
REMARK  status: ('A' for Active; 'I' for Inactive)
REMARK    1  A    between atoms: C_1  and  N_2
REMARK    2  A    between atoms: C_1  and  C_16
REMARK    3  A    between atoms: C_6  and  C_10
REMARK    4  A    between atoms: C_16  and  C_17
REMARK    5  A    between atoms: C_17  and  C_21
REMARK                            x       y       z     vdW  Elec       q    Type
REMARK                         _______ _______ _______ _____ _____    ______ ____
ROOT
ATOM      1  C   UNL     1      34.916 -16.094 -24.346  0.00  0.00    -0.076 C 
ENDROOT
BRANCH   1   2
ATOM      2  N   UNL     1      34.615 -16.979 -23.223  0.00  0.00    +0.390 N 
ATOM      3  C   UNL     1      35.733 -17.030 -22.276  0.00  0.00    -0.072 C 
ATOM      4  C   UNL     1      35.324 -17.830 -21.029  0.00  0.00    +0.003 C 
ATOM      5  C   UNL     1      34.275 -18.329 -23.699  0.00  0.00    -0.051 C 
ATOM      6  C   UNL     1      34.661 -19.147 -21.363  0.00  0.00    -0.031 C 
ATOM      7  C   UNL     1      34.185 -19.359 -22.606  0.00  0.00    -0.053 C 
ATOM      8  H   UNL     1      33.805 -16.598 -22.733  0.00  0.00    -0.079 HD
BRANCH   6  10
ATOM      9  F   UNL     1      34.244 -23.025 -17.324  0.00  0.00    -0.204 F 
ATOM     10  C   UNL     1      34.552 -20.170 -20.297  0.00  0.00    -0.004 C 
ATOM     11  C   UNL     1      35.704 -20.735 -19.745  0.00  0.00    +0.002 C 
ATOM     12  C   UNL     1      33.295 -20.573 -19.840  0.00  0.00    +0.002 C 
ATOM     13  C   UNL     1      35.601 -21.698 -18.741  0.00  0.00    +0.030 C 
ATOM     14  C   UNL     1      33.192 -21.536 -18.835  0.00  0.00    +0.030 C 
ATOM     15  C   UNL     1      34.344 -22.099 -18.287  0.00  0.00    +0.140 C 
ENDBRANCH   6  10
ENDBRANCH   1   2
BRANCH   1  16
ATOM     16  C   UNL     1      33.869 -14.982 -24.439  0.00  0.00    -0.014 C 
BRANCH  16  17
ATOM     17  C   UNL     1      33.587 -14.333 -23.093  0.00  0.00    +0.074 C 
BRANCH  17  21
ATOM     18  O   UNL     1      34.864 -10.341 -25.216  0.00  0.00    -0.209 OA
ATOM     19  N   UNL     1      32.756 -12.155 -22.328  0.00  0.00    -0.290 N 
ATOM     20  N   UNL     1      34.245 -12.292 -24.184  0.00  0.00    -0.322 NA
ATOM     21  C   UNL     1      33.542 -12.831 -23.231  0.00  0.00    +0.173 C 
ATOM     22  C   UNL     1      32.676 -10.763 -22.407  0.00  0.00    +0.058 C 
ATOM     23  C   UNL     1      33.400 -10.098 -23.406  0.00  0.00    +0.108 C 
ATOM     24  C   UNL     1      31.894 -10.019 -21.519  0.00  0.00    -0.008 C 
ATOM     25  C   UNL     1      34.226 -10.917 -24.341  0.00  0.00    +0.207 C 
ATOM     26  C   UNL     1      33.346  -8.707 -23.521  0.00  0.00    +0.014 C 
ATOM     27  C   UNL     1      31.838  -8.628 -21.631  0.00  0.00    -0.003 C 
ATOM     28  C   UNL     1      32.563  -7.975 -22.628  0.00  0.00    +0.001 C 
ATOM     29  C   UNL     1      31.102 -10.677 -20.437  0.00  0.00    +0.032 C 
ATOM     30  H   UNL     1      32.258 -12.645 -21.635  0.00  0.00    +0.154 HD
ENDBRANCH  17  21
ENDBRANCH  16  17
ENDBRANCH   1  16
TORSDOF 5
ENDMDL
MODEL 3
REMARK VINA RESULT:     -12.3      1.192      2.187
REMARK  Name = 448889
REMARK  5 active torsions:
REMARK  status: ('A' for Active; 'I' for Inactive)
REMARK    1  A    between atoms: C_1  and  N_2
REMARK    2  A    between atoms: C_1  and  C_16
REMARK    3  A    between atoms: C_6  and  C_10
REMARK    4  A    between atoms: C_16  and  C_17
REMARK    5  A    between atoms: C_17  and  C_21
REMARK                            x       y       z     vdW  Elec       q    Type
REMARK                         _______ _______ _______ _____ _____    ______ ____
ROOT
ATOM      1  C   UNL     1      35.114 -15.987 -24.369  0.00  0.00    -0.076 C 
ENDROOT
BRANCH   1   2
ATOM      2  N   UNL     1      35.256 -17.106 -23.440  0.00  0.00    +0.390 N 
ATOM      3  C   UNL     1      34.181 -18.086 -23.625  0.00  0.00    -0.072 C 
ATOM      4  C   UNL     1      34.450 -19.324 -22.755  0.00  0.00    +0.003 C 
ATOM      5  C   UNL     1      35.289 -16.627 -22.049  0.00  0.00    -0.051 C 
ATOM      6  C   UNL     1      34.810 -18.977 -21.328  0.00  0.00    -0.031 C 
ATOM      7  C   UNL     1      35.194 -17.723 -21.022  0.00  0.00    -0.053 C 
ATOM      8  H   UNL     1      36.142 -17.569 -23.641  0.00  0.00    -0.079 HD
BRANCH   6  10
ATOM      9  F   UNL     1      34.523 -23.023 -17.445  0.00  0.00    -0.204 F 
ATOM     10  C   UNL     1      34.733 -20.046 -20.303  0.00  0.00    -0.004 C 
ATOM     11  C   UNL     1      33.492 -20.525 -19.882  0.00  0.00    +0.002 C 
ATOM     12  C   UNL     1      35.904 -20.576 -19.757  0.00  0.00    +0.002 C 
ATOM     13  C   UNL     1      33.420 -21.531 -18.918  0.00  0.00    +0.030 C 
ATOM     14  C   UNL     1      35.832 -21.582 -18.792  0.00  0.00    +0.030 C 
ATOM     15  C   UNL     1      34.591 -22.059 -18.372  0.00  0.00    +0.140 C 
ENDBRANCH   6  10
ENDBRANCH   1   2
BRANCH   1  16
ATOM     16  C   UNL     1      33.787 -15.265 -24.128  0.00  0.00    -0.014 C 
BRANCH  16  17
ATOM     17  C   UNL     1      33.908 -13.757 -24.278  0.00  0.00    +0.074 C 
BRANCH  17  21
ATOM     18  O   UNL     1      32.241 -13.797 -19.886  0.00  0.00    -0.209 OA
ATOM     19  N   UNL     1      33.129 -11.702 -23.186  0.00  0.00    -0.290 N 
ATOM     20  N   UNL     1      33.055 -13.784 -22.028  0.00  0.00    -0.322 NA
ATOM     21  C   UNL     1      33.326 -13.058 -23.074  0.00  0.00    +0.173 C 
ATOM     22  C   UNL     1      32.593 -11.002 -22.103  0.00  0.00    +0.058 C 
ATOM     23  C   UNL     1      32.273 -11.705 -20.934  0.00  0.00    +0.108 C 
ATOM     24  C   UNL     1      32.372  -9.623 -22.155  0.00  0.00    -0.008 C 
ATOM     25  C   UNL     1      32.521 -13.176 -20.906  0.00  0.00    +0.207 C 
ATOM     26  C   UNL     1      31.736 -11.042 -19.827  0.00  0.00    +0.014 C 
ATOM     27  C   UNL     1      31.835  -8.958 -21.051  0.00  0.00    -0.003 C 
ATOM     28  C   UNL     1      31.518  -9.666 -19.891  0.00  0.00    +0.001 C 
ATOM     29  C   UNL     1      32.696  -8.826 -23.376  0.00  0.00    +0.032 C 
ATOM     30  H   UNL     1      33.363 -11.231 -24.018  0.00  0.00    +0.154 HD
ENDBRANCH  17  21
ENDBRANCH  16  17
ENDBRANCH   1  16
TORSDOF 5
ENDMDL
MODEL 4
REMARK VINA RESULT:     -11.5      1.715      2.706
REMARK  Name = 448889
REMARK  5 active torsions:
REMARK  status: ('A' for Active; 'I' for Inactive)
REMARK    1  A    between atoms: C_1  and  N_2
REMARK    2  A    between atoms: C_1  and  C_16
REMARK    3  A    between atoms: C_6  and  C_10
REMARK    4  A    between atoms: C_16  and  C_17
REMARK    5  A    between atoms: C_17  and  C_21
REMARK                            x       y       z     vdW  Elec       q    Type
REMARK                         _______ _______ _______ _____ _____    ______ ____
ROOT
ATOM      1  C   UNL     1      33.598 -13.718 -24.353  0.00  0.00    -0.076 C 
ENDROOT
BRANCH   1   2
ATOM      2  N   UNL     1      33.798 -14.908 -23.530  0.00  0.00    +0.390 N 
ATOM      3  C   UNL     1      34.616 -14.605 -22.351  0.00  0.00    -0.072 C 
ATOM      4  C   UNL     1      34.667 -15.829 -21.424  0.00  0.00    +0.003 C 
ATOM      5  C   UNL     1      34.405 -15.991 -24.319  0.00  0.00    -0.051 C 
ATOM      6  C   UNL     1      34.988 -17.113 -22.157  0.00  0.00    -0.031 C 
ATOM      7  C   UNL     1      34.863 -17.166 -23.497  0.00  0.00    -0.053 C 
ATOM      8  H   UNL     1      32.883 -15.221 -23.206  0.00  0.00    -0.079 HD
BRANCH   6  10
ATOM      9  F   UNL     1      36.656 -21.554 -19.153  0.00  0.00    -0.204 F 
ATOM     10  C   UNL     1      35.429 -18.284 -21.363  0.00  0.00    -0.004 C 
ATOM     11  C   UNL     1      36.775 -18.434 -21.022  0.00  0.00    +0.002 C 
ATOM     12  C   UNL     1      34.499 -19.243 -20.955  0.00  0.00    +0.002 C 
ATOM     13  C   UNL     1      37.189 -19.537 -20.275  0.00  0.00    +0.030 C 
ATOM     14  C   UNL     1      34.914 -20.346 -20.208  0.00  0.00    +0.030 C 
ATOM     15  C   UNL     1      36.258 -20.494 -19.869  0.00  0.00    +0.140 C 
ENDBRANCH   6  10
ENDBRANCH   1   2
BRANCH   1  16
ATOM     16  C   UNL     1      34.105 -12.475 -23.616  0.00  0.00    -0.014 C 
BRANCH  16  17
ATOM     17  C   UNL     1      33.827 -11.190 -24.381  0.00  0.00    +0.074 C 
BRANCH  17  21
ATOM     18  O   UNL     1      31.282  -9.874 -20.658  0.00  0.00    -0.209 OA
ATOM     19  N   UNL     1      33.643  -8.833 -23.726  0.00  0.00    -0.290 N 
ATOM     20  N   UNL     1      32.521 -10.523 -22.473  0.00  0.00    -0.322 NA
ATOM     21  C   UNL     1      33.284 -10.132 -23.453  0.00  0.00    +0.173 C 
ATOM     22  C   UNL     1      33.170  -7.810 -22.901  0.00  0.00    +0.058 C 
ATOM     23  C   UNL     1      32.343  -8.141 -21.819  0.00  0.00    +0.108 C 
ATOM     24  C   UNL     1      33.500  -6.471 -23.125  0.00  0.00    -0.008 C 
ATOM     25  C   UNL     1      32.007  -9.578 -21.602  0.00  0.00    +0.207 C 
ATOM     26  C   UNL     1      31.849  -7.148 -20.968  0.00  0.00    +0.014 C 
ATOM     27  C   UNL     1      33.009  -5.477 -22.277  0.00  0.00    -0.003 C 
ATOM     28  C   UNL     1      32.185  -5.815 -21.203  0.00  0.00    +0.001 C 
ATOM     29  C   UNL     1      34.378  -6.064 -24.263  0.00  0.00    +0.032 C 
ATOM     30  H   UNL     1      34.224  -8.627 -24.492  0.00  0.00    +0.154 HD
ENDBRANCH  17  21
ENDBRANCH  16  17
ENDBRANCH   1  16
TORSDOF 5
ENDMDL
MODEL 5
REMARK VINA RESULT:     -11.4      5.032     11.254
REMARK  Name = 448889
REMARK  5 active torsions:
REMARK  status: ('A' for Active; 'I' for Inactive)
REMARK    1  A    between atoms: C_1  and  N_2
REMARK    2  A    between atoms: C_1  and  C_16
REMARK    3  A    between atoms: C_6  and  C_10
REMARK    4  A    between atoms: C_16  and  C_17
REMARK    5  A    between atoms: C_17  and  C_21
REMARK                            x       y       z     vdW  Elec       q    Type
REMARK                         _______ _______ _______ _____ _____    ______ ____
ROOT
ATOM      1  C   UNL     1      36.423 -21.324 -19.220  0.00  0.00    -0.076 C 
ENDROOT
BRANCH   1   2
ATOM      2  N   UNL     1      35.910 -20.102 -19.835  0.00  0.00    +0.390 N 
ATOM      3  C   UNL     1      34.968 -20.408 -20.916  0.00  0.00    -0.072 C 
ATOM      4  C   UNL     1      34.322 -19.112 -21.428  0.00  0.00    +0.003 C 
ATOM      5  C   UNL     1      37.014 -19.265 -20.330  0.00  0.00    -0.051 C 
ATOM      6  C   UNL     1      35.329 -18.017 -21.700  0.00  0.00    -0.031 C 
ATOM      7  C   UNL     1      36.570 -18.108 -21.185  0.00  0.00    -0.053 C 
ATOM      8  H   UNL     1      35.407 -19.578 -19.118  0.00  0.00    -0.079 HD
BRANCH   6  10
ATOM      9  F   UNL     1      33.730 -13.650 -24.846  0.00  0.00    -0.204 F 
ATOM     10  C   UNL     1      34.907 -16.863 -22.530  0.00  0.00    -0.004 C 
ATOM     11  C   UNL     1      34.847 -15.584 -21.974  0.00  0.00    +0.002 C 
ATOM     12  C   UNL     1      34.570 -17.053 -23.872  0.00  0.00    +0.002 C 
ATOM     13  C   UNL     1      34.450 -14.498 -22.755  0.00  0.00    +0.030 C 
ATOM     14  C   UNL     1      34.173 -15.968 -24.653  0.00  0.00    +0.030 C 
ATOM     15  C   UNL     1      34.112 -14.691 -24.095  0.00  0.00    +0.140 C 
ENDBRANCH   6  10
ENDBRANCH   1   2
BRANCH   1  16
ATOM     16  C   UNL     1      35.494 -21.778 -18.091  0.00  0.00    -0.014 C 
BRANCH  16  17
ATOM     17  C   UNL     1      34.192 -22.367 -18.608  0.00  0.00    +0.074 C 
BRANCH  17  21
ATOM     18  O   UNL     1      29.902 -22.377 -16.694  0.00  0.00    -0.209 OA
ATOM     19  N   UNL     1      33.810 -23.191 -16.329  0.00  0.00    -0.290 N 
ATOM     20  N   UNL     1      31.992 -22.369 -17.633  0.00  0.00    -0.322 NA
ATOM     21  C   UNL     1      33.251 -22.652 -17.464  0.00  0.00    +0.173 C 
ATOM     22  C   UNL     1      32.988 -23.476 -15.237  0.00  0.00    +0.058 C 
ATOM     23  C   UNL     1      31.616 -23.204 -15.333  0.00  0.00    +0.108 C 
ATOM     24  C   UNL     1      33.496 -24.025 -14.056  0.00  0.00    -0.008 C 
ATOM     25  C   UNL     1      31.101 -22.620 -16.604  0.00  0.00    +0.207 C 
ATOM     26  C   UNL     1      30.758 -23.476 -14.263  0.00  0.00    +0.014 C 
ATOM     27  C   UNL     1      32.641 -24.298 -12.986  0.00  0.00    -0.003 C 
ATOM     28  C   UNL     1      31.278 -24.023 -13.090  0.00  0.00    +0.001 C 
ATOM     29  C   UNL     1      34.949 -24.335 -13.902  0.00  0.00    +0.032 C 
ATOM     30  H   UNL     1      34.776 -23.372 -16.287  0.00  0.00    +0.154 HD
ENDBRANCH  17  21
ENDBRANCH  16  17
ENDBRANCH   1  16
TORSDOF 5
ENDMDL
MODEL 6
REMARK VINA RESULT:     -11.4      3.358      6.046
REMARK  Name = 448889
REMARK  5 active torsions:
REMARK  status: ('A' for Active; 'I' for Inactive)
REMARK    1  A    between atoms: C_1  and  N_2
REMARK    2  A    between atoms: C_1  and  C_16
REMARK    3  A    between atoms: C_6  and  C_10
REMARK    4  A    between atoms: C_16  and  C_17
REMARK    5  A    between atoms: C_17  and  C_21
REMARK                            x       y       z     vdW  Elec       q    Type
REMARK                         _______ _______ _______ _____ _____    ______ ____
ROOT
ATOM      1  C   UNL     1      36.113 -20.979 -20.082  0.00  0.00    -0.076 C 
ENDROOT
BRANCH   1   2
ATOM      2  N   UNL     1      35.339 -21.794 -19.148  0.00  0.00    +0.390 N 
ATOM      3  C   UNL     1      33.967 -21.292 -19.019  0.00  0.00    -0.072 C 
ATOM      4  C   UNL     1      33.135 -22.261 -18.166  0.00  0.00    +0.003 C 
ATOM      5  C   UNL     1      35.998 -21.847 -17.833  0.00  0.00    -0.051 C 
ATOM      6  C   UNL     1      33.829 -22.665 -16.885  0.00  0.00    -0.031 C 
ATOM      7  C   UNL     1      35.154 -22.463 -16.750  0.00  0.00    -0.053 C 
ATOM      8  H   UNL     1      35.293 -22.741 -19.523  0.00  0.00    -0.079 HD
BRANCH   6  10
ATOM      9  F   UNL     1      30.751 -25.011 -12.817  0.00  0.00    -0.204 F 
ATOM     10  C   UNL     1      33.017 -23.284 -15.810  0.00  0.00    -0.004 C 
ATOM     11  C   UNL     1      33.635 -23.773 -14.657  0.00  0.00    +0.002 C 
ATOM     12  C   UNL     1      31.630 -23.380 -15.948  0.00  0.00    +0.002 C 
ATOM     13  C   UNL     1      32.870 -24.356 -13.646  0.00  0.00    +0.030 C 
ATOM     14  C   UNL     1      30.866 -23.962 -14.936  0.00  0.00    +0.030 C 
ATOM     15  C   UNL     1      31.485 -24.451 -13.786  0.00  0.00    +0.140 C 
ENDBRANCH   6  10
ENDBRANCH   1   2
BRANCH   1  16
ATOM     16  C   UNL     1      35.294 -19.766 -20.530  0.00  0.00    -0.014 C 
BRANCH  16  17
ATOM     17  C   UNL     1      36.148 -18.523 -20.718  0.00  0.00    +0.074 C 
BRANCH  17  21
ATOM     18  O   UNL     1      34.613 -17.599 -25.061  0.00  0.00    -0.209 OA
ATOM     19  N   UNL     1      35.168 -16.348 -21.293  0.00  0.00    -0.290 N 
ATOM     20  N   UNL     1      35.364 -18.056 -22.945  0.00  0.00    -0.322 NA
ATOM     21  C   UNL     1      35.521 -17.602 -21.735  0.00  0.00    +0.173 C 
ATOM     22  C   UNL     1      34.583 -15.452 -22.190  0.00  0.00    +0.058 C 
ATOM     23  C   UNL     1      34.374 -15.859 -23.515  0.00  0.00    +0.108 C 
ATOM     24  C   UNL     1      34.200 -14.165 -21.801  0.00  0.00    -0.008 C 
ATOM     25  C   UNL     1      34.790 -17.238 -23.903  0.00  0.00    +0.207 C 
ATOM     26  C   UNL     1      33.790 -14.993 -24.444  0.00  0.00    +0.014 C 
ATOM     27  C   UNL     1      33.617 -13.298 -22.727  0.00  0.00    -0.003 C 
ATOM     28  C   UNL     1      33.414 -13.711 -24.044  0.00  0.00    +0.001 C 
ATOM     29  C   UNL     1      34.400 -13.682 -20.402  0.00  0.00    +0.032 C 
ATOM     30  H   UNL     1      35.325 -16.087 -20.358  0.00  0.00    +0.154 HD
ENDBRANCH  17  21
ENDBRANCH  16  17
ENDBRANCH   1  16
TORSDOF 5
ENDMDL
MODEL 7
REMARK VINA RESULT:     -11.4      6.699     12.970
REMARK  Name = 448889
REMARK  5 active torsions:
REMARK  status: ('A' for Active; 'I' for Inactive)
REMARK    1  A    between atoms: C_1  and  N_2
REMARK    2  A    between atoms: C_1  and  C_16
REMARK    3  A    between atoms: C_6  and  C_10
REMARK    4  A    between atoms: C_16  and  C_17
REMARK    5  A    between atoms: C_17  and  C_21
REMARK                            x       y       z     vdW  Elec       q    Type
REMARK                         _______ _______ _______ _____ _____    ______ ____
ROOT
ATOM      1  C   UNL     1      33.494 -23.478 -17.195  0.00  0.00    -0.076 C 
ENDROOT
BRANCH   1   2
ATOM      2  N   UNL     1      33.791 -22.657 -18.366  0.00  0.00    +0.390 N 
ATOM      3  C   UNL     1      35.083 -21.978 -18.222  0.00  0.00    -0.072 C 
ATOM      4  C   UNL     1      35.444 -21.261 -19.532  0.00  0.00    +0.003 C 
ATOM      5  C   UNL     1      32.716 -21.682 -18.607  0.00  0.00    -0.051 C 
ATOM      6  C   UNL     1      34.305 -20.436 -20.088  0.00  0.00    -0.031 C 
ATOM      7  C   UNL     1      33.051 -20.645 -19.644  0.00  0.00    -0.053 C 
ATOM      8  H   UNL     1      33.850 -23.276 -19.175  0.00  0.00    -0.079 HD
BRANCH   6  10
ATOM      9  F   UNL     1      35.467 -16.574 -23.995  0.00  0.00    -0.204 F 
ATOM     10  C   UNL     1      34.613 -19.416 -21.119  0.00  0.00    -0.004 C 
ATOM     11  C   UNL     1      35.419 -18.321 -20.803  0.00  0.00    +0.002 C 
ATOM     12  C   UNL     1      34.097 -19.549 -22.410  0.00  0.00    +0.002 C 
ATOM     13  C   UNL     1      35.709 -17.361 -21.774  0.00  0.00    +0.030 C 
ATOM     14  C   UNL     1      34.386 -18.590 -23.380  0.00  0.00    +0.030 C 
ATOM     15  C   UNL     1      35.191 -17.496 -23.063  0.00  0.00    +0.140 C 
ENDBRANCH   6  10
ENDBRANCH   1   2
BRANCH   1  16
ATOM     16  C   UNL     1      34.118 -22.857 -15.942  0.00  0.00    -0.014 C 
BRANCH  16  17
ATOM     17  C   UNL     1      34.089 -23.799 -14.749  0.00  0.00    +0.074 C 
BRANCH  17  21
ATOM     18  O   UNL     1      37.993 -22.810 -12.330  0.00  0.00    -0.209 OA
ATOM     19  N   UNL     1      36.030 -25.300 -14.782  0.00  0.00    -0.290 N 
ATOM     20  N   UNL     1      36.086 -23.286 -13.508  0.00  0.00    -0.322 NA
ATOM     21  C   UNL     1      35.492 -24.128 -14.303  0.00  0.00    +0.173 C 
ATOM     22  C   UNL     1      37.325 -25.657 -14.403  0.00  0.00    +0.058 C 
ATOM     23  C   UNL     1      38.038 -24.808 -13.546  0.00  0.00    +0.108 C 
ATOM     24  C   UNL     1      37.926 -26.836 -14.854  0.00  0.00    -0.008 C 
ATOM     25  C   UNL     1      37.373 -23.558 -13.078  0.00  0.00    +0.207 C 
ATOM     26  C   UNL     1      39.337 -25.130 -13.141  0.00  0.00    +0.014 C 
ATOM     27  C   UNL     1      39.223 -27.160 -14.452  0.00  0.00    -0.003 C 
ATOM     28  C   UNL     1      39.926 -26.308 -13.600  0.00  0.00    +0.001 C 
ATOM     29  C   UNL     1      37.209 -27.776 -15.769  0.00  0.00    +0.032 C 
ATOM     30  H   UNL     1      35.508 -25.879 -15.383  0.00  0.00    +0.154 HD
ENDBRANCH  17  21
ENDBRANCH  16  17
ENDBRANCH   1  16
TORSDOF 5
ENDMDL
MODEL 8
REMARK VINA RESULT:     -11.3      2.119      3.524
REMARK  Name = 448889
REMARK  5 active torsions:
REMARK  status: ('A' for Active; 'I' for Inactive)
REMARK    1  A    between atoms: C_1  and  N_2
REMARK    2  A    between atoms: C_1  and  C_16
REMARK    3  A    between atoms: C_6  and  C_10
REMARK    4  A    between atoms: C_16  and  C_17
REMARK    5  A    between atoms: C_17  and  C_21
REMARK                            x       y       z     vdW  Elec       q    Type
REMARK                         _______ _______ _______ _____ _____    ______ ____
ROOT
ATOM      1  C   UNL     1      33.579 -13.701 -24.468  0.00  0.00    -0.076 C 
ENDROOT
BRANCH   1   2
ATOM      2  N   UNL     1      33.783 -14.880 -23.630  0.00  0.00    +0.390 N 
ATOM      3  C   UNL     1      34.635 -14.569 -22.478  0.00  0.00    -0.072 C 
ATOM      4  C   UNL     1      34.693 -15.777 -21.531  0.00  0.00    +0.003 C 
ATOM      5  C   UNL     1      34.354 -15.985 -24.415  0.00  0.00    -0.051 C 
ATOM      6  C   UNL     1      34.977 -17.077 -22.249  0.00  0.00    -0.031 C 
ATOM      7  C   UNL     1      34.816 -17.152 -23.584  0.00  0.00    -0.053 C 
ATOM      8  H   UNL     1      32.872 -15.174 -23.277  0.00  0.00    -0.079 HD
BRANCH   6  10
ATOM      9  F   UNL     1      36.664 -21.486 -19.208  0.00  0.00    -0.204 F 
ATOM     10  C   UNL     1      35.421 -18.242 -21.446  0.00  0.00    -0.004 C 
ATOM     11  C   UNL     1      34.497 -19.204 -21.035  0.00  0.00    +0.002 C 
ATOM     12  C   UNL     1      36.767 -18.379 -21.100  0.00  0.00    +0.002 C 
ATOM     13  C   UNL     1      34.916 -20.300 -20.280  0.00  0.00    +0.030 C 
ATOM     14  C   UNL     1      37.186 -19.475 -20.345  0.00  0.00    +0.030 C 
ATOM     15  C   UNL     1      36.261 -20.435 -19.934  0.00  0.00    +0.140 C 
ENDBRANCH   6  10
ENDBRANCH   1   2
BRANCH   1  16
ATOM     16  C   UNL     1      33.872 -12.428 -23.670  0.00  0.00    -0.014 C 
BRANCH  16  17
ATOM     17  C   UNL     1      33.862 -11.180 -24.539  0.00  0.00    +0.074 C 
BRANCH  17  21
ATOM     18  O   UNL     1      34.765  -6.660 -23.630  0.00  0.00    -0.209 OA
ATOM     19  N   UNL     1      32.945 -10.067 -22.555  0.00  0.00    -0.290 N 
ATOM     20  N   UNL     1      34.329  -8.865 -24.079  0.00  0.00    -0.322 NA
ATOM     21  C   UNL     1      33.717  -9.944 -23.686  0.00  0.00    +0.173 C 
ATOM     22  C   UNL     1      32.775  -8.955 -21.726  0.00  0.00    +0.058 C 
ATOM     23  C   UNL     1      33.397  -7.749 -22.075  0.00  0.00    +0.108 C 
ATOM     24  C   UNL     1      32.001  -9.015 -20.564  0.00  0.00    -0.008 C 
ATOM     25  C   UNL     1      34.216  -7.712 -23.321  0.00  0.00    +0.207 C 
ATOM     26  C   UNL     1      33.251  -6.613 -21.274  0.00  0.00    +0.014 C 
ATOM     27  C   UNL     1      31.853  -7.882 -19.762  0.00  0.00    -0.003 C 
ATOM     28  C   UNL     1      32.477  -6.686 -20.115  0.00  0.00    +0.001 C 
ATOM     29  C   UNL     1      31.315 -10.276 -20.148  0.00  0.00    +0.032 C 
ATOM     30  H   UNL     1      32.519 -10.925 -22.332  0.00  0.00    +0.154 HD
ENDBRANCH  17  21
ENDBRANCH  16  17
ENDBRANCH   1  16
TORSDOF 5
ENDMDL
MODEL 9
REMARK VINA RESULT:     -11.2      5.870     11.526
REMARK  Name = 448889
REMARK  5 active torsions:
REMARK  status: ('A' for Active; 'I' for Inactive)
REMARK    1  A    between atoms: C_1  and  N_2
REMARK    2  A    between atoms: C_1  and  C_16
REMARK    3  A    between atoms: C_6  and  C_10
REMARK    4  A    between atoms: C_16  and  C_17
REMARK    5  A    between atoms: C_17  and  C_21
REMARK                            x       y       z     vdW  Elec       q    Type
REMARK                         _______ _______ _______ _____ _____    ______ ____
ROOT
ATOM      1  C   UNL     1      36.519 -21.715 -18.168  0.00  0.00    -0.076 C 
ENDROOT
BRANCH   1   2
ATOM      2  N   UNL     1      36.069 -20.593 -18.987  0.00  0.00    +0.390 N 
ATOM      3  C   UNL     1      35.001 -21.002 -19.905  0.00  0.00    -0.072 C 
ATOM      4  C   UNL     1      34.436 -19.771 -20.630  0.00  0.00    +0.003 C 
ATOM      5  C   UNL     1      37.195 -20.005 -19.730  0.00  0.00    -0.051 C 
ATOM      6  C   UNL     1      35.512 -18.876 -21.203  0.00  0.00    -0.031 C 
ATOM      7  C   UNL     1      36.783 -19.002 -20.774  0.00  0.00    -0.053 C 
ATOM      8  H   UNL     1      35.690 -19.881 -18.362  0.00  0.00    -0.079 HD
BRANCH   6  10
ATOM      9  F   UNL     1      34.041 -15.084 -25.073  0.00  0.00    -0.204 F 
ATOM     10  C   UNL     1      35.124 -17.875 -22.224  0.00  0.00    -0.004 C 
ATOM     11  C   UNL     1      35.291 -16.512 -21.969  0.00  0.00    +0.002 C 
ATOM     12  C   UNL     1      34.592 -18.291 -23.446  0.00  0.00    +0.002 C 
ATOM     13  C   UNL     1      34.926 -15.569 -22.930  0.00  0.00    +0.030 C 
ATOM     14  C   UNL     1      34.227 -17.349 -24.408  0.00  0.00    +0.030 C 
ATOM     15  C   UNL     1      34.393 -15.988 -24.150  0.00  0.00    +0.140 C 
ENDBRANCH   6  10
ENDBRANCH   1   2
BRANCH   1  16
ATOM     16  C   UNL     1      37.167 -21.203 -16.879  0.00  0.00    -0.014 C 
BRANCH  16  17
ATOM     17  C   UNL     1      37.547 -22.329 -15.931  0.00  0.00    +0.074 C 
BRANCH  17  21
ATOM     18  O   UNL     1      35.514 -24.102 -12.084  0.00  0.00    -0.209 OA
ATOM     19  N   UNL     1      35.135 -22.773 -15.848  0.00  0.00    -0.290 N 
ATOM     20  N   UNL     1      36.512 -23.237 -13.958  0.00  0.00    -0.322 NA
ATOM     21  C   UNL     1      36.335 -22.815 -15.176  0.00  0.00    +0.173 C 
ATOM     22  C   UNL     1      33.979 -23.210 -15.199  0.00  0.00    +0.058 C 
ATOM     23  C   UNL     1      34.077 -23.680 -13.882  0.00  0.00    +0.108 C 
ATOM     24  C   UNL     1      32.730 -23.189 -15.827  0.00  0.00    -0.008 C 
ATOM     25  C   UNL     1      35.421 -23.689 -13.236  0.00  0.00    +0.207 C 
ATOM     26  C   UNL     1      32.943 -24.125 -13.197  0.00  0.00    +0.014 C 
ATOM     27  C   UNL     1      31.596 -23.634 -15.146  0.00  0.00    -0.003 C 
ATOM     28  C   UNL     1      31.703 -24.101 -13.835  0.00  0.00    +0.001 C 
ATOM     29  C   UNL     1      32.570 -22.698 -17.229  0.00  0.00    +0.032 C 
ATOM     30  H   UNL     1      35.093 -22.438 -16.772  0.00  0.00    +0.154 HD
ENDBRANCH  17  21
ENDBRANCH  16  17
ENDBRANCH   1  16
TORSDOF 5
ENDMDL
