MODEL 1
REMARK VINA RESULT:     -11.9      0.000      0.000
REMARK  Name = 1712
REMARK  5 active torsions:
REMARK  status: ('A' for Active; 'I' for Inactive)
REMARK    1  A    between atoms: C_1  and  N_18
REMARK    2  A    between atoms: C_2  and  S_7
REMARK    3  A    between atoms: S_7  and  N_10
REMARK    4  A    between atoms: N_18  and  C_20
REMARK    5  A    between atoms: C_20  and  C_26
REMARK                            x       y       z     vdW  Elec       q    Type
REMARK                         _______ _______ _______ _____ _____    ______ ____
ROOT
ATOM      1  C   UNL     1      35.328 -19.151 -20.663  0.00  0.00    +0.045 C 
ATOM      2  C   UNL     1      34.727 -17.541 -22.891  0.00  0.00    +0.125 C 
ATOM      3  C   UNL     1      35.641 -17.779 -20.668  0.00  0.00    +0.016 C 
ATOM      4  C   UNL     1      34.707 -19.697 -21.801  0.00  0.00    +0.016 C 
ATOM      5  C   UNL     1      35.343 -16.981 -21.772  0.00  0.00    +0.021 C 
ATOM      6  C   UNL     1      34.409 -18.899 -22.905  0.00  0.00    +0.021 C 
ENDROOT
BRANCH   2   7
ATOM      7  S   UNL     1      34.355 -16.543 -24.274  0.00  0.00    +0.075 S 
ATOM      8  O   UNL     1      33.544 -17.336 -25.191  0.00  0.00    -0.150 OA
ATOM      9  O   UNL     1      35.591 -15.946 -24.765  0.00  0.00    -0.150 OA
BRANCH   7  10
ATOM     10  N   UNL     1      33.351 -15.315 -23.599  0.00  0.00    -0.199 N 
ATOM     11  H   UNL     1      32.677 -15.531 -22.915  0.00  0.00    +0.175 HD
ATOM     12  N   UNL     1      33.174 -13.740 -25.347  0.00  0.00    -0.228 NA
ATOM     13  C   UNL     1      33.526 -13.966 -24.066  0.00  0.00    +0.147 C 
ATOM     14  C   UNL     1      34.028 -13.009 -23.206  0.00  0.00    +0.036 C 
ATOM     15  C   UNL     1      34.180 -11.718 -23.700  0.00  0.00    +0.005 C 
ATOM     16  C   UNL     1      33.336 -12.474 -25.792  0.00  0.00    +0.100 C 
ATOM     17  C   UNL     1      33.830 -11.438 -25.016  0.00  0.00    +0.021 C 
ENDBRANCH   7  10
ENDBRANCH   2   7
BRANCH   1  18
ATOM     18  N   UNL     1      35.623 -19.944 -19.565  0.00  0.00    -0.328 N 
ATOM     19  H   UNL     1      35.879 -19.498 -18.725  0.00  0.00    +0.147 HD
BRANCH  18  20
ATOM     20  C   UNL     1      35.580 -21.385 -19.581  0.00  0.00    +0.127 C 
BRANCH  20  26
ATOM     21  S   UNL     1      37.335 -22.162 -16.526  0.00  0.00    -0.104 S 
ATOM     22  O   UNL     1      32.694 -21.635 -20.084  0.00  0.00    -0.210 OA
ATOM     23  N   UNL     1      32.402 -22.408 -17.906  0.00  0.00    -0.333 NA
ATOM     24  N   UNL     1      36.453 -23.053 -14.256  0.00  0.00    -0.262 NA
ATOM     25  C   UNL     1      34.644 -22.275 -17.340  0.00  0.00    +0.033 C 
ATOM     26  C   UNL     1      34.572 -21.861 -18.603  0.00  0.00    +0.092 C 
ATOM     27  C   UNL     1      33.260 -22.603 -16.961  0.00  0.00    +0.142 C 
ATOM     28  C   UNL     1      35.664 -22.447 -16.392  0.00  0.00    +0.114 C 
ATOM     29  C   UNL     1      33.128 -21.942 -18.983  0.00  0.00    +0.202 C 
ATOM     30  C   UNL     1      35.394 -22.916 -15.116  0.00  0.00    +0.069 C 
ATOM     31  C   UNL     1      33.012 -23.102 -15.582  0.00  0.00    +0.034 C 
ATOM     32  C   UNL     1      34.052 -23.238 -14.734  0.00  0.00    +0.018 C 
ATOM     33  C   UNL     1      37.540 -22.681 -14.898  0.00  0.00    +0.183 C 
ENDBRANCH  20  26
ENDBRANCH  18  20
ENDBRANCH   1  18
TORSDOF 5
ENDMDL
MODEL 2
REMARK VINA RESULT:     -11.3      2.447     10.269
REMARK  Name = 1712
REMARK  5 active torsions:
REMARK  status: ('A' for Active; 'I' for Inactive)
REMARK    1  A    between atoms: C_1  and  N_18
REMARK    2  A    between atoms: C_2  and  S_7
REMARK    3  A    between atoms: S_7  and  N_10
REMARK    4  A    between atoms: N_18  and  C_20
REMARK    5  A    between atoms: C_20  and  C_26
REMARK                            x       y       z     vdW  Elec       q    Type
REMARK                         _______ _______ _______ _____ _____    ______ ____
ROOT
ATOM      1  C   UNL     1      35.242 -19.841 -20.392  0.00  0.00    +0.045 C 
ATOM      2  C   UNL     1      34.251 -21.845 -18.683  0.00  0.00    +0.125 C 
ATOM      3  C   UNL     1      33.859 -20.078 -20.284  0.00  0.00    +0.016 C 
ATOM      4  C   UNL     1      36.117 -20.632 -19.626  0.00  0.00    +0.016 C 
ATOM      5  C   UNL     1      33.368 -21.071 -19.436  0.00  0.00    +0.021 C 
ATOM      6  C   UNL     1      35.626 -21.625 -18.778  0.00  0.00    +0.021 C 
ENDROOT
BRANCH   2   7
ATOM      7  S   UNL     1      33.637 -23.088 -17.624  0.00  0.00    +0.075 S 
ATOM      8  O   UNL     1      34.513 -23.155 -16.460  0.00  0.00    -0.150 OA
ATOM      9  O   UNL     1      33.413 -24.299 -18.405  0.00  0.00    -0.150 OA
BRANCH   7  10
ATOM     10  N   UNL     1      32.122 -22.443 -17.115  0.00  0.00    -0.199 N 
ATOM     11  H   UNL     1      31.674 -21.735 -17.633  0.00  0.00    +0.175 HD
ATOM     12  N   UNL     1      32.188 -22.689 -14.770  0.00  0.00    -0.228 NA
ATOM     13  C   UNL     1      31.532 -22.968 -15.913  0.00  0.00    +0.147 C 
ATOM     14  C   UNL     1      30.366 -23.703 -15.994  0.00  0.00    +0.036 C 
ATOM     15  C   UNL     1      29.831 -24.191 -14.807  0.00  0.00    +0.005 C 
ATOM     16  C   UNL     1      31.639 -23.180 -13.637  0.00  0.00    +0.100 C 
ATOM     17  C   UNL     1      30.473 -23.928 -13.602  0.00  0.00    +0.021 C 
ENDBRANCH   7  10
ENDBRANCH   2   7
BRANCH   1  18
ATOM     18  N   UNL     1      35.730 -18.853 -21.234  0.00  0.00    -0.328 N 
ATOM     19  H   UNL     1      36.335 -19.122 -21.964  0.00  0.00    +0.147 HD
BRANCH  18  20
ATOM     20  C   UNL     1      35.406 -17.455 -21.102  0.00  0.00    +0.127 C 
BRANCH  20  26
ATOM     21  S   UNL     1      34.084 -14.145 -20.543  0.00  0.00    -0.104 S 
ATOM     22  O   UNL     1      35.640 -18.863 -23.673  0.00  0.00    -0.210 OA
ATOM     23  N   UNL     1      34.712 -17.016 -24.746  0.00  0.00    -0.333 NA
ATOM     24  N   UNL     1      33.119 -12.411 -22.214  0.00  0.00    -0.262 NA
ATOM     25  C   UNL     1      34.453 -15.765 -22.813  0.00  0.00    +0.033 C 
ATOM     26  C   UNL     1      34.994 -16.916 -22.421  0.00  0.00    +0.092 C 
ATOM     27  C   UNL     1      34.301 -15.887 -24.272  0.00  0.00    +0.142 C 
ATOM     28  C   UNL     1      34.040 -14.580 -22.187  0.00  0.00    +0.114 C 
ATOM     29  C   UNL     1      35.166 -17.735 -23.660  0.00  0.00    +0.202 C 
ATOM     30  C   UNL     1      33.496 -13.530 -22.910  0.00  0.00    +0.069 C 
ATOM     31  C   UNL     1      33.713 -14.738 -25.012  0.00  0.00    +0.034 C 
ATOM     32  C   UNL     1      33.342 -13.636 -24.330  0.00  0.00    +0.018 C 
ATOM     33  C   UNL     1      33.385 -12.623 -20.942  0.00  0.00    +0.183 C 
ENDBRANCH  20  26
ENDBRANCH  18  20
ENDBRANCH   1  18
TORSDOF 5
ENDMDL
MODEL 3
REMARK VINA RESULT:     -11.2      3.468     11.026
REMARK  Name = 1712
REMARK  5 active torsions:
REMARK  status: ('A' for Active; 'I' for Inactive)
REMARK    1  A    between atoms: C_1  and  N_18
REMARK    2  A    between atoms: C_2  and  S_7
REMARK    3  A    between atoms: S_7  and  N_10
REMARK    4  A    between atoms: N_18  and  C_20
REMARK    5  A    between atoms: C_20  and  C_26
REMARK                            x       y       z     vdW  Elec       q    Type
REMARK                         _______ _______ _______ _____ _____    ______ ____
ROOT
ATOM      1  C   UNL     1      34.159 -14.316 -23.638  0.00  0.00    +0.045 C 
ATOM      2  C   UNL     1      34.980 -16.870 -22.789  0.00  0.00    +0.125 C 
ATOM      3  C   UNL     1      34.542 -14.544 -22.304  0.00  0.00    +0.016 C 
ATOM      4  C   UNL     1      34.195 -15.397 -24.537  0.00  0.00    +0.016 C 
ATOM      5  C   UNL     1      34.950 -15.810 -21.883  0.00  0.00    +0.021 C 
ATOM      6  C   UNL     1      34.603 -16.663 -24.116  0.00  0.00    +0.021 C 
ENDROOT
BRANCH   2   7
ATOM      7  S   UNL     1      35.489 -18.455 -22.263  0.00  0.00    +0.075 S 
ATOM      8  O   UNL     1      36.942 -18.438 -22.140  0.00  0.00    -0.150 OA
ATOM      9  O   UNL     1      34.869 -19.454 -23.124  0.00  0.00    -0.150 OA
BRANCH   7  10
ATOM     10  N   UNL     1      34.820 -18.564 -20.679  0.00  0.00    -0.199 N 
ATOM     11  H   UNL     1      34.556 -17.755 -20.184  0.00  0.00    +0.175 HD
ATOM     12  N   UNL     1      35.797 -20.528 -19.813  0.00  0.00    -0.228 NA
ATOM     13  C   UNL     1      34.657 -19.872 -20.102  0.00  0.00    +0.147 C 
ATOM     14  C   UNL     1      33.386 -20.365 -19.884  0.00  0.00    +0.036 C 
ATOM     15  C   UNL     1      33.276 -21.633 -19.324  0.00  0.00    +0.005 C 
ATOM     16  C   UNL     1      35.651 -21.758 -19.271  0.00  0.00    +0.100 C 
ATOM     17  C   UNL     1      34.426 -22.349 -19.008  0.00  0.00    +0.021 C 
ENDBRANCH   7  10
ENDBRANCH   2   7
BRANCH   1  18
ATOM     18  N   UNL     1      33.754 -13.057 -24.056  0.00  0.00    -0.328 N 
ATOM     19  H   UNL     1      34.111 -12.715 -24.908  0.00  0.00    +0.147 HD
BRANCH  18  20
ATOM     20  C   UNL     1      32.844 -12.220 -23.316  0.00  0.00    +0.127 C 
BRANCH  20  26
ATOM     21  S   UNL     1      31.615 -10.600 -20.335  0.00  0.00    -0.104 S 
ATOM     22  O   UNL     1      34.495 -11.024 -25.435  0.00  0.00    -0.210 OA
ATOM     23  N   UNL     1      34.483  -9.004 -24.276  0.00  0.00    -0.333 NA
ATOM     24  N   UNL     1      31.925  -8.167 -19.490  0.00  0.00    -0.262 NA
ATOM     25  C   UNL     1      33.185  -9.782 -22.522  0.00  0.00    +0.033 C 
ATOM     26  C   UNL     1      33.327 -10.818 -23.345  0.00  0.00    +0.092 C 
ATOM     27  C   UNL     1      33.927  -8.680 -23.156  0.00  0.00    +0.142 C 
ATOM     28  C   UNL     1      32.539  -9.546 -21.299  0.00  0.00    +0.114 C 
ATOM     29  C   UNL     1      34.164 -10.330 -24.484  0.00  0.00    +0.202 C 
ATOM     30  C   UNL     1      32.587  -8.306 -20.683  0.00  0.00    +0.069 C 
ATOM     31  C   UNL     1      33.955  -7.365 -22.462  0.00  0.00    +0.034 C 
ATOM     32  C   UNL     1      33.305  -7.226 -21.289  0.00  0.00    +0.018 C 
ATOM     33  C   UNL     1      31.369  -9.325 -19.204  0.00  0.00    +0.183 C 
ENDBRANCH  20  26
ENDBRANCH  18  20
ENDBRANCH   1  18
TORSDOF 5
ENDMDL
MODEL 4
REMARK VINA RESULT:     -10.7      4.214      7.290
REMARK  Name = 1712
REMARK  5 active torsions:
REMARK  status: ('A' for Active; 'I' for Inactive)
REMARK    1  A    between atoms: C_1  and  N_18
REMARK    2  A    between atoms: C_2  and  S_7
REMARK    3  A    between atoms: S_7  and  N_10
REMARK    4  A    between atoms: N_18  and  C_20
REMARK    5  A    between atoms: C_20  and  C_26
REMARK                            x       y       z     vdW  Elec       q    Type
REMARK                         _______ _______ _______ _____ _____    ______ ____
ROOT
ATOM      1  C   UNL     1      34.744 -23.046 -14.696  0.00  0.00    +0.045 C 
ATOM      2  C   UNL     1      34.417 -22.447 -17.426  0.00  0.00    +0.125 C 
ATOM      3  C   UNL     1      33.512 -23.263 -15.339  0.00  0.00    +0.016 C 
ATOM      4  C   UNL     1      35.808 -22.521 -15.451  0.00  0.00    +0.016 C 
ATOM      5  C   UNL     1      33.350 -22.966 -16.693  0.00  0.00    +0.021 C 
ATOM      6  C   UNL     1      35.646 -22.225 -16.804  0.00  0.00    +0.021 C 
ENDROOT
BRANCH   2   7
ATOM      7  S   UNL     1      34.215 -22.074 -19.119  0.00  0.00    +0.075 S 
ATOM      8  O   UNL     1      32.816 -22.308 -19.462  0.00  0.00    -0.150 OA
ATOM      9  O   UNL     1      35.249 -22.768 -19.876  0.00  0.00    -0.150 OA
BRANCH   7  10
ATOM     10  N   UNL     1      34.502 -20.376 -19.173  0.00  0.00    -0.199 N 
ATOM     11  H   UNL     1      34.400 -19.819 -18.368  0.00  0.00    +0.175 HD
ATOM     12  N   UNL     1      33.955 -19.805 -21.396  0.00  0.00    -0.228 NA
ATOM     13  C   UNL     1      34.893 -19.796 -20.430  0.00  0.00    +0.147 C 
ATOM     14  C   UNL     1      36.166 -19.279 -20.572  0.00  0.00    +0.036 C 
ATOM     15  C   UNL     1      36.502 -18.728 -21.804  0.00  0.00    +0.005 C 
ATOM     16  C   UNL     1      34.317 -19.262 -22.579  0.00  0.00    +0.100 C 
ATOM     17  C   UNL     1      35.565 -18.715 -22.831  0.00  0.00    +0.021 C 
ENDBRANCH   7  10
ENDBRANCH   2   7
BRANCH   1  18
ATOM     18  N   UNL     1      34.905 -23.343 -13.351  0.00  0.00    -0.328 N 
ATOM     19  H   UNL     1      34.706 -22.637 -12.693  0.00  0.00    +0.147 HD
BRANCH  18  20
ATOM     20  C   UNL     1      35.350 -24.623 -12.859  0.00  0.00    +0.127 C 
BRANCH  20  26
ATOM     21  S   UNL     1      36.514 -27.161 -15.143  0.00  0.00    -0.104 S 
ATOM     22  O   UNL     1      36.991 -22.885 -11.147  0.00  0.00    -0.210 OA
ATOM     23  N   UNL     1      38.910 -23.906 -11.985  0.00  0.00    -0.333 NA
ATOM     24  N   UNL     1      38.923 -27.933 -15.719  0.00  0.00    -0.262 NA
ATOM     25  C   UNL     1      37.773 -25.352 -13.393  0.00  0.00    +0.033 C 
ATOM     26  C   UNL     1      36.830 -24.637 -12.784  0.00  0.00    +0.092 C 
ATOM     27  C   UNL     1      39.047 -24.852 -12.854  0.00  0.00    +0.142 C 
ATOM     28  C   UNL     1      37.800 -26.382 -14.347  0.00  0.00    +0.114 C 
ATOM     29  C   UNL     1      37.550 -23.698 -11.870  0.00  0.00    +0.202 C 
ATOM     30  C   UNL     1      38.994 -26.931 -14.786  0.00  0.00    +0.069 C 
ATOM     31  C   UNL     1      40.307 -25.467 -13.352  0.00  0.00    +0.034 C 
ATOM     32  C   UNL     1      40.241 -26.453 -14.269  0.00  0.00    +0.018 C 
ATOM     33  C   UNL     1      37.651 -28.142 -15.986  0.00  0.00    +0.183 C 
ENDBRANCH  20  26
ENDBRANCH  18  20
ENDBRANCH   1  18
TORSDOF 5
ENDMDL
MODEL 5
REMARK VINA RESULT:     -10.6      3.537     11.350
REMARK  Name = 1712
REMARK  5 active torsions:
REMARK  status: ('A' for Active; 'I' for Inactive)
REMARK    1  A    between atoms: C_1  and  N_18
REMARK    2  A    between atoms: C_2  and  S_7
REMARK    3  A    between atoms: S_7  and  N_10
REMARK    4  A    between atoms: N_18  and  C_20
REMARK    5  A    between atoms: C_20  and  C_26
REMARK                            x       y       z     vdW  Elec       q    Type
REMARK                         _______ _______ _______ _____ _____    ______ ____
ROOT
ATOM      1  C   UNL     1      34.057 -14.292 -23.455  0.00  0.00    +0.045 C 
ATOM      2  C   UNL     1      34.910 -16.876 -22.740  0.00  0.00    +0.125 C 
ATOM      3  C   UNL     1      34.042 -15.341 -24.392  0.00  0.00    +0.016 C 
ATOM      4  C   UNL     1      34.510 -14.567 -22.152  0.00  0.00    +0.016 C 
ATOM      5  C   UNL     1      34.465 -16.622 -24.038  0.00  0.00    +0.021 C 
ATOM      6  C   UNL     1      34.932 -15.848 -21.798  0.00  0.00    +0.021 C 
ENDROOT
BRANCH   2   7
ATOM      7  S   UNL     1      35.440 -18.479 -22.297  0.00  0.00    +0.075 S 
ATOM      8  O   UNL     1      36.899 -18.480 -22.294  0.00  0.00    -0.150 OA
ATOM      9  O   UNL     1      34.738 -19.449 -23.128  0.00  0.00    -0.150 OA
BRANCH   7  10
ATOM     10  N   UNL     1      34.902 -18.621 -20.666  0.00  0.00    -0.199 N 
ATOM     11  H   UNL     1      34.741 -17.822 -20.114  0.00  0.00    +0.175 HD
ATOM     12  N   UNL     1      35.808 -20.688 -19.976  0.00  0.00    -0.228 NA
ATOM     13  C   UNL     1      34.697 -19.942 -20.134  0.00  0.00    +0.147 C 
ATOM     14  C   UNL     1      33.417 -20.359 -19.826  0.00  0.00    +0.036 C 
ATOM     15  C   UNL     1      33.265 -21.643 -19.314  0.00  0.00    +0.005 C 
ATOM     16  C   UNL     1      35.621 -21.930 -19.478  0.00  0.00    +0.100 C 
ATOM     17  C   UNL     1      34.383 -22.449 -19.134  0.00  0.00    +0.021 C 
ENDBRANCH   7  10
ENDBRANCH   2   7
BRANCH   1  18
ATOM     18  N   UNL     1      33.635 -13.018 -23.807  0.00  0.00    -0.328 N 
ATOM     19  H   UNL     1      32.919 -12.935 -24.478  0.00  0.00    +0.147 HD
BRANCH  18  20
ATOM     20  C   UNL     1      34.187 -11.808 -23.250  0.00  0.00    +0.127 C 
BRANCH  20  26
ATOM     21  S   UNL     1      34.873  -8.413 -24.261  0.00  0.00    -0.104 S 
ATOM     22  O   UNL     1      31.897 -12.764 -21.674  0.00  0.00    -0.210 OA
ATOM     23  N   UNL     1      31.090 -10.582 -21.561  0.00  0.00    -0.333 NA
ATOM     24  N   UNL     1      33.547  -6.226 -23.829  0.00  0.00    -0.262 NA
ATOM     25  C   UNL     1      32.825  -9.659 -22.788  0.00  0.00    +0.033 C 
ATOM     26  C   UNL     1      33.090 -10.962 -22.723  0.00  0.00    +0.092 C 
ATOM     27  C   UNL     1      31.566  -9.483 -22.045  0.00  0.00    +0.142 C 
ATOM     28  C   UNL     1      33.435  -8.532 -23.359  0.00  0.00    +0.114 C 
ATOM     29  C   UNL     1      31.977 -11.571 -21.933  0.00  0.00    +0.202 C 
ATOM     30  C   UNL     1      32.880  -7.269 -23.238  0.00  0.00    +0.069 C 
ATOM     31  C   UNL     1      31.002  -8.111 -21.939  0.00  0.00    +0.034 C 
ATOM     32  C   UNL     1      31.656  -7.084 -22.518  0.00  0.00    +0.018 C 
ATOM     33  C   UNL     1      34.625  -6.716 -24.404  0.00  0.00    +0.183 C 
ENDBRANCH  20  26
ENDBRANCH  18  20
ENDBRANCH   1  18
TORSDOF 5
ENDMDL
MODEL 6
REMARK VINA RESULT:     -10.3      2.913      4.177
REMARK  Name = 1712
REMARK  5 active torsions:
REMARK  status: ('A' for Active; 'I' for Inactive)
REMARK    1  A    between atoms: C_1  and  N_18
REMARK    2  A    between atoms: C_2  and  S_7
REMARK    3  A    between atoms: S_7  and  N_10
REMARK    4  A    between atoms: N_18  and  C_20
REMARK    5  A    between atoms: C_20  and  C_26
REMARK                            x       y       z     vdW  Elec       q    Type
REMARK                         _______ _______ _______ _____ _____    ______ ____
ROOT
ATOM      1  C   UNL     1      33.608 -21.699 -18.941  0.00  0.00    +0.045 C 
ATOM      2  C   UNL     1      35.274 -19.762 -20.120  0.00  0.00    +0.125 C 
ATOM      3  C   UNL     1      33.068 -20.665 -19.727  0.00  0.00    +0.016 C 
ATOM      4  C   UNL     1      35.002 -21.740 -18.759  0.00  0.00    +0.016 C 
ATOM      5  C   UNL     1      33.894 -19.705 -20.312  0.00  0.00    +0.021 C 
ATOM      6  C   UNL     1      35.828 -20.780 -19.344  0.00  0.00    +0.021 C 
ENDROOT
BRANCH   2   7
ATOM      7  S   UNL     1      36.307 -18.560 -20.851  0.00  0.00    +0.075 S 
ATOM      8  O   UNL     1      37.667 -18.793 -20.376  0.00  0.00    -0.150 OA
ATOM      9  O   UNL     1      35.709 -17.246 -20.651  0.00  0.00    -0.150 OA
BRANCH   7  10
ATOM     10  N   UNL     1      36.249 -18.971 -22.523  0.00  0.00    -0.199 N 
ATOM     11  H   UNL     1      36.915 -19.578 -22.919  0.00  0.00    +0.175 HD
ATOM     12  N   UNL     1      35.265 -17.070 -23.514  0.00  0.00    -0.228 NA
ATOM     13  C   UNL     1      35.198 -18.401 -23.323  0.00  0.00    +0.147 C 
ATOM     14  C   UNL     1      34.212 -19.222 -23.835  0.00  0.00    +0.036 C 
ATOM     15  C   UNL     1      33.216 -18.629 -24.603  0.00  0.00    +0.005 C 
ATOM     16  C   UNL     1      34.280 -16.528 -24.265  0.00  0.00    +0.100 C 
ATOM     17  C   UNL     1      33.244 -17.256 -24.827  0.00  0.00    +0.021 C 
ENDBRANCH   7  10
ENDBRANCH   2   7
BRANCH   1  18
ATOM     18  N   UNL     1      32.787 -22.654 -18.361  0.00  0.00    -0.328 N 
ATOM     19  H   UNL     1      31.831 -22.648 -18.595  0.00  0.00    +0.147 HD
BRANCH  18  20
ATOM     20  C   UNL     1      33.253 -23.654 -17.433  0.00  0.00    +0.127 C 
BRANCH  20  26
ATOM     21  S   UNL     1      35.682 -24.658 -14.962  0.00  0.00    -0.104 S 
ATOM     22  O   UNL     1      30.571 -22.553 -16.942  0.00  0.00    -0.210 OA
ATOM     23  N   UNL     1      30.949 -22.708 -14.649  0.00  0.00    -0.333 NA
ATOM     24  N   UNL     1      35.568 -24.612 -12.371  0.00  0.00    -0.262 NA
ATOM     25  C   UNL     1      33.083 -23.586 -14.853  0.00  0.00    +0.033 C 
ATOM     26  C   UNL     1      32.652 -23.408 -16.099  0.00  0.00    +0.092 C 
ATOM     27  C   UNL     1      31.978 -23.132 -13.993  0.00  0.00    +0.142 C 
ATOM     28  C   UNL     1      34.254 -24.069 -14.249  0.00  0.00    +0.114 C 
ATOM     29  C   UNL     1      31.274 -22.841 -15.983  0.00  0.00    +0.202 C 
ATOM     30  C   UNL     1      34.389 -24.125 -12.871  0.00  0.00    +0.069 C 
ATOM     31  C   UNL     1      32.162 -23.208 -12.519  0.00  0.00    +0.034 C 
ATOM     32  C   UNL     1      33.321 -23.686 -12.024  0.00  0.00    +0.018 C 
ATOM     33  C   UNL     1      36.336 -24.929 -13.392  0.00  0.00    +0.183 C 
ENDBRANCH  20  26
ENDBRANCH  18  20
ENDBRANCH   1  18
TORSDOF 5
ENDMDL
MODEL 7
REMARK VINA RESULT:     -10.3      3.166      5.008
REMARK  Name = 1712
REMARK  5 active torsions:
REMARK  status: ('A' for Active; 'I' for Inactive)
REMARK    1  A    between atoms: C_1  and  N_18
REMARK    2  A    between atoms: C_2  and  S_7
REMARK    3  A    between atoms: S_7  and  N_10
REMARK    4  A    between atoms: N_18  and  C_20
REMARK    5  A    between atoms: C_20  and  C_26
REMARK                            x       y       z     vdW  Elec       q    Type
REMARK                         _______ _______ _______ _____ _____    ______ ____
ROOT
ATOM      1  C   UNL     1      34.457 -21.698 -18.938  0.00  0.00    +0.045 C 
ATOM      2  C   UNL     1      35.725 -19.600 -20.319  0.00  0.00    +0.125 C 
ATOM      3  C   UNL     1      33.709 -20.778 -19.696  0.00  0.00    +0.016 C 
ATOM      4  C   UNL     1      35.854 -21.542 -18.887  0.00  0.00    +0.016 C 
ATOM      5  C   UNL     1      34.338 -19.738 -20.381  0.00  0.00    +0.021 C 
ATOM      6  C   UNL     1      36.482 -20.502 -19.572  0.00  0.00    +0.021 C 
ENDROOT
BRANCH   2   7
ATOM      7  S   UNL     1      36.511 -18.298 -21.175  0.00  0.00    +0.075 S 
ATOM      8  O   UNL     1      37.934 -18.351 -20.856  0.00  0.00    -0.150 OA
ATOM      9  O   UNL     1      35.780 -17.063 -20.922  0.00  0.00    -0.150 OA
BRANCH   7  10
ATOM     10  N   UNL     1      36.317 -18.754 -22.826  0.00  0.00    -0.199 N 
ATOM     11  H   UNL     1      36.970 -19.343 -23.269  0.00  0.00    +0.175 HD
ATOM     12  N   UNL     1      35.164 -16.921 -23.762  0.00  0.00    -0.228 NA
ATOM     13  C   UNL     1      35.173 -18.249 -23.537  0.00  0.00    +0.147 C 
ATOM     14  C   UNL     1      34.181 -19.123 -23.937  0.00  0.00    +0.036 C 
ATOM     15  C   UNL     1      33.095 -18.591 -24.622  0.00  0.00    +0.005 C 
ATOM     16  C   UNL     1      34.092 -16.440 -24.429  0.00  0.00    +0.100 C 
ATOM     17  C   UNL     1      33.042 -17.225 -24.877  0.00  0.00    +0.021 C 
ENDBRANCH   7  10
ENDBRANCH   2   7
BRANCH   1  18
ATOM     18  N   UNL     1      33.832 -22.733 -18.258  0.00  0.00    -0.328 N 
ATOM     19  H   UNL     1      34.235 -23.630 -18.307  0.00  0.00    +0.147 HD
BRANCH  18  20
ATOM     20  C   UNL     1      32.625 -22.572 -17.486  0.00  0.00    +0.127 C 
BRANCH  20  26
ATOM     21  S   UNL     1      29.337 -23.449 -16.287  0.00  0.00    -0.104 S 
ATOM     22  O   UNL     1      35.191 -23.025 -16.125  0.00  0.00    -0.210 OA
ATOM     23  N   UNL     1      34.052 -24.009 -14.347  0.00  0.00    -0.333 NA
ATOM     24  N   UNL     1      28.600 -24.608 -14.086  0.00  0.00    -0.262 NA
ATOM     25  C   UNL     1      31.948 -23.729 -15.275  0.00  0.00    +0.033 C 
ATOM     26  C   UNL     1      32.797 -23.215 -16.161  0.00  0.00    +0.092 C 
ATOM     27  C   UNL     1      32.789 -24.208 -14.166  0.00  0.00    +0.142 C 
ATOM     28  C   UNL     1      30.557 -23.893 -15.187  0.00  0.00    +0.114 C 
ATOM     29  C   UNL     1      34.161 -23.388 -15.575  0.00  0.00    +0.202 C 
ATOM     30  C   UNL     1      29.966 -24.491 -14.085  0.00  0.00    +0.069 C 
ATOM     31  C   UNL     1      32.116 -24.845 -13.002  0.00  0.00    +0.034 C 
ATOM     32  C   UNL     1      30.773 -24.961 -13.000  0.00  0.00    +0.018 C 
ATOM     33  C   UNL     1      28.155 -24.086 -15.210  0.00  0.00    +0.183 C 
ENDBRANCH  20  26
ENDBRANCH  18  20
ENDBRANCH   1  18
TORSDOF 5
ENDMDL
MODEL 8
REMARK VINA RESULT:     -10.2      4.774      8.270
REMARK  Name = 1712
REMARK  5 active torsions:
REMARK  status: ('A' for Active; 'I' for Inactive)
REMARK    1  A    between atoms: C_1  and  N_18
REMARK    2  A    between atoms: C_2  and  S_7
REMARK    3  A    between atoms: S_7  and  N_10
REMARK    4  A    between atoms: N_18  and  C_20
REMARK    5  A    between atoms: C_20  and  C_26
REMARK                            x       y       z     vdW  Elec       q    Type
REMARK                         _______ _______ _______ _____ _____    ______ ____
ROOT
ATOM      1  C   UNL     1      32.931 -12.420 -21.971  0.00  0.00    +0.045 C 
ATOM      2  C   UNL     1      32.302  -9.678 -22.003  0.00  0.00    +0.125 C 
ATOM      3  C   UNL     1      33.525 -11.555 -22.908  0.00  0.00    +0.016 C 
ATOM      4  C   UNL     1      32.014 -11.881 -21.052  0.00  0.00    +0.016 C 
ATOM      5  C   UNL     1      33.213 -10.196 -22.923  0.00  0.00    +0.021 C 
ATOM      6  C   UNL     1      31.702 -10.521 -21.067  0.00  0.00    +0.021 C 
ENDROOT
BRANCH   2   7
ATOM      7  S   UNL     1      31.911  -7.977 -22.023  0.00  0.00    +0.075 S 
ATOM      8  O   UNL     1      31.402  -7.621 -20.703  0.00  0.00    -0.150 OA
ATOM      9  O   UNL     1      31.084  -7.702 -23.192  0.00  0.00    -0.150 OA
BRANCH   7  10
ATOM     10  N   UNL     1      33.453  -7.233 -22.220  0.00  0.00    -0.199 N 
ATOM     11  H   UNL     1      34.215  -7.492 -21.654  0.00  0.00    +0.175 HD
ATOM     12  N   UNL     1      32.916  -5.079 -23.018  0.00  0.00    -0.228 NA
ATOM     13  C   UNL     1      33.592  -6.224 -23.235  0.00  0.00    +0.147 C 
ATOM     14  C   UNL     1      34.383  -6.475 -24.339  0.00  0.00    +0.036 C 
ATOM     15  C   UNL     1      34.490  -5.470 -25.295  0.00  0.00    +0.005 C 
ATOM     16  C   UNL     1      33.043  -4.126 -23.968  0.00  0.00    +0.100 C 
ATOM     17  C   UNL     1      33.810  -4.271 -25.113  0.00  0.00    +0.021 C 
ENDBRANCH   7  10
ENDBRANCH   2   7
BRANCH   1  18
ATOM     18  N   UNL     1      33.242 -13.772 -21.955  0.00  0.00    -0.328 N 
ATOM     19  H   UNL     1      32.545 -14.405 -21.664  0.00  0.00    +0.147 HD
BRANCH  18  20
ATOM     20  C   UNL     1      34.526 -14.304 -22.337  0.00  0.00    +0.127 C 
BRANCH  20  26
ATOM     21  S   UNL     1      35.639 -17.250 -20.575  0.00  0.00    -0.104 S 
ATOM     22  O   UNL     1      33.434 -14.172 -25.064  0.00  0.00    -0.210 OA
ATOM     23  N   UNL     1      33.683 -16.480 -25.254  0.00  0.00    -0.333 NA
ATOM     24  N   UNL     1      35.696 -19.735 -21.316  0.00  0.00    -0.262 NA
ATOM     25  C   UNL     1      34.561 -16.766 -23.129  0.00  0.00    +0.033 C 
ATOM     26  C   UNL     1      34.332 -15.460 -23.245  0.00  0.00    +0.092 C 
ATOM     27  C   UNL     1      34.138 -17.349 -24.412  0.00  0.00    +0.142 C 
ATOM     28  C   UNL     1      35.073 -17.617 -22.137  0.00  0.00    +0.114 C 
ATOM     29  C   UNL     1      33.764 -15.260 -24.613  0.00  0.00    +0.202 C 
ATOM     30  C   UNL     1      35.185 -18.983 -22.341  0.00  0.00    +0.069 C 
ATOM     31  C   UNL     1      34.273 -18.819 -24.592  0.00  0.00    +0.034 C 
ATOM     32  C   UNL     1      34.776 -19.562 -23.585  0.00  0.00    +0.018 C 
ATOM     33  C   UNL     1      35.975 -18.919 -20.321  0.00  0.00    +0.183 C 
ENDBRANCH  20  26
ENDBRANCH  18  20
ENDBRANCH   1  18
TORSDOF 5
ENDMDL
MODEL 9
REMARK VINA RESULT:     -10.0      2.151     10.351
REMARK  Name = 1712
REMARK  5 active torsions:
REMARK  status: ('A' for Active; 'I' for Inactive)
REMARK    1  A    between atoms: C_1  and  N_18
REMARK    2  A    between atoms: C_2  and  S_7
REMARK    3  A    between atoms: S_7  and  N_10
REMARK    4  A    between atoms: N_18  and  C_20
REMARK    5  A    between atoms: C_20  and  C_26
REMARK                            x       y       z     vdW  Elec       q    Type
REMARK                         _______ _______ _______ _____ _____    ______ ____
ROOT
ATOM      1  C   UNL     1      34.949 -20.084 -20.353  0.00  0.00    +0.045 C 
ATOM      2  C   UNL     1      33.765 -21.828 -18.489  0.00  0.00    +0.125 C 
ATOM      3  C   UNL     1      33.550 -20.151 -20.215  0.00  0.00    +0.016 C 
ATOM      4  C   UNL     1      35.740 -20.912 -19.536  0.00  0.00    +0.016 C 
ATOM      5  C   UNL     1      32.963 -21.015 -19.291  0.00  0.00    +0.021 C 
ATOM      6  C   UNL     1      35.154 -21.776 -18.612  0.00  0.00    +0.021 C 
ENDROOT
BRANCH   2   7
ATOM      7  S   UNL     1      33.031 -22.911 -17.334  0.00  0.00    +0.075 S 
ATOM      8  O   UNL     1      33.564 -24.247 -17.573  0.00  0.00    -0.150 OA
ATOM      9  O   UNL     1      31.586 -22.716 -17.364  0.00  0.00    -0.150 OA
BRANCH   7  10
ATOM     10  N   UNL     1      33.657 -22.347 -15.830  0.00  0.00    -0.199 N 
ATOM     11  H   UNL     1      33.445 -21.444 -15.500  0.00  0.00    +0.175 HD
ATOM     12  N   UNL     1      35.696 -23.515 -15.621  0.00  0.00    -0.228 NA
ATOM     13  C   UNL     1      34.498 -23.234 -15.073  0.00  0.00    +0.147 C 
ATOM     14  C   UNL     1      34.048 -23.732 -13.866  0.00  0.00    +0.036 C 
ATOM     15  C   UNL     1      34.894 -24.586 -13.167  0.00  0.00    +0.005 C 
ATOM     16  C   UNL     1      36.491 -24.348 -14.914  0.00  0.00    +0.100 C 
ATOM     17  C   UNL     1      36.141 -24.905 -13.695  0.00  0.00    +0.021 C 
ENDBRANCH   7  10
ENDBRANCH   2   7
BRANCH   1  18
ATOM     18  N   UNL     1      35.532 -19.224 -21.271  0.00  0.00    -0.328 N 
ATOM     19  H   UNL     1      36.023 -19.617 -22.029  0.00  0.00    +0.147 HD
BRANCH  18  20
ATOM     20  C   UNL     1      35.465 -17.786 -21.179  0.00  0.00    +0.127 C 
BRANCH  20  26
ATOM     21  S   UNL     1      34.339 -14.414 -20.564  0.00  0.00    -0.104 S 
ATOM     22  O   UNL     1      35.503 -19.205 -23.754  0.00  0.00    -0.210 OA
ATOM     23  N   UNL     1      34.617 -17.314 -24.786  0.00  0.00    -0.333 NA
ATOM     24  N   UNL     1      33.382 -12.635 -22.191  0.00  0.00    -0.262 NA
ATOM     25  C   UNL     1      34.516 -16.052 -22.846  0.00  0.00    +0.033 C 
ATOM     26  C   UNL     1      35.017 -17.228 -22.477  0.00  0.00    +0.092 C 
ATOM     27  C   UNL     1      34.287 -16.165 -24.295  0.00  0.00    +0.142 C 
ATOM     28  C   UNL     1      34.193 -14.847 -22.203  0.00  0.00    +0.114 C 
ATOM     29  C   UNL     1      35.088 -18.055 -23.721  0.00  0.00    +0.202 C 
ATOM     30  C   UNL     1      33.668 -13.772 -22.902  0.00  0.00    +0.069 C 
ATOM     31  C   UNL     1      33.722 -14.989 -25.009  0.00  0.00    +0.034 C 
ATOM     32  C   UNL     1      33.440 -13.869 -24.312  0.00  0.00    +0.018 C 
ATOM     33  C   UNL     1      33.698 -12.859 -20.933  0.00  0.00    +0.183 C 
ENDBRANCH  20  26
ENDBRANCH  18  20
ENDBRANCH   1  18
TORSDOF 5
ENDMDL
