MODEL 1
REMARK VINA RESULT:     -11.3      0.000      0.000
REMARK  Name = 46937091
REMARK  8 active torsions:
REMARK  status: ('A' for Active; 'I' for Inactive)
REMARK    1  A    between atoms: C_1  and  C_4
REMARK    2  A    between atoms: C_1  and  C_18
REMARK    3  A    between atoms: C_10  and  C_12
REMARK    4  A    between atoms: C_18  and  C_19
REMARK    5  A    between atoms: C_19  and  N_20
REMARK    6  A    between atoms: C_19  and  C_30
REMARK    7  A    between atoms: C_24  and  C_27
REMARK    8  A    between atoms: C_30  and  O_32
REMARK                            x       y       z     vdW  Elec       q    Type
REMARK                         _______ _______ _______ _____ _____    ______ ____
ROOT
ATOM      1  C   UNL     1      32.887 -23.263 -16.842  0.00  0.00    +0.031 C 
ENDROOT
BRANCH   1   4
ATOM      2  O   UNL     1      34.617 -21.466 -18.611  0.00  0.00    -0.425 OA
ATOM      3  N   UNL     1      36.802 -20.934 -18.336  0.00  0.00    -0.368 NA
ATOM      4  C   UNL     1      34.341 -22.924 -16.635  0.00  0.00    +0.014 C 
ATOM      5  C   UNL     1      35.065 -22.097 -17.486  0.00  0.00    +0.170 C 
ATOM      6  C   UNL     1      35.051 -23.442 -15.546  0.00  0.00    -0.005 C 
ATOM      7  C   UNL     1      36.402 -21.768 -17.320  0.00  0.00    +0.151 C 
ATOM      8  C   UNL     1      36.402 -23.136 -15.343  0.00  0.00    -0.019 C 
ATOM      9  C   UNL     1      37.099 -22.295 -16.223  0.00  0.00    +0.088 C 
ATOM     10  C   UNL     1      35.714 -20.794 -19.059  0.00  0.00    +0.282 C 
BRANCH  10  12
ATOM     11 CL   UNL     1      34.883 -17.633 -24.028  0.00  0.00    -0.082 Cl
ATOM     12  C   UNL     1      35.512 -20.030 -20.260  0.00  0.00    +0.066 C 
ATOM     13  C   UNL     1      36.535 -19.217 -20.748  0.00  0.00    +0.007 C 
ATOM     14  C   UNL     1      34.296 -20.103 -20.937  0.00  0.00    +0.007 C 
ATOM     15  C   UNL     1      36.340 -18.476 -21.913  0.00  0.00    +0.012 C 
ATOM     16  C   UNL     1      34.101 -19.361 -22.102  0.00  0.00    +0.012 C 
ATOM     17  C   UNL     1      35.124 -18.548 -22.590  0.00  0.00    +0.058 C 
ENDBRANCH  10  12
ENDBRANCH   1   4
BRANCH   1  18
ATOM     18  C   UNL     1      31.959 -22.806 -15.703  0.00  0.00    +0.023 C 
BRANCH  18  19
ATOM     19  C   UNL     1      30.971 -23.886 -15.185  0.00  0.00    +0.087 C 
BRANCH  19  20
ATOM     20  N   UNL     1      29.549 -23.671 -15.687  0.00  0.00    -0.246 NA
ATOM     21  N   UNL     1      27.656 -24.031 -16.790  0.00  0.00    -0.251 NA
ATOM     22  C   UNL     1      28.724 -22.633 -15.361  0.00  0.00    +0.125 C 
ATOM     23  C   UNL     1      28.865 -24.485 -16.546  0.00  0.00    +0.201 C 
ATOM     24  C   UNL     1      27.561 -22.877 -16.053  0.00  0.00    +0.124 C 
BRANCH  24  27
ATOM     25  O   UNL     1      25.569 -22.076 -15.084  0.00  0.00    -0.269 OA
ATOM     26  N   UNL     1      26.143 -21.213 -17.129  0.00  0.00    -0.324 N 
ATOM     27  C   UNL     1      26.384 -22.065 -16.040  0.00  0.00    +0.257 C 
ATOM     28  H   UNL     1      25.339 -20.645 -17.142  0.00  0.00    +0.145 HD
ATOM     29  H   UNL     1      26.778 -21.184 -17.880  0.00  0.00    +0.145 HD
ENDBRANCH  24  27
ENDBRANCH  19  20
BRANCH  19  30
ATOM     30  C   UNL     1      31.057 -24.003 -13.639  0.00  0.00    +0.125 C 
ATOM     31  C   UNL     1      32.469 -24.244 -13.117  0.00  0.00    +0.033 C 
BRANCH  30  32
ATOM     32  O   UNL     1      30.197 -25.036 -13.162  0.00  0.00    -0.383 OA
ATOM     33  H   UNL     1      30.199 -25.774 -13.790  0.00  0.00    +0.210 HD
ENDBRANCH  30  32
ENDBRANCH  19  30
ENDBRANCH  18  19
ENDBRANCH   1  18
TORSDOF 8
ENDMDL
MODEL 2
REMARK VINA RESULT:     -11.1      3.621      7.413
REMARK  Name = 46937091
REMARK  8 active torsions:
REMARK  status: ('A' for Active; 'I' for Inactive)
REMARK    1  A    between atoms: C_1  and  C_4
REMARK    2  A    between atoms: C_1  and  C_18
REMARK    3  A    between atoms: C_10  and  C_12
REMARK    4  A    between atoms: C_18  and  C_19
REMARK    5  A    between atoms: C_19  and  N_20
REMARK    6  A    between atoms: C_19  and  C_30
REMARK    7  A    between atoms: C_24  and  C_27
REMARK    8  A    between atoms: C_30  and  O_32
REMARK                            x       y       z     vdW  Elec       q    Type
REMARK                         _______ _______ _______ _____ _____    ______ ____
ROOT
ATOM      1  C   UNL     1      34.708 -24.437 -14.132  0.00  0.00    +0.031 C 
ENDROOT
BRANCH   1   4
ATOM      2  O   UNL     1      33.755 -22.865 -16.576  0.00  0.00    -0.425 OA
ATOM      3  N   UNL     1      31.620 -22.447 -17.213  0.00  0.00    -0.368 NA
ATOM      4  C   UNL     1      33.280 -24.174 -14.534  0.00  0.00    +0.014 C 
ATOM      5  C   UNL     1      32.922 -23.447 -15.664  0.00  0.00    +0.170 C 
ATOM      6  C   UNL     1      32.216 -24.663 -13.767  0.00  0.00    -0.005 C 
ATOM      7  C   UNL     1      31.616 -23.190 -16.057  0.00  0.00    +0.151 C 
ATOM      8  C   UNL     1      30.885 -24.425 -14.129  0.00  0.00    -0.019 C 
ATOM      9  C   UNL     1      30.563 -23.687 -15.277  0.00  0.00    +0.088 C 
ATOM     10  C   UNL     1      32.901 -22.289 -17.467  0.00  0.00    +0.282 C 
BRANCH  10  12
ATOM     11 CL   UNL     1      35.512 -19.407 -21.966  0.00  0.00    -0.082 Cl
ATOM     12  C   UNL     1      33.532 -21.593 -18.554  0.00  0.00    +0.066 C 
ATOM     13  C   UNL     1      32.762 -20.841 -19.441  0.00  0.00    +0.007 C 
ATOM     14  C   UNL     1      34.914 -21.668 -18.722  0.00  0.00    +0.007 C 
ATOM     15  C   UNL     1      33.374 -20.165 -20.496  0.00  0.00    +0.012 C 
ATOM     16  C   UNL     1      35.527 -20.992 -19.777  0.00  0.00    +0.012 C 
ATOM     17  C   UNL     1      34.757 -20.241 -20.664  0.00  0.00    +0.058 C 
ENDBRANCH  10  12
ENDBRANCH   1   4
BRANCH   1  18
ATOM     18  C   UNL     1      35.019 -24.136 -12.656  0.00  0.00    +0.023 C 
BRANCH  18  19
ATOM     19  C   UNL     1      36.367 -23.410 -12.401  0.00  0.00    +0.087 C 
BRANCH  19  20
ATOM     20  N   UNL     1      37.449 -23.812 -13.395  0.00  0.00    -0.246 NA
ATOM     21  N   UNL     1      38.785 -23.720 -15.167  0.00  0.00    -0.251 NA
ATOM     22  C   UNL     1      38.227 -24.933 -13.335  0.00  0.00    +0.125 C 
ATOM     23  C   UNL     1      37.820 -23.114 -14.511  0.00  0.00    +0.201 C 
ATOM     24  C   UNL     1      39.044 -24.855 -14.439  0.00  0.00    +0.124 C 
BRANCH  24  27
ATOM     25  O   UNL     1      41.177 -25.840 -14.279  0.00  0.00    -0.269 OA
ATOM     26  N   UNL     1      39.736 -26.737 -15.820  0.00  0.00    -0.324 N 
ATOM     27  C   UNL     1      40.043 -25.804 -14.819  0.00  0.00    +0.257 C 
ATOM     28  H   UNL     1      40.409 -27.401 -16.099  0.00  0.00    +0.145 HD
ATOM     29  H   UNL     1      38.848 -26.730 -16.244  0.00  0.00    +0.145 HD
ENDBRANCH  24  27
ENDBRANCH  19  20
BRANCH  19  30
ATOM     30  C   UNL     1      36.807 -23.584 -10.923  0.00  0.00    +0.125 C 
ATOM     31  C   UNL     1      35.779 -24.301 -10.054  0.00  0.00    +0.033 C 
BRANCH  30  32
ATOM     32  O   UNL     1      37.122 -22.324 -10.336  0.00  0.00    -0.383 OA
ATOM     33  H   UNL     1      37.503 -22.464  -9.455  0.00  0.00    +0.210 HD
ENDBRANCH  30  32
ENDBRANCH  19  30
ENDBRANCH  18  19
ENDBRANCH   1  18
TORSDOF 8
ENDMDL
MODEL 3
REMARK VINA RESULT:     -10.8      4.074      7.421
REMARK  Name = 46937091
REMARK  8 active torsions:
REMARK  status: ('A' for Active; 'I' for Inactive)
REMARK    1  A    between atoms: C_1  and  C_4
REMARK    2  A    between atoms: C_1  and  C_18
REMARK    3  A    between atoms: C_10  and  C_12
REMARK    4  A    between atoms: C_18  and  C_19
REMARK    5  A    between atoms: C_19  and  N_20
REMARK    6  A    between atoms: C_19  and  C_30
REMARK    7  A    between atoms: C_24  and  C_27
REMARK    8  A    between atoms: C_30  and  O_32
REMARK                            x       y       z     vdW  Elec       q    Type
REMARK                         _______ _______ _______ _____ _____    ______ ____
ROOT
ATOM      1  C   UNL     1      35.042 -24.273 -14.303  0.00  0.00    +0.031 C 
ENDROOT
BRANCH   1   4
ATOM      2  O   UNL     1      33.933 -22.759 -16.718  0.00  0.00    -0.425 OA
ATOM      3  N   UNL     1      31.761 -22.430 -17.274  0.00  0.00    -0.368 NA
ATOM      4  C   UNL     1      33.589 -24.070 -14.651  0.00  0.00    +0.014 C 
ATOM      5  C   UNL     1      33.160 -23.366 -15.771  0.00  0.00    +0.170 C 
ATOM      6  C   UNL     1      32.576 -24.593 -13.840  0.00  0.00    -0.005 C 
ATOM      7  C   UNL     1      31.831 -23.163 -16.114  0.00  0.00    +0.151 C 
ATOM      8  C   UNL     1      31.223 -24.410 -14.152  0.00  0.00    -0.019 C 
ATOM      9  C   UNL     1      30.829 -23.694 -15.291  0.00  0.00    +0.088 C 
ATOM     10  C   UNL     1      33.023 -22.224 -17.579  0.00  0.00    +0.282 C 
BRANCH  10  12
ATOM     11 CL   UNL     1      35.349 -19.280 -22.194  0.00  0.00    -0.082 Cl
ATOM     12  C   UNL     1      33.585 -21.512 -18.694  0.00  0.00    +0.066 C 
ATOM     13  C   UNL     1      34.962 -21.534 -18.912  0.00  0.00    +0.007 C 
ATOM     14  C   UNL     1      32.753 -20.802 -19.559  0.00  0.00    +0.007 C 
ATOM     15  C   UNL     1      35.508 -20.843 -19.994  0.00  0.00    +0.012 C 
ATOM     16  C   UNL     1      33.299 -20.111 -20.641  0.00  0.00    +0.012 C 
ATOM     17  C   UNL     1      34.676 -20.132 -20.859  0.00  0.00    +0.058 C 
ENDBRANCH  10  12
ENDBRANCH   1   4
BRANCH   1  18
ATOM     18  C   UNL     1      35.395 -23.955 -12.840  0.00  0.00    +0.023 C 
BRANCH  18  19
ATOM     19  C   UNL     1      36.906 -24.037 -12.496  0.00  0.00    +0.087 C 
BRANCH  19  20
ATOM     20  N   UNL     1      37.582 -25.263 -13.098  0.00  0.00    -0.246 NA
ATOM     21  N   UNL     1      38.084 -27.396 -13.456  0.00  0.00    -0.251 NA
ATOM     22  C   UNL     1      38.538 -25.262 -14.073  0.00  0.00    +0.125 C 
ATOM     23  C   UNL     1      37.341 -26.565 -12.758  0.00  0.00    +0.201 C 
ATOM     24  C   UNL     1      38.832 -26.590 -14.278  0.00  0.00    +0.124 C 
BRANCH  24  27
ATOM     25  O   UNL     1      41.016 -27.138 -14.970  0.00  0.00    -0.269 OA
ATOM     26  N   UNL     1      39.316 -27.626 -16.429  0.00  0.00    -0.324 N 
ATOM     27  C   UNL     1      39.783 -27.111 -15.211  0.00  0.00    +0.257 C 
ATOM     28  H   UNL     1      39.953 -27.990 -17.087  0.00  0.00    +0.145 HD
ATOM     29  H   UNL     1      38.352 -27.623 -16.628  0.00  0.00    +0.145 HD
ENDBRANCH  24  27
ENDBRANCH  19  20
BRANCH  19  30
ATOM     30  C   UNL     1      37.121 -23.920 -10.962  0.00  0.00    +0.125 C 
ATOM     31  C   UNL     1      35.906 -24.330 -10.137  0.00  0.00    +0.033 C 
BRANCH  30  32
ATOM     32  O   UNL     1      37.506 -22.594 -10.605  0.00  0.00    -0.383 OA
ATOM     33  H   UNL     1      37.405 -22.476  -9.647  0.00  0.00    +0.210 HD
ENDBRANCH  30  32
ENDBRANCH  19  30
ENDBRANCH  18  19
ENDBRANCH   1  18
TORSDOF 8
ENDMDL
MODEL 4
REMARK VINA RESULT:     -10.6      3.801      7.235
REMARK  Name = 46937091
REMARK  8 active torsions:
REMARK  status: ('A' for Active; 'I' for Inactive)
REMARK    1  A    between atoms: C_1  and  C_4
REMARK    2  A    between atoms: C_1  and  C_18
REMARK    3  A    between atoms: C_10  and  C_12
REMARK    4  A    between atoms: C_18  and  C_19
REMARK    5  A    between atoms: C_19  and  N_20
REMARK    6  A    between atoms: C_19  and  C_30
REMARK    7  A    between atoms: C_24  and  C_27
REMARK    8  A    between atoms: C_30  and  O_32
REMARK                            x       y       z     vdW  Elec       q    Type
REMARK                         _______ _______ _______ _____ _____    ______ ____
ROOT
ATOM      1  C   UNL     1      34.248 -24.129 -13.618  0.00  0.00    +0.031 C 
ENDROOT
BRANCH   1   4
ATOM      2  O   UNL     1      33.442 -22.835 -16.268  0.00  0.00    -0.425 OA
ATOM      3  N   UNL     1      31.368 -22.693 -17.171  0.00  0.00    -0.368 NA
ATOM      4  C   UNL     1      32.859 -24.049 -14.196  0.00  0.00    +0.014 C 
ATOM      5  C   UNL     1      32.568 -23.441 -15.412  0.00  0.00    +0.170 C 
ATOM      6  C   UNL     1      31.765 -24.597 -13.517  0.00  0.00    -0.005 C 
ATOM      7  C   UNL     1      31.300 -23.353 -15.968  0.00  0.00    +0.151 C 
ATOM      8  C   UNL     1      30.469 -24.529 -14.043  0.00  0.00    -0.019 C 
ATOM      9  C   UNL     1      30.215 -23.908 -15.275  0.00  0.00    +0.088 C 
ATOM     10  C   UNL     1      32.648 -22.415 -17.292  0.00  0.00    +0.282 C 
BRANCH  10  12
ATOM     11 CL   UNL     1      35.479 -19.575 -21.683  0.00  0.00    -0.082 Cl
ATOM     12  C   UNL     1      33.332 -21.729 -18.353  0.00  0.00    +0.066 C 
ATOM     13  C   UNL     1      32.615 -20.929 -19.242  0.00  0.00    +0.007 C 
ATOM     14  C   UNL     1      34.713 -21.862 -18.493  0.00  0.00    +0.007 C 
ATOM     15  C   UNL     1      33.279 -20.263 -20.272  0.00  0.00    +0.012 C 
ATOM     16  C   UNL     1      35.377 -21.196 -19.523  0.00  0.00    +0.012 C 
ATOM     17  C   UNL     1      34.660 -20.396 -20.413  0.00  0.00    +0.058 C 
ENDBRANCH  10  12
ENDBRANCH   1   4
BRANCH   1  18
ATOM     18  C   UNL     1      35.271 -23.198 -14.290  0.00  0.00    +0.023 C 
BRANCH  18  19
ATOM     19  C   UNL     1      36.504 -23.910 -14.907  0.00  0.00    +0.087 C 
BRANCH  19  20
ATOM     20  N   UNL     1      36.899 -25.170 -14.147  0.00  0.00    -0.246 NA
ATOM     21  N   UNL     1      37.643 -26.457 -12.497  0.00  0.00    -0.251 NA
ATOM     22  C   UNL     1      36.817 -26.452 -14.608  0.00  0.00    +0.125 C 
ATOM     23  C   UNL     1      37.399 -25.221 -12.876  0.00  0.00    +0.201 C 
ATOM     24  C   UNL     1      37.281 -27.230 -13.573  0.00  0.00    +0.124 C 
BRANCH  24  27
ATOM     25  O   UNL     1      38.496 -29.243 -13.436  0.00  0.00    -0.269 OA
ATOM     26  N   UNL     1      36.226 -29.421 -13.704  0.00  0.00    -0.324 N 
ATOM     27  C   UNL     1      37.393 -28.655 -13.570  0.00  0.00    +0.257 C 
ATOM     28  H   UNL     1      36.278 -30.404 -13.705  0.00  0.00    +0.145 HD
ATOM     29  H   UNL     1      35.353 -28.975 -13.798  0.00  0.00    +0.145 HD
ENDBRANCH  24  27
ENDBRANCH  19  20
BRANCH  19  30
ATOM     30  C   UNL     1      37.681 -22.911 -15.075  0.00  0.00    +0.125 C 
ATOM     31  C   UNL     1      37.421 -21.820 -16.109  0.00  0.00    +0.033 C 
BRANCH  30  32
ATOM     32  O   UNL     1      38.885 -23.598 -15.411  0.00  0.00    -0.383 OA
ATOM     33  H   UNL     1      39.518 -22.972 -15.795  0.00  0.00    +0.210 HD
ENDBRANCH  30  32
ENDBRANCH  19  30
ENDBRANCH  18  19
ENDBRANCH   1  18
TORSDOF 8
ENDMDL
MODEL 5
REMARK VINA RESULT:     -10.3      9.926     13.948
REMARK  Name = 46937091
REMARK  8 active torsions:
REMARK  status: ('A' for Active; 'I' for Inactive)
REMARK    1  A    between atoms: C_1  and  C_4
REMARK    2  A    between atoms: C_1  and  C_18
REMARK    3  A    between atoms: C_10  and  C_12
REMARK    4  A    between atoms: C_18  and  C_19
REMARK    5  A    between atoms: C_19  and  N_20
REMARK    6  A    between atoms: C_19  and  C_30
REMARK    7  A    between atoms: C_24  and  C_27
REMARK    8  A    between atoms: C_30  and  O_32
REMARK                            x       y       z     vdW  Elec       q    Type
REMARK                         _______ _______ _______ _____ _____    ______ ____
ROOT
ATOM      1  C   UNL     1      31.934 -11.715 -22.169  0.00  0.00    +0.031 C 
ENDROOT
BRANCH   1   4
ATOM      2  O   UNL     1      32.461  -8.732 -22.584  0.00  0.00    -0.425 OA
ATOM      3  N   UNL     1      32.486  -7.094 -21.018  0.00  0.00    -0.368 NA
ATOM      4  C   UNL     1      31.943 -10.645 -21.108  0.00  0.00    +0.014 C 
ATOM      5  C   UNL     1      32.193  -9.303 -21.374  0.00  0.00    +0.170 C 
ATOM      6  C   UNL     1      31.695 -10.960 -19.768  0.00  0.00    -0.005 C 
ATOM      7  C   UNL     1      32.208  -8.298 -20.418  0.00  0.00    +0.151 C 
ATOM      8  C   UNL     1      31.701  -9.975 -18.772  0.00  0.00    -0.019 C 
ATOM      9  C   UNL     1      31.957  -8.631 -19.079  0.00  0.00    +0.088 C 
ATOM     10  C   UNL     1      32.624  -7.413 -22.286  0.00  0.00    +0.282 C 
BRANCH  10  12
ATOM     11 CL   UNL     1      33.865  -3.912 -26.930  0.00  0.00    -0.082 Cl
ATOM     12  C   UNL     1      32.923  -6.567 -23.409  0.00  0.00    +0.066 C 
ATOM     13  C   UNL     1      34.250  -6.333 -23.771  0.00  0.00    +0.007 C 
ATOM     14  C   UNL     1      31.888  -5.980 -24.136  0.00  0.00    +0.007 C 
ATOM     15  C   UNL     1      34.541  -5.512 -24.860  0.00  0.00    +0.012 C 
ATOM     16  C   UNL     1      32.179  -5.159 -25.225  0.00  0.00    +0.012 C 
ATOM     17  C   UNL     1      33.506  -4.925 -25.587  0.00  0.00    +0.058 C 
ENDBRANCH  10  12
ENDBRANCH   1   4
BRANCH   1  18
ATOM     18  C   UNL     1      33.328 -12.231 -22.563  0.00  0.00    +0.023 C 
BRANCH  18  19
ATOM     19  C   UNL     1      33.370 -13.102 -23.848  0.00  0.00    +0.087 C 
BRANCH  19  20
ATOM     20  N   UNL     1      33.977 -14.478 -23.607  0.00  0.00    -0.246 NA
ATOM     21  N   UNL     1      34.644 -16.557 -24.012  0.00  0.00    -0.251 NA
ATOM     22  C   UNL     1      34.529 -14.926 -22.442  0.00  0.00    +0.125 C 
ATOM     23  C   UNL     1      34.068 -15.490 -24.521  0.00  0.00    +0.201 C 
ATOM     24  C   UNL     1      34.935 -16.212 -22.715  0.00  0.00    +0.124 C 
BRANCH  24  27
ATOM     25  O   UNL     1      35.359 -17.078 -20.566  0.00  0.00    -0.269 OA
ATOM     26  N   UNL     1      36.463 -18.066 -22.316  0.00  0.00    -0.324 N 
ATOM     27  C   UNL     1      35.576 -17.108 -21.804  0.00  0.00    +0.257 C 
ATOM     28  H   UNL     1      36.916 -18.694 -21.708  0.00  0.00    +0.145 HD
ATOM     29  H   UNL     1      36.634 -18.110 -23.285  0.00  0.00    +0.145 HD
ENDBRANCH  24  27
ENDBRANCH  19  20
BRANCH  19  30
ATOM     30  C   UNL     1      34.059 -12.330 -25.005  0.00  0.00    +0.125 C 
ATOM     31  C   UNL     1      34.307 -10.856 -24.701  0.00  0.00    +0.033 C 
BRANCH  30  32
ATOM     32  O   UNL     1      33.303 -12.440 -26.209  0.00  0.00    -0.383 OA
ATOM     33  H   UNL     1      33.158 -13.377 -26.414  0.00  0.00    +0.210 HD
ENDBRANCH  30  32
ENDBRANCH  19  30
ENDBRANCH  18  19
ENDBRANCH   1  18
TORSDOF 8
ENDMDL
MODEL 6
REMARK VINA RESULT:     -10.2     10.409     14.442
REMARK  Name = 46937091
REMARK  8 active torsions:
REMARK  status: ('A' for Active; 'I' for Inactive)
REMARK    1  A    between atoms: C_1  and  C_4
REMARK    2  A    between atoms: C_1  and  C_18
REMARK    3  A    between atoms: C_10  and  C_12
REMARK    4  A    between atoms: C_18  and  C_19
REMARK    5  A    between atoms: C_19  and  N_20
REMARK    6  A    between atoms: C_19  and  C_30
REMARK    7  A    between atoms: C_24  and  C_27
REMARK    8  A    between atoms: C_30  and  O_32
REMARK                            x       y       z     vdW  Elec       q    Type
REMARK                         _______ _______ _______ _____ _____    ______ ____
ROOT
ATOM      1  C   UNL     1      31.977 -11.072 -22.198  0.00  0.00    +0.031 C 
ENDROOT
BRANCH   1   4
ATOM      2  O   UNL     1      32.618  -8.142 -22.797  0.00  0.00    -0.425 OA
ATOM      3  N   UNL     1      32.680  -6.407 -21.342  0.00  0.00    -0.368 NA
ATOM      4  C   UNL     1      32.010  -9.935 -21.209  0.00  0.00    +0.014 C 
ATOM      5  C   UNL     1      32.312  -8.623 -21.557  0.00  0.00    +0.170 C 
ATOM      6  C   UNL     1      31.733 -10.152 -19.855  0.00  0.00    -0.005 C 
ATOM      7  C   UNL     1      32.350  -7.559 -20.668  0.00  0.00    +0.151 C 
ATOM      8  C   UNL     1      31.761  -9.106 -18.925  0.00  0.00    -0.019 C 
ATOM      9  C   UNL     1      32.069  -7.794 -19.315  0.00  0.00    +0.088 C 
ATOM     10  C   UNL     1      32.824  -6.813 -22.583  0.00  0.00    +0.282 C 
BRANCH  10  12
ATOM     11 CL   UNL     1      34.256  -3.670 -27.425  0.00  0.00    -0.082 Cl
ATOM     12  C   UNL     1      33.169  -6.054 -23.754  0.00  0.00    +0.066 C 
ATOM     13  C   UNL     1      34.510  -5.860 -24.088  0.00  0.00    +0.007 C 
ATOM     14  C   UNL     1      32.166  -5.510 -24.554  0.00  0.00    +0.007 C 
ATOM     15  C   UNL     1      34.845  -5.123 -25.224  0.00  0.00    +0.012 C 
ATOM     16  C   UNL     1      32.501  -4.773 -25.690  0.00  0.00    +0.012 C 
ATOM     17  C   UNL     1      33.841  -4.580 -26.025  0.00  0.00    +0.058 C 
ENDBRANCH  10  12
ENDBRANCH   1   4
BRANCH   1  18
ATOM     18  C   UNL     1      33.361 -11.512 -22.707  0.00  0.00    +0.023 C 
BRANCH  18  19
ATOM     19  C   UNL     1      33.338 -12.549 -23.861  0.00  0.00    +0.087 C 
BRANCH  19  20
ATOM     20  N   UNL     1      33.894 -13.905 -23.446  0.00  0.00    -0.246 NA
ATOM     21  N   UNL     1      34.824 -15.472 -22.176  0.00  0.00    -0.251 NA
ATOM     22  C   UNL     1      33.948 -15.029 -24.219  0.00  0.00    +0.125 C 
ATOM     23  C   UNL     1      34.430 -14.219 -22.228  0.00  0.00    +0.201 C 
ATOM     24  C   UNL     1      34.525 -15.984 -23.415  0.00  0.00    +0.124 C 
BRANCH  24  27
ATOM     25  O   UNL     1      34.262 -17.894 -24.767  0.00  0.00    -0.269 OA
ATOM     26  N   UNL     1      35.716 -18.068 -23.002  0.00  0.00    -0.324 N 
ATOM     27  C   UNL     1      34.800 -17.340 -23.775  0.00  0.00    +0.257 C 
ATOM     28  H   UNL     1      35.921 -19.004 -23.232  0.00  0.00    +0.145 HD
ATOM     29  H   UNL     1      36.155 -17.644 -22.230  0.00  0.00    +0.145 HD
ENDBRANCH  24  27
ENDBRANCH  19  20
BRANCH  19  30
ATOM     30  C   UNL     1      34.033 -11.971 -25.124  0.00  0.00    +0.125 C 
ATOM     31  C   UNL     1      34.525 -10.538 -24.955  0.00  0.00    +0.033 C 
BRANCH  30  32
ATOM     32  O   UNL     1      33.168 -12.041 -26.255  0.00  0.00    -0.383 OA
ATOM     33  H   UNL     1      32.786 -11.165 -26.424  0.00  0.00    +0.210 HD
ENDBRANCH  30  32
ENDBRANCH  19  30
ENDBRANCH  18  19
ENDBRANCH   1  18
TORSDOF 8
ENDMDL
MODEL 7
REMARK VINA RESULT:      -9.6     11.592     15.415
REMARK  Name = 46937091
REMARK  8 active torsions:
REMARK  status: ('A' for Active; 'I' for Inactive)
REMARK    1  A    between atoms: C_1  and  C_4
REMARK    2  A    between atoms: C_1  and  C_18
REMARK    3  A    between atoms: C_10  and  C_12
REMARK    4  A    between atoms: C_18  and  C_19
REMARK    5  A    between atoms: C_19  and  N_20
REMARK    6  A    between atoms: C_19  and  C_30
REMARK    7  A    between atoms: C_24  and  C_27
REMARK    8  A    between atoms: C_30  and  O_32
REMARK                            x       y       z     vdW  Elec       q    Type
REMARK                         _______ _______ _______ _____ _____    ______ ____
ROOT
ATOM      1  C   UNL     1      33.860  -9.364 -23.020  0.00  0.00    +0.031 C 
ENDROOT
BRANCH   1   4
ATOM      2  O   UNL     1      33.927  -6.624 -24.376  0.00  0.00    -0.425 OA
ATOM      3  N   UNL     1      33.184  -4.648 -23.554  0.00  0.00    -0.368 NA
ATOM      4  C   UNL     1      33.357  -8.063 -22.449  0.00  0.00    +0.014 C 
ATOM      5  C   UNL     1      33.422  -6.851 -23.128  0.00  0.00    +0.170 C 
ATOM      6  C   UNL     1      32.786  -8.011 -21.173  0.00  0.00    -0.005 C 
ATOM      7  C   UNL     1      32.968  -5.640 -22.628  0.00  0.00    +0.151 C 
ATOM      8  C   UNL     1      32.316  -6.808 -20.631  0.00  0.00    -0.019 C 
ATOM      9  C   UNL     1      32.398  -5.605 -21.348  0.00  0.00    +0.088 C 
ATOM     10  C   UNL     1      33.747  -5.286 -24.555  0.00  0.00    +0.282 C 
BRANCH  10  12
ATOM     11 CL   UNL     1      35.634  -3.165 -29.781  0.00  0.00    -0.082 Cl
ATOM     12  C   UNL     1      34.204  -4.773 -25.818  0.00  0.00    +0.066 C 
ATOM     13  C   UNL     1      33.280  -4.422 -26.802  0.00  0.00    +0.007 C 
ATOM     14  C   UNL     1      35.570  -4.627 -26.059  0.00  0.00    +0.007 C 
ATOM     15  C   UNL     1      33.723  -3.924 -28.028  0.00  0.00    +0.012 C 
ATOM     16  C   UNL     1      36.012  -4.130 -27.285  0.00  0.00    +0.012 C 
ATOM     17  C   UNL     1      35.088  -3.778 -28.269  0.00  0.00    +0.058 C 
ENDBRANCH  10  12
ENDBRANCH   1   4
BRANCH   1  18
ATOM     18  C   UNL     1      32.776 -10.441 -23.199  0.00  0.00    +0.023 C 
BRANCH  18  19
ATOM     19  C   UNL     1      33.004 -11.746 -22.391  0.00  0.00    +0.087 C 
BRANCH  19  20
ATOM     20  N   UNL     1      33.350 -12.935 -23.277  0.00  0.00    -0.246 NA
ATOM     21  N   UNL     1      33.583 -14.164 -25.112  0.00  0.00    -0.251 NA
ATOM     22  C   UNL     1      33.875 -14.126 -22.865  0.00  0.00    +0.125 C 
ATOM     23  C   UNL     1      33.192 -13.003 -24.633  0.00  0.00    +0.201 C 
ATOM     24  C   UNL     1      34.010 -14.869 -24.015  0.00  0.00    +0.124 C 
BRANCH  24  27
ATOM     25  O   UNL     1      34.154 -17.003 -25.001  0.00  0.00    -0.269 OA
ATOM     26  N   UNL     1      35.479 -16.618 -23.170  0.00  0.00    -0.324 N 
ATOM     27  C   UNL     1      34.521 -16.201 -24.105  0.00  0.00    +0.257 C 
ATOM     28  H   UNL     1      35.846 -17.532 -23.212  0.00  0.00    +0.145 HD
ATOM     29  H   UNL     1      35.786 -15.998 -22.470  0.00  0.00    +0.145 HD
ENDBRANCH  24  27
ENDBRANCH  19  20
BRANCH  19  30
ATOM     30  C   UNL     1      31.798 -12.021 -21.452  0.00  0.00    +0.125 C 
ATOM     31  C   UNL     1      30.881 -10.818 -21.258  0.00  0.00    +0.033 C 
BRANCH  30  32
ATOM     32  O   UNL     1      32.242 -12.484 -20.179  0.00  0.00    -0.383 OA
ATOM     33  H   UNL     1      31.557 -13.045 -19.783  0.00  0.00    +0.210 HD
ENDBRANCH  30  32
ENDBRANCH  19  30
ENDBRANCH  18  19
ENDBRANCH   1  18
TORSDOF 8
ENDMDL
MODEL 8
REMARK VINA RESULT:      -9.4      4.344      8.390
REMARK  Name = 46937091
REMARK  8 active torsions:
REMARK  status: ('A' for Active; 'I' for Inactive)
REMARK    1  A    between atoms: C_1  and  C_4
REMARK    2  A    between atoms: C_1  and  C_18
REMARK    3  A    between atoms: C_10  and  C_12
REMARK    4  A    between atoms: C_18  and  C_19
REMARK    5  A    between atoms: C_19  and  N_20
REMARK    6  A    between atoms: C_19  and  C_30
REMARK    7  A    between atoms: C_24  and  C_27
REMARK    8  A    between atoms: C_30  and  O_32
REMARK                            x       y       z     vdW  Elec       q    Type
REMARK                         _______ _______ _______ _____ _____    ______ ____
ROOT
ATOM      1  C   UNL     1      33.259 -22.708 -18.619  0.00  0.00    +0.031 C 
ENDROOT
BRANCH   1   4
ATOM      2  O   UNL     1      34.808 -23.762 -16.202  0.00  0.00    -0.425 OA
ATOM      3  N   UNL     1      34.067 -24.006 -14.075  0.00  0.00    -0.368 NA
ATOM      4  C   UNL     1      32.741 -22.859 -17.212  0.00  0.00    +0.014 C 
ATOM      5  C   UNL     1      33.508 -23.349 -16.160  0.00  0.00    +0.170 C 
ATOM      6  C   UNL     1      31.426 -22.506 -16.888  0.00  0.00    -0.005 C 
ATOM      7  C   UNL     1      33.057 -23.499 -14.857  0.00  0.00    +0.151 C 
ATOM      8  C   UNL     1      30.932 -22.643 -15.585  0.00  0.00    -0.019 C 
ATOM      9  C   UNL     1      31.738 -23.140 -14.550  0.00  0.00    +0.088 C 
ATOM     10  C   UNL     1      35.066 -24.139 -14.919  0.00  0.00    +0.282 C 
BRANCH  10  12
ATOM     11 CL   UNL     1      40.576 -26.152 -13.940  0.00  0.00    -0.082 Cl
ATOM     12  C   UNL     1      36.397 -24.626 -14.682  0.00  0.00    +0.066 C 
ATOM     13  C   UNL     1      37.486 -23.761 -14.795  0.00  0.00    +0.007 C 
ATOM     14  C   UNL     1      36.601 -25.962 -14.340  0.00  0.00    +0.007 C 
ATOM     15  C   UNL     1      38.778 -24.233 -14.566  0.00  0.00    +0.012 C 
ATOM     16  C   UNL     1      37.893 -26.434 -14.110  0.00  0.00    +0.012 C 
ATOM     17  C   UNL     1      38.981 -25.569 -14.223  0.00  0.00    +0.058 C 
ENDBRANCH  10  12
ENDBRANCH   1   4
BRANCH   1  18
ATOM     18  C   UNL     1      33.326 -21.255 -19.119  0.00  0.00    +0.023 C 
BRANCH  18  19
ATOM     19  C   UNL     1      34.745 -20.625 -19.123  0.00  0.00    +0.087 C 
BRANCH  19  20
ATOM     20  N   UNL     1      35.010 -19.779 -20.362  0.00  0.00    -0.246 NA
ATOM     21  N   UNL     1      36.031 -18.365 -21.736  0.00  0.00    -0.251 NA
ATOM     22  C   UNL     1      34.217 -19.698 -21.471  0.00  0.00    +0.125 C 
ATOM     23  C   UNL     1      36.087 -18.962 -20.566  0.00  0.00    +0.201 C 
ATOM     24  C   UNL     1      34.868 -18.819 -22.306  0.00  0.00    +0.124 C 
BRANCH  24  27
ATOM     25  O   UNL     1      33.808 -19.169 -24.380  0.00  0.00    -0.269 OA
ATOM     26  N   UNL     1      34.691 -17.086 -24.007  0.00  0.00    -0.324 N 
ATOM     27  C   UNL     1      34.430 -18.403 -23.602  0.00  0.00    +0.257 C 
ATOM     28  H   UNL     1      34.399 -16.776 -24.896  0.00  0.00    +0.145 HD
ATOM     29  H   UNL     1      35.166 -16.470 -23.404  0.00  0.00    +0.145 HD
ENDBRANCH  24  27
ENDBRANCH  19  20
BRANCH  19  30
ATOM     30  C   UNL     1      35.824 -21.717 -18.893  0.00  0.00    +0.125 C 
ATOM     31  C   UNL     1      36.728 -21.448 -17.694  0.00  0.00    +0.033 C 
BRANCH  30  32
ATOM     32  O   UNL     1      36.628 -21.887 -20.058  0.00  0.00    -0.383 OA
ATOM     33  H   UNL     1      37.473 -22.296 -19.811  0.00  0.00    +0.210 HD
ENDBRANCH  30  32
ENDBRANCH  19  30
ENDBRANCH  18  19
ENDBRANCH   1  18
TORSDOF 8
ENDMDL
MODEL 9
REMARK VINA RESULT:      -9.3      4.016      8.146
REMARK  Name = 46937091
REMARK  8 active torsions:
REMARK  status: ('A' for Active; 'I' for Inactive)
REMARK    1  A    between atoms: C_1  and  C_4
REMARK    2  A    between atoms: C_1  and  C_18
REMARK    3  A    between atoms: C_10  and  C_12
REMARK    4  A    between atoms: C_18  and  C_19
REMARK    5  A    between atoms: C_19  and  N_20
REMARK    6  A    between atoms: C_19  and  C_30
REMARK    7  A    between atoms: C_24  and  C_27
REMARK    8  A    between atoms: C_30  and  O_32
REMARK                            x       y       z     vdW  Elec       q    Type
REMARK                         _______ _______ _______ _____ _____    ______ ____
ROOT
ATOM      1  C   UNL     1      36.591 -21.177 -17.190  0.00  0.00    +0.031 C 
ENDROOT
BRANCH   1   4
ATOM      2  O   UNL     1      34.293 -22.641 -15.801  0.00  0.00    -0.425 OA
ATOM      3  N   UNL     1      34.430 -24.295 -14.259  0.00  0.00    -0.368 NA
ATOM      4  C   UNL     1      36.710 -22.277 -16.166  0.00  0.00    +0.014 C 
ATOM      5  C   UNL     1      35.615 -22.897 -15.576  0.00  0.00    +0.170 C 
ATOM      6  C   UNL     1      37.964 -22.738 -15.749  0.00  0.00    -0.005 C 
ATOM      7  C   UNL     1      35.695 -23.911 -14.631  0.00  0.00    +0.151 C 
ATOM      8  C   UNL     1      38.088 -23.758 -14.798  0.00  0.00    -0.019 C 
ATOM      9  C   UNL     1      36.959 -24.361 -14.225  0.00  0.00    +0.088 C 
ATOM     10  C   UNL     1      33.653 -23.516 -14.978  0.00  0.00    +0.282 C 
BRANCH  10  12
ATOM     11 CL   UNL     1      27.713 -23.258 -15.157  0.00  0.00    -0.082 Cl
ATOM     12  C   UNL     1      32.217 -23.454 -15.021  0.00  0.00    +0.066 C 
ATOM     13  C   UNL     1      31.576 -22.904 -16.130  0.00  0.00    +0.007 C 
ATOM     14  C   UNL     1      31.465 -23.945 -13.954  0.00  0.00    +0.007 C 
ATOM     15  C   UNL     1      30.184 -22.843 -16.172  0.00  0.00    +0.012 C 
ATOM     16  C   UNL     1      30.073 -23.884 -13.996  0.00  0.00    +0.012 C 
ATOM     17  C   UNL     1      29.432 -23.333 -15.105  0.00  0.00    +0.058 C 
ENDBRANCH  10  12
ENDBRANCH   1   4
BRANCH   1  18
ATOM     18  C   UNL     1      36.883 -21.619 -18.635  0.00  0.00    +0.023 C 
BRANCH  18  19
ATOM     19  C   UNL     1      35.722 -21.396 -19.639  0.00  0.00    +0.087 C 
BRANCH  19  20
ATOM     20  N   UNL     1      35.875 -20.110 -20.440  0.00  0.00    -0.246 NA
ATOM     21  N   UNL     1      36.720 -18.174 -21.126  0.00  0.00    -0.251 NA
ATOM     22  C   UNL     1      35.056 -19.680 -21.445  0.00  0.00    +0.125 C 
ATOM     23  C   UNL     1      36.859 -19.174 -20.284  0.00  0.00    +0.201 C 
ATOM     24  C   UNL     1      35.597 -18.483 -21.853  0.00  0.00    +0.124 C 
BRANCH  24  27
ATOM     25  O   UNL     1      34.292 -18.051 -23.766  0.00  0.00    -0.269 OA
ATOM     26  N   UNL     1      35.496 -16.294 -22.917  0.00  0.00    -0.324 N 
ATOM     27  C   UNL     1      35.093 -17.637 -22.890  0.00  0.00    +0.257 C 
ATOM     28  H   UNL     1      35.162 -15.693 -23.621  0.00  0.00    +0.145 HD
ATOM     29  H   UNL     1      36.113 -15.952 -22.230  0.00  0.00    +0.145 HD
ENDBRANCH  24  27
ENDBRANCH  19  20
BRANCH  19  30
ATOM     30  C   UNL     1      34.351 -21.500 -18.917  0.00  0.00    +0.125 C 
ATOM     31  C   UNL     1      33.719 -22.886 -18.989  0.00  0.00    +0.033 C 
BRANCH  30  32
ATOM     32  O   UNL     1      33.433 -20.538 -19.431  0.00  0.00    -0.383 OA
ATOM     33  H   UNL     1      33.244 -20.737 -20.361  0.00  0.00    +0.210 HD
ENDBRANCH  30  32
ENDBRANCH  19  30
ENDBRANCH  18  19
ENDBRANCH   1  18
TORSDOF 8
ENDMDL
