MODEL 1
REMARK VINA RESULT:     -11.2      0.000      0.000
REMARK  Name = 9887812
REMARK  11 active torsions:
REMARK  status: ('A' for Active; 'I' for Inactive)
REMARK    1  A    between atoms: N_1  and  C_3
REMARK    2  A    between atoms: N_1  and  C_19
REMARK    3  A    between atoms: C_4  and  C_9
REMARK    4  A    between atoms: C_12  and  C_16
REMARK    5  A    between atoms: C_16  and  O_17
REMARK    6  A    between atoms: C_19  and  C_20
REMARK    7  A    between atoms: C_20  and  N_21
REMARK    8  A    between atoms: N_21  and  C_24
REMARK    9  A    between atoms: C_24  and  C_25
REMARK   10  A    between atoms: C_25  and  C_27
REMARK   11  A    between atoms: C_25  and  O_33
REMARK                            x       y       z     vdW  Elec       q    Type
REMARK                         _______ _______ _______ _____ _____    ______ ____
ROOT
ATOM      1  N   UNL     1      35.190 -15.291 -23.000  0.00  0.00    -0.335 N 
ATOM      2  H   UNL     1      35.920 -14.928 -23.551  0.00  0.00    +0.147 HD
ENDROOT
BRANCH   1   3
ATOM      3  C   UNL     1      34.906 -16.670 -23.081  0.00  0.00    +0.045 C 
ATOM      4  C   UNL     1      34.885 -18.865 -22.072  0.00  0.00    +0.001 C 
ATOM      5  C   UNL     1      35.165 -17.501 -21.991  0.00  0.00    +0.014 C 
ATOM      6  C   UNL     1      34.368 -17.204 -24.252  0.00  0.00    +0.014 C 
ATOM      7  C   UNL     1      34.347 -19.399 -23.243  0.00  0.00    +0.000 C 
ATOM      8  C   UNL     1      34.089 -18.568 -24.333  0.00  0.00    +0.001 C 
BRANCH   4   9
ATOM      9  C   UNL     1      35.153 -19.726 -20.941  0.00  0.00    +0.000 C 
ATOM     10  C   UNL     1      34.130 -20.505 -20.397  0.00  0.00    +0.006 C 
ATOM     11  C   UNL     1      36.435 -19.779 -20.394  0.00  0.00    +0.000 C 
ATOM     12  C   UNL     1      34.391 -21.334 -19.307  0.00  0.00    +0.075 C 
ATOM     13  C   UNL     1      36.695 -20.609 -19.303  0.00  0.00    +0.000 C 
ATOM     14  C   UNL     1      35.672 -21.387 -18.759  0.00  0.00    +0.006 C 
BRANCH  12  16
ATOM     15  O   UNL     1      32.255 -21.716 -18.296  0.00  0.00    -0.245 OA
ATOM     16  C   UNL     1      33.325 -22.146 -18.740  0.00  0.00    +0.338 C 
BRANCH  16  17
ATOM     17  O   UNL     1      33.626 -23.475 -18.743  0.00  0.00    -0.477 OA
ATOM     18  H   UNL     1      33.142 -24.062 -19.288  0.00  0.00    +0.295 HD
ENDBRANCH  16  17
ENDBRANCH  12  16
ENDBRANCH   4   9
ENDBRANCH   1   3
BRANCH   1  19
ATOM     19  C   UNL     1      34.464 -14.397 -22.150  0.00  0.00    +0.064 C 
BRANCH  19  20
ATOM     20  C   UNL     1      33.535 -13.533 -22.992  0.00  0.00    -0.060 C 
BRANCH  20  21
ATOM     21  N   UNL     1      34.249 -12.371 -23.507  0.00  0.00    +0.387 N 
ATOM     22  H   UNL     1      35.158 -12.309 -23.048  0.00  0.00    -0.084 HD
ATOM     23  H   UNL     1      34.366 -12.480 -24.514  0.00  0.00    -0.084 HD
BRANCH  21  24
ATOM     24  C   UNL     1      33.501 -11.147 -23.253  0.00  0.00    -0.047 C 
BRANCH  24  25
ATOM     25  C   UNL     1      34.030  -9.997 -24.119  0.00  0.00    +0.112 C 
BRANCH  25  27
ATOM     26 CL   UNL     1      32.018  -7.247 -20.190  0.00  0.00    -0.082 Cl
ATOM     27  C   UNL     1      33.861  -8.662 -23.428  0.00  0.00    +0.003 C 
ATOM     28  C   UNL     1      33.106  -8.591 -22.269  0.00  0.00    +0.009 C 
ATOM     29  C   UNL     1      34.465  -7.539 -23.968  0.00  0.00    -0.002 C 
ATOM     30  C   UNL     1      32.951  -7.359 -21.632  0.00  0.00    +0.057 C 
ATOM     31  C   UNL     1      34.310  -6.309 -23.331  0.00  0.00    +0.001 C 
ATOM     32  C   UNL     1      33.553  -6.218 -22.163  0.00  0.00    +0.011 C 
ENDBRANCH  25  27
BRANCH  25  33
ATOM     33  O   UNL     1      35.417 -10.183 -24.394  0.00  0.00    -0.382 OA
ATOM     34  H   UNL     1      35.527 -10.909 -25.028  0.00  0.00    +0.211 HD
ENDBRANCH  25  33
ENDBRANCH  24  25
ENDBRANCH  21  24
ENDBRANCH  20  21
ENDBRANCH  19  20
ENDBRANCH   1  19
TORSDOF 11
ENDMDL
MODEL 2
REMARK VINA RESULT:     -11.0      1.860      2.134
REMARK  Name = 9887812
REMARK  11 active torsions:
REMARK  status: ('A' for Active; 'I' for Inactive)
REMARK    1  A    between atoms: N_1  and  C_3
REMARK    2  A    between atoms: N_1  and  C_19
REMARK    3  A    between atoms: C_4  and  C_9
REMARK    4  A    between atoms: C_12  and  C_16
REMARK    5  A    between atoms: C_16  and  O_17
REMARK    6  A    between atoms: C_19  and  C_20
REMARK    7  A    between atoms: C_20  and  N_21
REMARK    8  A    between atoms: N_21  and  C_24
REMARK    9  A    between atoms: C_24  and  C_25
REMARK   10  A    between atoms: C_25  and  C_27
REMARK   11  A    between atoms: C_25  and  O_33
REMARK                            x       y       z     vdW  Elec       q    Type
REMARK                         _______ _______ _______ _____ _____    ______ ____
ROOT
ATOM      1  N   UNL     1      35.168 -15.321 -23.030  0.00  0.00    -0.335 N 
ATOM      2  H   UNL     1      36.071 -15.041 -22.753  0.00  0.00    +0.147 HD
ENDROOT
BRANCH   1   3
ATOM      3  C   UNL     1      34.880 -16.700 -23.095  0.00  0.00    +0.045 C 
ATOM      4  C   UNL     1      34.863 -18.885 -22.066  0.00  0.00    +0.001 C 
ATOM      5  C   UNL     1      35.148 -17.521 -22.000  0.00  0.00    +0.014 C 
ATOM      6  C   UNL     1      34.329 -17.243 -24.256  0.00  0.00    +0.014 C 
ATOM      7  C   UNL     1      34.312 -19.429 -23.226  0.00  0.00    +0.000 C 
ATOM      8  C   UNL     1      34.045 -18.606 -24.322  0.00  0.00    +0.001 C 
BRANCH   4   9
ATOM      9  C   UNL     1      35.141 -19.737 -20.930  0.00  0.00    +0.000 C 
ATOM     10  C   UNL     1      34.117 -20.491 -20.356  0.00  0.00    +0.006 C 
ATOM     11  C   UNL     1      36.433 -19.804 -20.409  0.00  0.00    +0.000 C 
ATOM     12  C   UNL     1      34.386 -21.311 -19.261  0.00  0.00    +0.075 C 
ATOM     13  C   UNL     1      36.702 -20.624 -19.313  0.00  0.00    +0.000 C 
ATOM     14  C   UNL     1      35.678 -21.379 -18.739  0.00  0.00    +0.006 C 
BRANCH  12  16
ATOM     15  O   UNL     1      32.260 -21.647 -18.216  0.00  0.00    -0.245 OA
ATOM     16  C   UNL     1      33.320 -22.099 -18.662  0.00  0.00    +0.338 C 
BRANCH  16  17
ATOM     17  O   UNL     1      33.607 -23.430 -18.636  0.00  0.00    -0.477 OA
ATOM     18  H   UNL     1      33.479 -23.921 -17.849  0.00  0.00    +0.295 HD
ENDBRANCH  16  17
ENDBRANCH  12  16
ENDBRANCH   4   9
ENDBRANCH   1   3
BRANCH   1  19
ATOM     19  C   UNL     1      34.206 -14.310 -23.346  0.00  0.00    +0.064 C 
BRANCH  19  20
ATOM     20  C   UNL     1      33.992 -13.412 -22.135  0.00  0.00    -0.060 C 
BRANCH  20  21
ATOM     21  N   UNL     1      32.638 -12.871 -22.137  0.00  0.00    +0.387 N 
ATOM     22  H   UNL     1      32.141 -13.222 -22.955  0.00  0.00    -0.084 HD
ATOM     23  H   UNL     1      32.168 -13.166 -21.281  0.00  0.00    -0.084 HD
BRANCH  21  24
ATOM     24  C   UNL     1      32.660 -11.416 -22.179  0.00  0.00    -0.047 C 
BRANCH  24  25
ATOM     25  C   UNL     1      31.762 -10.826 -21.085  0.00  0.00    +0.112 C 
BRANCH  25  27
ATOM     26 CL   UNL     1      31.354  -6.301 -23.614  0.00  0.00    -0.082 Cl
ATOM     27  C   UNL     1      31.845  -9.315 -21.055  0.00  0.00    +0.003 C 
ATOM     28  C   UNL     1      31.590  -8.602 -22.214  0.00  0.00    +0.009 C 
ATOM     29  C   UNL     1      32.171  -8.679 -19.870  0.00  0.00    -0.002 C 
ATOM     30  C   UNL     1      31.666  -7.209 -22.186  0.00  0.00    +0.057 C 
ATOM     31  C   UNL     1      32.247  -7.287 -19.842  0.00  0.00    +0.001 C 
ATOM     32  C   UNL     1      31.994  -6.552 -20.999  0.00  0.00    +0.011 C 
ENDBRANCH  25  27
BRANCH  25  33
ATOM     33  O   UNL     1      30.402 -11.193 -21.309  0.00  0.00    -0.382 OA
ATOM     34  H   UNL     1      29.986 -11.426 -20.465  0.00  0.00    +0.211 HD
ENDBRANCH  25  33
ENDBRANCH  24  25
ENDBRANCH  21  24
ENDBRANCH  20  21
ENDBRANCH  19  20
ENDBRANCH   1  19
TORSDOF 11
ENDMDL
MODEL 3
REMARK VINA RESULT:     -10.9      4.144     11.846
REMARK  Name = 9887812
REMARK  11 active torsions:
REMARK  status: ('A' for Active; 'I' for Inactive)
REMARK    1  A    between atoms: N_1  and  C_3
REMARK    2  A    between atoms: N_1  and  C_19
REMARK    3  A    between atoms: C_4  and  C_9
REMARK    4  A    between atoms: C_12  and  C_16
REMARK    5  A    between atoms: C_16  and  O_17
REMARK    6  A    between atoms: C_19  and  C_20
REMARK    7  A    between atoms: C_20  and  N_21
REMARK    8  A    between atoms: N_21  and  C_24
REMARK    9  A    between atoms: C_24  and  C_25
REMARK   10  A    between atoms: C_25  and  C_27
REMARK   11  A    between atoms: C_25  and  O_33
REMARK                            x       y       z     vdW  Elec       q    Type
REMARK                         _______ _______ _______ _____ _____    ______ ____
ROOT
ATOM      1  N   UNL     1      31.327 -11.825 -21.385  0.00  0.00    -0.335 N 
ATOM      2  H   UNL     1      30.375 -12.030 -21.525  0.00  0.00    +0.147 HD
ENDROOT
BRANCH   1   3
ATOM      3  C   UNL     1      31.674 -10.570 -20.844  0.00  0.00    +0.045 C 
ATOM      4  C   UNL     1      32.426  -8.295 -21.150  0.00  0.00    +0.001 C 
ATOM      5  C   UNL     1      32.083  -9.536 -21.686  0.00  0.00    +0.014 C 
ATOM      6  C   UNL     1      31.609 -10.363 -19.466  0.00  0.00    +0.014 C 
ATOM      7  C   UNL     1      32.361  -8.087 -19.772  0.00  0.00    +0.000 C 
ATOM      8  C   UNL     1      31.952  -9.122 -18.930  0.00  0.00    +0.001 C 
BRANCH   4   9
ATOM      9  C   UNL     1      32.851  -7.223 -22.023  0.00  0.00    +0.000 C 
ATOM     10  C   UNL     1      32.067  -6.076 -22.154  0.00  0.00    +0.006 C 
ATOM     11  C   UNL     1      34.046  -7.336 -22.735  0.00  0.00    +0.000 C 
ATOM     12  C   UNL     1      32.477  -5.044 -22.997  0.00  0.00    +0.075 C 
ATOM     13  C   UNL     1      34.456  -6.303 -23.578  0.00  0.00    +0.000 C 
ATOM     14  C   UNL     1      33.671  -5.156 -23.709  0.00  0.00    +0.006 C 
BRANCH  12  16
ATOM     15  O   UNL     1      30.910  -3.597 -24.083  0.00  0.00    -0.245 OA
ATOM     16  C   UNL     1      31.660  -3.848 -23.134  0.00  0.00    +0.338 C 
BRANCH  16  17
ATOM     17  O   UNL     1      31.803  -2.997 -22.080  0.00  0.00    -0.477 OA
ATOM     18  H   UNL     1      31.676  -2.077 -22.201  0.00  0.00    +0.295 HD
ENDBRANCH  16  17
ENDBRANCH  12  16
ENDBRANCH   4   9
ENDBRANCH   1   3
BRANCH   1  19
ATOM     19  C   UNL     1      32.299 -12.815 -21.738  0.00  0.00    +0.064 C 
BRANCH  19  20
ATOM     20  C   UNL     1      33.186 -12.284 -22.856  0.00  0.00    -0.060 C 
BRANCH  20  21
ATOM     21  N   UNL     1      34.447 -13.016 -22.893  0.00  0.00    +0.387 N 
ATOM     22  H   UNL     1      34.860 -12.922 -23.821  0.00  0.00    -0.084 HD
ATOM     23  H   UNL     1      35.070 -12.628 -22.185  0.00  0.00    -0.084 HD
BRANCH  21  24
ATOM     24  C   UNL     1      34.237 -14.428 -22.605  0.00  0.00    -0.047 C 
BRANCH  24  25
ATOM     25  C   UNL     1      34.437 -15.277 -23.866  0.00  0.00    +0.112 C 
BRANCH  25  27
ATOM     26 CL   UNL     1      36.498 -18.877 -20.731  0.00  0.00    -0.082 Cl
ATOM     27  C   UNL     1      34.629 -16.738 -23.526  0.00  0.00    +0.003 C 
ATOM     28  C   UNL     1      35.385 -17.080 -22.418  0.00  0.00    +0.009 C 
ATOM     29  C   UNL     1      34.042 -17.702 -24.328  0.00  0.00    -0.002 C 
ATOM     30  C   UNL     1      35.562 -18.428 -22.104  0.00  0.00    +0.057 C 
ATOM     31  C   UNL     1      34.219 -19.049 -24.013  0.00  0.00    +0.001 C 
ATOM     32  C   UNL     1      34.978 -19.413 -22.901  0.00  0.00    +0.011 C 
ENDBRANCH  25  27
BRANCH  25  33
ATOM     33  O   UNL     1      33.301 -15.165 -24.722  0.00  0.00    -0.382 OA
ATOM     34  H   UNL     1      32.541 -14.845 -24.212  0.00  0.00    +0.211 HD
ENDBRANCH  25  33
ENDBRANCH  24  25
ENDBRANCH  21  24
ENDBRANCH  20  21
ENDBRANCH  19  20
ENDBRANCH   1  19
TORSDOF 11
ENDMDL
MODEL 4
REMARK VINA RESULT:     -10.9      4.847      8.151
REMARK  Name = 9887812
REMARK  11 active torsions:
REMARK  status: ('A' for Active; 'I' for Inactive)
REMARK    1  A    between atoms: N_1  and  C_3
REMARK    2  A    between atoms: N_1  and  C_19
REMARK    3  A    between atoms: C_4  and  C_9
REMARK    4  A    between atoms: C_12  and  C_16
REMARK    5  A    between atoms: C_16  and  O_17
REMARK    6  A    between atoms: C_19  and  C_20
REMARK    7  A    between atoms: C_20  and  N_21
REMARK    8  A    between atoms: N_21  and  C_24
REMARK    9  A    between atoms: C_24  and  C_25
REMARK   10  A    between atoms: C_25  and  C_27
REMARK   11  A    between atoms: C_25  and  O_33
REMARK                            x       y       z     vdW  Elec       q    Type
REMARK                         _______ _______ _______ _____ _____    ______ ____
ROOT
ATOM      1  N   UNL     1      34.753 -22.290 -18.823  0.00  0.00    -0.335 N 
ATOM      2  H   UNL     1      34.860 -23.040 -19.452  0.00  0.00    +0.147 HD
ENDROOT
BRANCH   1   3
ATOM      3  C   UNL     1      34.445 -22.578 -17.477  0.00  0.00    +0.045 C 
ATOM      4  C   UNL     1      32.836 -23.201 -15.786  0.00  0.00    +0.001 C 
ATOM      5  C   UNL     1      33.141 -22.917 -17.118  0.00  0.00    +0.014 C 
ATOM      6  C   UNL     1      35.444 -22.524 -16.506  0.00  0.00    +0.014 C 
ATOM      7  C   UNL     1      33.835 -23.147 -14.814  0.00  0.00    +0.000 C 
ATOM      8  C   UNL     1      35.139 -22.808 -15.175  0.00  0.00    +0.001 C 
BRANCH   4   9
ATOM      9  C   UNL     1      31.483 -23.552 -15.414  0.00  0.00    +0.000 C 
ATOM     10  C   UNL     1      30.405 -23.054 -16.147  0.00  0.00    +0.006 C 
ATOM     11  C   UNL     1      31.255 -24.387 -14.320  0.00  0.00    +0.000 C 
ATOM     12  C   UNL     1      29.101 -23.393 -15.787  0.00  0.00    +0.075 C 
ATOM     13  C   UNL     1      29.951 -24.725 -13.960  0.00  0.00    +0.000 C 
ATOM     14  C   UNL     1      28.873 -24.228 -14.693  0.00  0.00    +0.006 C 
BRANCH  12  16
ATOM     15  O   UNL     1      27.567 -21.710 -16.523  0.00  0.00    -0.245 OA
ATOM     16  C   UNL     1      27.977 -22.875 -16.552  0.00  0.00    +0.338 C 
BRANCH  16  17
ATOM     17  O   UNL     1      27.396 -23.828 -17.332  0.00  0.00    -0.477 OA
ATOM     18  H   UNL     1      27.280 -23.676 -18.249  0.00  0.00    +0.295 HD
ENDBRANCH  16  17
ENDBRANCH  12  16
ENDBRANCH   4   9
ENDBRANCH   1   3
BRANCH   1  19
ATOM     19  C   UNL     1      34.922 -20.957 -19.313  0.00  0.00    +0.064 C 
BRANCH  19  20
ATOM     20  C   UNL     1      33.669 -20.527 -20.066  0.00  0.00    -0.060 C 
BRANCH  20  21
ATOM     21  N   UNL     1      34.021 -19.662 -21.185  0.00  0.00    +0.387 N 
ATOM     22  H   UNL     1      34.011 -20.209 -22.045  0.00  0.00    -0.084 HD
ATOM     23  H   UNL     1      33.341 -18.904 -21.237  0.00  0.00    -0.084 HD
BRANCH  21  24
ATOM     24  C   UNL     1      35.347 -19.087 -21.000  0.00  0.00    -0.047 C 
BRANCH  24  25
ATOM     25  C   UNL     1      35.909 -18.575 -22.332  0.00  0.00    +0.112 C 
BRANCH  25  27
ATOM     26 CL   UNL     1      34.362 -13.780 -21.045  0.00  0.00    -0.082 Cl
ATOM     27  C   UNL     1      35.261 -17.272 -22.742  0.00  0.00    +0.003 C 
ATOM     28  C   UNL     1      35.131 -16.257 -21.809  0.00  0.00    +0.009 C 
ATOM     29  C   UNL     1      34.812 -17.120 -24.043  0.00  0.00    -0.002 C 
ATOM     30  C   UNL     1      34.534 -15.055 -22.189  0.00  0.00    +0.057 C 
ATOM     31  C   UNL     1      34.215 -15.919 -24.422  0.00  0.00    +0.001 C 
ATOM     32  C   UNL     1      34.076 -14.886 -23.496  0.00  0.00    +0.011 C 
ENDBRANCH  25  27
BRANCH  25  33
ATOM     33  O   UNL     1      37.315 -18.359 -22.224  0.00  0.00    -0.382 OA
ATOM     34  H   UNL     1      37.697 -18.264 -23.111  0.00  0.00    +0.211 HD
ENDBRANCH  25  33
ENDBRANCH  24  25
ENDBRANCH  21  24
ENDBRANCH  20  21
ENDBRANCH  19  20
ENDBRANCH   1  19
TORSDOF 11
ENDMDL
MODEL 5
REMARK VINA RESULT:     -10.8      7.280     12.202
REMARK  Name = 9887812
REMARK  11 active torsions:
REMARK  status: ('A' for Active; 'I' for Inactive)
REMARK    1  A    between atoms: N_1  and  C_3
REMARK    2  A    between atoms: N_1  and  C_19
REMARK    3  A    between atoms: C_4  and  C_9
REMARK    4  A    between atoms: C_12  and  C_16
REMARK    5  A    between atoms: C_16  and  O_17
REMARK    6  A    between atoms: C_19  and  C_20
REMARK    7  A    between atoms: C_20  and  N_21
REMARK    8  A    between atoms: N_21  and  C_24
REMARK    9  A    between atoms: C_24  and  C_25
REMARK   10  A    between atoms: C_25  and  C_27
REMARK   11  A    between atoms: C_25  and  O_33
REMARK                            x       y       z     vdW  Elec       q    Type
REMARK                         _______ _______ _______ _____ _____    ______ ____
ROOT
ATOM      1  N   UNL     1      36.181 -22.588 -16.923  0.00  0.00    -0.335 N 
ATOM      2  H   UNL     1      36.783 -23.296 -17.247  0.00  0.00    +0.147 HD
ENDROOT
BRANCH   1   3
ATOM      3  C   UNL     1      35.239 -22.042 -17.820  0.00  0.00    +0.045 C 
ATOM      4  C   UNL     1      34.727 -20.647 -19.725  0.00  0.00    +0.001 C 
ATOM      5  C   UNL     1      35.659 -21.186 -18.838  0.00  0.00    +0.014 C 
ATOM      6  C   UNL     1      33.887 -22.358 -17.688  0.00  0.00    +0.014 C 
ATOM      7  C   UNL     1      33.374 -20.962 -19.593  0.00  0.00    +0.000 C 
ATOM      8  C   UNL     1      32.954 -21.818 -18.574  0.00  0.00    +0.001 C 
BRANCH   4   9
ATOM      9  C   UNL     1      35.163 -19.759 -20.780  0.00  0.00    +0.000 C 
ATOM     10  C   UNL     1      34.334 -19.517 -21.877  0.00  0.00    +0.006 C 
ATOM     11  C   UNL     1      36.412 -19.145 -20.702  0.00  0.00    +0.000 C 
ATOM     12  C   UNL     1      34.755 -18.662 -22.894  0.00  0.00    +0.075 C 
ATOM     13  C   UNL     1      36.834 -18.289 -21.720  0.00  0.00    +0.000 C 
ATOM     14  C   UNL     1      36.005 -18.047 -22.816  0.00  0.00    +0.006 C 
BRANCH  12  16
ATOM     15  O   UNL     1      32.896 -19.073 -24.343  0.00  0.00    -0.245 OA
ATOM     16  C   UNL     1      33.892 -18.408 -24.036  0.00  0.00    +0.338 C 
BRANCH  16  17
ATOM     17  O   UNL     1      34.295 -17.331 -24.765  0.00  0.00    -0.477 OA
ATOM     18  H   UNL     1      33.662 -16.804 -25.211  0.00  0.00    +0.295 HD
ENDBRANCH  16  17
ENDBRANCH  12  16
ENDBRANCH   4   9
ENDBRANCH   1   3
BRANCH   1  19
ATOM     19  C   UNL     1      36.298 -22.159 -15.563  0.00  0.00    +0.064 C 
BRANCH  19  20
ATOM     20  C   UNL     1      35.973 -23.320 -14.632  0.00  0.00    -0.060 C 
BRANCH  20  21
ATOM     21  N   UNL     1      34.832 -22.988 -13.787  0.00  0.00    +0.387 N 
ATOM     22  H   UNL     1      34.999 -23.345 -12.846  0.00  0.00    -0.084 HD
ATOM     23  H   UNL     1      34.724 -21.974 -13.768  0.00  0.00    -0.084 HD
BRANCH  21  24
ATOM     24  C   UNL     1      33.608 -23.577 -14.311  0.00  0.00    -0.047 C 
BRANCH  24  25
ATOM     25  C   UNL     1      32.373 -22.914 -13.689  0.00  0.00    +0.112 C 
BRANCH  25  27
ATOM     26 CL   UNL     1      27.872 -22.498 -16.258  0.00  0.00    -0.082 Cl
ATOM     27  C   UNL     1      31.094 -23.562 -14.170  0.00  0.00    +0.003 C 
ATOM     28  C   UNL     1      30.190 -22.813 -14.902  0.00  0.00    +0.009 C 
ATOM     29  C   UNL     1      30.857 -24.893 -13.871  0.00  0.00    -0.002 C 
ATOM     30  C   UNL     1      29.011 -23.412 -15.346  0.00  0.00    +0.057 C 
ATOM     31  C   UNL     1      29.679 -25.492 -14.315  0.00  0.00    +0.001 C 
ATOM     32  C   UNL     1      28.756 -24.751 -15.053  0.00  0.00    +0.011 C 
ENDBRANCH  25  27
BRANCH  25  33
ATOM     33  O   UNL     1      32.419 -23.020 -12.267  0.00  0.00    -0.382 OA
ATOM     34  H   UNL     1      32.759 -22.193 -11.891  0.00  0.00    +0.211 HD
ENDBRANCH  25  33
ENDBRANCH  24  25
ENDBRANCH  21  24
ENDBRANCH  20  21
ENDBRANCH  19  20
ENDBRANCH   1  19
TORSDOF 11
ENDMDL
MODEL 6
REMARK VINA RESULT:     -10.7      3.698     11.763
REMARK  Name = 9887812
REMARK  11 active torsions:
REMARK  status: ('A' for Active; 'I' for Inactive)
REMARK    1  A    between atoms: N_1  and  C_3
REMARK    2  A    between atoms: N_1  and  C_19
REMARK    3  A    between atoms: C_4  and  C_9
REMARK    4  A    between atoms: C_12  and  C_16
REMARK    5  A    between atoms: C_16  and  O_17
REMARK    6  A    between atoms: C_19  and  C_20
REMARK    7  A    between atoms: C_20  and  N_21
REMARK    8  A    between atoms: N_21  and  C_24
REMARK    9  A    between atoms: C_24  and  C_25
REMARK   10  A    between atoms: C_25  and  C_27
REMARK   11  A    between atoms: C_25  and  O_33
REMARK                            x       y       z     vdW  Elec       q    Type
REMARK                         _______ _______ _______ _____ _____    ______ ____
ROOT
ATOM      1  N   UNL     1      34.146 -13.227 -23.459  0.00  0.00    -0.335 N 
ATOM      2  H   UNL     1      34.960 -12.955 -23.942  0.00  0.00    +0.147 HD
ENDROOT
BRANCH   1   3
ATOM      3  C   UNL     1      33.359 -12.228 -22.849  0.00  0.00    +0.045 C 
ATOM      4  C   UNL     1      32.811  -9.896 -22.536  0.00  0.00    +0.001 C 
ATOM      5  C   UNL     1      33.590 -10.884 -23.140  0.00  0.00    +0.014 C 
ATOM      6  C   UNL     1      32.351 -12.584 -21.953  0.00  0.00    +0.014 C 
ATOM      7  C   UNL     1      31.803 -10.252 -21.640  0.00  0.00    +0.000 C 
ATOM      8  C   UNL     1      31.573 -11.597 -21.349  0.00  0.00    +0.001 C 
BRANCH   4   9
ATOM      9  C   UNL     1      33.050  -8.501 -22.838  0.00  0.00    +0.000 C 
ATOM     10  C   UNL     1      32.023  -7.569 -22.691  0.00  0.00    +0.006 C 
ATOM     11  C   UNL     1      34.309  -8.090 -23.276  0.00  0.00    +0.000 C 
ATOM     12  C   UNL     1      32.255  -6.225 -22.983  0.00  0.00    +0.075 C 
ATOM     13  C   UNL     1      34.540  -6.745 -23.568  0.00  0.00    +0.000 C 
ATOM     14  C   UNL     1      33.513  -5.812 -23.421  0.00  0.00    +0.006 C 
BRANCH  12  16
ATOM     15  O   UNL     1      30.493  -5.102 -21.817  0.00  0.00    -0.245 OA
ATOM     16  C   UNL     1      31.185  -5.252 -22.830  0.00  0.00    +0.338 C 
BRANCH  16  17
ATOM     17  O   UNL     1      31.007  -4.492 -23.946  0.00  0.00    -0.477 OA
ATOM     18  H   UNL     1      31.745  -4.247 -24.467  0.00  0.00    +0.295 HD
ENDBRANCH  16  17
ENDBRANCH  12  16
ENDBRANCH   4   9
ENDBRANCH   1   3
BRANCH   1  19
ATOM     19  C   UNL     1      33.813 -14.617 -23.409  0.00  0.00    +0.064 C 
BRANCH  19  20
ATOM     20  C   UNL     1      34.933 -15.387 -22.722  0.00  0.00    -0.060 C 
BRANCH  20  21
ATOM     21  N   UNL     1      35.318 -16.543 -23.522  0.00  0.00    +0.387 N 
ATOM     22  H   UNL     1      34.782 -16.542 -24.390  0.00  0.00    -0.084 HD
ATOM     23  H   UNL     1      36.316 -16.484 -23.720  0.00  0.00    -0.084 HD
BRANCH  21  24
ATOM     24  C   UNL     1      35.058 -17.783 -22.803  0.00  0.00    -0.047 C 
BRANCH  24  25
ATOM     25  C   UNL     1      36.089 -17.991 -21.686  0.00  0.00    +0.112 C 
BRANCH  25  27
ATOM     26 CL   UNL     1      32.410 -21.075 -19.686  0.00  0.00    -0.082 Cl
ATOM     27  C   UNL     1      35.724 -19.169 -20.809  0.00  0.00    +0.003 C 
ATOM     28  C   UNL     1      34.394 -19.526 -20.675  0.00  0.00    +0.009 C 
ATOM     29  C   UNL     1      36.730 -19.865 -20.161  0.00  0.00    -0.002 C 
ATOM     30  C   UNL     1      34.059 -20.613 -19.867  0.00  0.00    +0.057 C 
ATOM     31  C   UNL     1      36.395 -20.951 -19.353  0.00  0.00    +0.001 C 
ATOM     32  C   UNL     1      35.059 -21.325 -19.206  0.00  0.00    +0.011 C 
ENDBRANCH  25  27
BRANCH  25  33
ATOM     33  O   UNL     1      37.379 -18.233 -22.243  0.00  0.00    -0.382 OA
ATOM     34  H   UNL     1      37.738 -17.405 -22.599  0.00  0.00    +0.211 HD
ENDBRANCH  25  33
ENDBRANCH  24  25
ENDBRANCH  21  24
ENDBRANCH  20  21
ENDBRANCH  19  20
ENDBRANCH   1  19
TORSDOF 11
ENDMDL
MODEL 7
REMARK VINA RESULT:     -10.7      5.686      9.359
REMARK  Name = 9887812
REMARK  11 active torsions:
REMARK  status: ('A' for Active; 'I' for Inactive)
REMARK    1  A    between atoms: N_1  and  C_3
REMARK    2  A    between atoms: N_1  and  C_19
REMARK    3  A    between atoms: C_4  and  C_9
REMARK    4  A    between atoms: C_12  and  C_16
REMARK    5  A    between atoms: C_16  and  O_17
REMARK    6  A    between atoms: C_19  and  C_20
REMARK    7  A    between atoms: C_20  and  N_21
REMARK    8  A    between atoms: N_21  and  C_24
REMARK    9  A    between atoms: C_24  and  C_25
REMARK   10  A    between atoms: C_25  and  C_27
REMARK   11  A    between atoms: C_25  and  O_33
REMARK                            x       y       z     vdW  Elec       q    Type
REMARK                         _______ _______ _______ _____ _____    ______ ____
ROOT
ATOM      1  N   UNL     1      32.713 -22.754 -18.115  0.00  0.00    -0.335 N 
ATOM      2  H   UNL     1      32.296 -23.386 -18.743  0.00  0.00    +0.147 HD
ENDROOT
BRANCH   1   3
ATOM      3  C   UNL     1      32.614 -23.013 -16.733  0.00  0.00    +0.045 C 
ATOM      4  C   UNL     1      33.626 -23.733 -14.660  0.00  0.00    +0.001 C 
ATOM      5  C   UNL     1      33.725 -23.477 -16.028  0.00  0.00    +0.014 C 
ATOM      6  C   UNL     1      31.405 -22.806 -16.069  0.00  0.00    +0.014 C 
ATOM      7  C   UNL     1      32.416 -23.526 -13.997  0.00  0.00    +0.000 C 
ATOM      8  C   UNL     1      31.305 -23.063 -14.702  0.00  0.00    +0.001 C 
BRANCH   4   9
ATOM      9  C   UNL     1      34.778 -24.215 -13.930  0.00  0.00    +0.000 C 
ATOM     10  C   UNL     1      34.813 -24.118 -12.538  0.00  0.00    +0.006 C 
ATOM     11  C   UNL     1      35.854 -24.775 -14.618  0.00  0.00    +0.000 C 
ATOM     12  C   UNL     1      35.925 -24.582 -11.836  0.00  0.00    +0.075 C 
ATOM     13  C   UNL     1      36.966 -25.239 -13.914  0.00  0.00    +0.000 C 
ATOM     14  C   UNL     1      37.002 -25.143 -12.523  0.00  0.00    +0.006 C 
BRANCH  12  16
ATOM     15  O   UNL     1      35.236 -25.109  -9.606  0.00  0.00    -0.245 OA
ATOM     16  C   UNL     1      35.962 -24.483 -10.385  0.00  0.00    +0.338 C 
BRANCH  16  17
ATOM     17  O   UNL     1      36.905 -23.604  -9.947  0.00  0.00    -0.477 OA
ATOM     18  H   UNL     1      37.114 -23.558  -9.035  0.00  0.00    +0.295 HD
ENDBRANCH  16  17
ENDBRANCH  12  16
ENDBRANCH   4   9
ENDBRANCH   1   3
BRANCH   1  19
ATOM     19  C   UNL     1      33.396 -21.613 -18.646  0.00  0.00    +0.064 C 
BRANCH  19  20
ATOM     20  C   UNL     1      34.803 -22.012 -19.070  0.00  0.00    -0.060 C 
BRANCH  20  21
ATOM     21  N   UNL     1      35.606 -20.825 -19.340  0.00  0.00    +0.387 N 
ATOM     22  H   UNL     1      35.740 -20.309 -18.470  0.00  0.00    -0.084 HD
ATOM     23  H   UNL     1      36.505 -21.120 -19.720  0.00  0.00    -0.084 HD
BRANCH  21  24
ATOM     24  C   UNL     1      34.949 -19.962 -20.311  0.00  0.00    -0.047 C 
BRANCH  24  25
ATOM     25  C   UNL     1      35.980 -19.154 -21.109  0.00  0.00    +0.112 C 
BRANCH  25  27
ATOM     26 CL   UNL     1      34.734 -14.529 -23.130  0.00  0.00    -0.082 Cl
ATOM     27  C   UNL     1      35.325 -18.362 -22.218  0.00  0.00    +0.003 C 
ATOM     28  C   UNL     1      35.336 -16.979 -22.159  0.00  0.00    +0.009 C 
ATOM     29  C   UNL     1      34.730 -19.037 -23.270  0.00  0.00    -0.002 C 
ATOM     30  C   UNL     1      34.732 -16.249 -23.183  0.00  0.00    +0.057 C 
ATOM     31  C   UNL     1      34.126 -18.307 -24.293  0.00  0.00    +0.001 C 
ATOM     32  C   UNL     1      34.127 -16.913 -24.250  0.00  0.00    +0.011 C 
ENDBRANCH  25  27
BRANCH  25  33
ATOM     33  O   UNL     1      36.663 -18.241 -20.252  0.00  0.00    -0.382 OA
ATOM     34  H   UNL     1      37.604 -18.472 -20.216  0.00  0.00    +0.211 HD
ENDBRANCH  25  33
ENDBRANCH  24  25
ENDBRANCH  21  24
ENDBRANCH  20  21
ENDBRANCH  19  20
ENDBRANCH   1  19
TORSDOF 11
ENDMDL
MODEL 8
REMARK VINA RESULT:     -10.6      6.851     12.271
REMARK  Name = 9887812
REMARK  11 active torsions:
REMARK  status: ('A' for Active; 'I' for Inactive)
REMARK    1  A    between atoms: N_1  and  C_3
REMARK    2  A    between atoms: N_1  and  C_19
REMARK    3  A    between atoms: C_4  and  C_9
REMARK    4  A    between atoms: C_12  and  C_16
REMARK    5  A    between atoms: C_16  and  O_17
REMARK    6  A    between atoms: C_19  and  C_20
REMARK    7  A    between atoms: C_20  and  N_21
REMARK    8  A    between atoms: N_21  and  C_24
REMARK    9  A    between atoms: C_24  and  C_25
REMARK   10  A    between atoms: C_25  and  C_27
REMARK   11  A    between atoms: C_25  and  O_33
REMARK                            x       y       z     vdW  Elec       q    Type
REMARK                         _______ _______ _______ _____ _____    ______ ____
ROOT
ATOM      1  N   UNL     1      32.648 -22.305 -18.170  0.00  0.00    -0.335 N 
ATOM      2  H   UNL     1      31.826 -22.135 -18.684  0.00  0.00    +0.147 HD
ENDROOT
BRANCH   1   3
ATOM      3  C   UNL     1      33.856 -21.734 -18.622  0.00  0.00    +0.045 C 
ATOM      4  C   UNL     1      35.031 -20.188 -20.059  0.00  0.00    +0.001 C 
ATOM      5  C   UNL     1      33.836 -20.753 -19.612  0.00  0.00    +0.014 C 
ATOM      6  C   UNL     1      35.071 -22.151 -18.078  0.00  0.00    +0.014 C 
ATOM      7  C   UNL     1      36.246 -20.605 -19.515  0.00  0.00    +0.000 C 
ATOM      8  C   UNL     1      36.265 -21.587 -18.524  0.00  0.00    +0.001 C 
BRANCH   4   9
ATOM      9  C   UNL     1      35.010 -19.170 -21.087  0.00  0.00    +0.000 C 
ATOM     10  C   UNL     1      34.343 -19.407 -22.290  0.00  0.00    +0.006 C 
ATOM     11  C   UNL     1      35.657 -17.953 -20.875  0.00  0.00    +0.000 C 
ATOM     12  C   UNL     1      34.324 -18.425 -23.280  0.00  0.00    +0.075 C 
ATOM     13  C   UNL     1      35.638 -16.971 -21.867  0.00  0.00    +0.000 C 
ATOM     14  C   UNL     1      34.971 -17.208 -23.070  0.00  0.00    +0.006 C 
BRANCH  12  16
ATOM     15  O   UNL     1      32.756 -17.944 -25.023  0.00  0.00    -0.245 OA
ATOM     16  C   UNL     1      33.628 -18.670 -24.534  0.00  0.00    +0.338 C 
BRANCH  16  17
ATOM     17  O   UNL     1      34.041 -19.816 -25.143  0.00  0.00    -0.477 OA
ATOM     18  H   UNL     1      33.915 -20.642 -24.721  0.00  0.00    +0.295 HD
ENDBRANCH  16  17
ENDBRANCH  12  16
ENDBRANCH   4   9
ENDBRANCH   1   3
BRANCH   1  19
ATOM     19  C   UNL     1      32.564 -23.120 -16.997  0.00  0.00    +0.064 C 
BRANCH  19  20
ATOM     20  C   UNL     1      31.292 -22.784 -16.231  0.00  0.00    -0.060 C 
BRANCH  20  21
ATOM     21  N   UNL     1      31.186 -23.611 -15.035  0.00  0.00    +0.387 N 
ATOM     22  H   UNL     1      30.251 -23.509 -14.641  0.00  0.00    -0.084 HD
ATOM     23  H   UNL     1      31.360 -24.582 -15.294  0.00  0.00    -0.084 HD
BRANCH  21  24
ATOM     24  C   UNL     1      32.170 -23.210 -14.038  0.00  0.00    -0.047 C 
BRANCH  24  25
ATOM     25  C   UNL     1      33.060 -24.395 -13.645  0.00  0.00    +0.112 C 
BRANCH  25  27
ATOM     26 CL   UNL     1      37.598 -22.563 -15.404  0.00  0.00    -0.082 Cl
ATOM     27  C   UNL     1      34.476 -23.951 -13.352  0.00  0.00    +0.003 C 
ATOM     28  C   UNL     1      35.278 -23.517 -14.394  0.00  0.00    +0.009 C 
ATOM     29  C   UNL     1      34.940 -23.985 -12.048  0.00  0.00    -0.002 C 
ATOM     30  C   UNL     1      36.583 -23.106 -14.123  0.00  0.00    +0.057 C 
ATOM     31  C   UNL     1      36.245 -23.574 -11.778  0.00  0.00    +0.001 C 
ATOM     32  C   UNL     1      37.066 -23.135 -12.815  0.00  0.00    +0.011 C 
ENDBRANCH  25  27
BRANCH  25  33
ATOM     33  O   UNL     1      32.544 -25.036 -12.479  0.00  0.00    -0.382 OA
ATOM     34  H   UNL     1      32.529 -25.996 -12.617  0.00  0.00    +0.211 HD
ENDBRANCH  25  33
ENDBRANCH  24  25
ENDBRANCH  21  24
ENDBRANCH  20  21
ENDBRANCH  19  20
ENDBRANCH   1  19
TORSDOF 11
ENDMDL
MODEL 9
REMARK VINA RESULT:     -10.5      5.961     12.047
REMARK  Name = 9887812
REMARK  11 active torsions:
REMARK  status: ('A' for Active; 'I' for Inactive)
REMARK    1  A    between atoms: N_1  and  C_3
REMARK    2  A    between atoms: N_1  and  C_19
REMARK    3  A    between atoms: C_4  and  C_9
REMARK    4  A    between atoms: C_12  and  C_16
REMARK    5  A    between atoms: C_16  and  O_17
REMARK    6  A    between atoms: C_19  and  C_20
REMARK    7  A    between atoms: C_20  and  N_21
REMARK    8  A    between atoms: N_21  and  C_24
REMARK    9  A    between atoms: C_24  and  C_25
REMARK   10  A    between atoms: C_25  and  C_27
REMARK   11  A    between atoms: C_25  and  O_33
REMARK                            x       y       z     vdW  Elec       q    Type
REMARK                         _______ _______ _______ _____ _____    ______ ____
ROOT
ATOM      1  N   UNL     1      32.707 -22.025 -18.325  0.00  0.00    -0.335 N 
ATOM      2  H   UNL     1      31.828 -21.758 -18.678  0.00  0.00    +0.147 HD
ENDROOT
BRANCH   1   3
ATOM      3  C   UNL     1      33.864 -21.481 -18.918  0.00  0.00    +0.045 C 
ATOM      4  C   UNL     1      34.897 -20.092 -20.604  0.00  0.00    +0.001 C 
ATOM      5  C   UNL     1      33.751 -20.630 -20.018  0.00  0.00    +0.014 C 
ATOM      6  C   UNL     1      35.124 -21.794 -18.406  0.00  0.00    +0.014 C 
ATOM      7  C   UNL     1      36.156 -20.405 -20.092  0.00  0.00    +0.000 C 
ATOM      8  C   UNL     1      36.269 -21.257 -18.993  0.00  0.00    +0.001 C 
BRANCH   4   9
ATOM      9  C   UNL     1      34.779 -19.210 -21.745  0.00  0.00    +0.000 C 
ATOM     10  C   UNL     1      34.927 -17.832 -21.581  0.00  0.00    +0.006 C 
ATOM     11  C   UNL     1      34.516 -19.738 -23.009  0.00  0.00    +0.000 C 
ATOM     12  C   UNL     1      34.812 -16.983 -22.681  0.00  0.00    +0.075 C 
ATOM     13  C   UNL     1      34.402 -18.888 -24.110  0.00  0.00    +0.000 C 
ATOM     14  C   UNL     1      34.550 -17.510 -23.945  0.00  0.00    +0.006 C 
BRANCH  12  16
ATOM     15  O   UNL     1      34.676 -14.911 -21.492  0.00  0.00    -0.245 OA
ATOM     16  C   UNL     1      34.968 -15.547 -22.510  0.00  0.00    +0.338 C 
BRANCH  16  17
ATOM     17  O   UNL     1      35.483 -14.944 -23.618  0.00  0.00    -0.477 OA
ATOM     18  H   UNL     1      35.878 -14.098 -23.548  0.00  0.00    +0.295 HD
ENDBRANCH  16  17
ENDBRANCH  12  16
ENDBRANCH   4   9
ENDBRANCH   1   3
BRANCH   1  19
ATOM     19  C   UNL     1      32.754 -22.946 -17.231  0.00  0.00    +0.064 C 
BRANCH  19  20
ATOM     20  C   UNL     1      31.454 -22.867 -16.440  0.00  0.00    -0.060 C 
BRANCH  20  21
ATOM     21  N   UNL     1      31.621 -23.481 -15.128  0.00  0.00    +0.387 N 
ATOM     22  H   UNL     1      30.759 -23.367 -14.596  0.00  0.00    -0.084 HD
ATOM     23  H   UNL     1      31.833 -24.470 -15.256  0.00  0.00    -0.084 HD
BRANCH  21  24
ATOM     24  C   UNL     1      32.718 -22.859 -14.400  0.00  0.00    -0.047 C 
BRANCH  24  25
ATOM     25  C   UNL     1      33.572 -23.919 -13.692  0.00  0.00    +0.112 C 
BRANCH  25  27
ATOM     26 CL   UNL     1      37.468 -21.150 -15.741  0.00  0.00    -0.082 Cl
ATOM     27  C   UNL     1      35.017 -23.850 -14.134  0.00  0.00    +0.003 C 
ATOM     28  C   UNL     1      35.506 -22.670 -14.668  0.00  0.00    +0.009 C 
ATOM     29  C   UNL     1      35.821 -24.968 -13.993  0.00  0.00    -0.002 C 
ATOM     30  C   UNL     1      36.839 -22.607 -15.075  0.00  0.00    +0.057 C 
ATOM     31  C   UNL     1      37.154 -24.905 -14.400  0.00  0.00    +0.001 C 
ATOM     32  C   UNL     1      37.663 -23.725 -14.940  0.00  0.00    +0.011 C 
ENDBRANCH  25  27
BRANCH  25  33
ATOM     33  O   UNL     1      33.528 -23.727 -12.280  0.00  0.00    -0.382 OA
ATOM     34  H   UNL     1      33.666 -24.577 -11.833  0.00  0.00    +0.211 HD
ENDBRANCH  25  33
ENDBRANCH  24  25
ENDBRANCH  21  24
ENDBRANCH  20  21
ENDBRANCH  19  20
ENDBRANCH   1  19
TORSDOF 11
ENDMDL
