MODEL 1
REMARK VINA RESULT:     -10.7      0.000      0.000
REMARK  Name = 5497056
REMARK  11 active torsions:
REMARK  status: ('A' for Active; 'I' for Inactive)
REMARK    1  A    between atoms: N_2  and  C_22
REMARK    2  A    between atoms: C_3  and  C_5
REMARK    3  A    between atoms: C_8  and  C_11
REMARK    4  A    between atoms: C_13  and  C_17
REMARK    5  A    between atoms: C_17  and  N_18
REMARK    6  A    between atoms: C_22  and  C_24
REMARK    7  A    between atoms: C_24  and  C_26
REMARK    8  A    between atoms: C_24  and  C_29
REMARK    9  A    between atoms: C_26  and  O_27
REMARK   10  A    between atoms: C_29  and  C_30
REMARK   11  A    between atoms: C_33  and  C_38
REMARK                            x       y       z     vdW  Elec       q    Type
REMARK                         _______ _______ _______ _____ _____    ______ ____
ROOT
ATOM      1  O   UNL     1      33.437 -10.805 -25.426  0.00  0.00    -0.270 OA
ATOM      2  N   UNL     1      33.392 -10.384 -23.146  0.00  0.00    -0.302 N 
ATOM      3  C   UNL     1      33.536 -11.191 -24.264  0.00  0.00    +0.246 C 
ATOM      4  H   UNL     1      33.490 -10.789 -22.254  0.00  0.00    +0.150 HD
ENDROOT
BRANCH   3   5
ATOM      5  C   UNL     1      33.802 -12.627 -23.997  0.00  0.00    +0.053 C 
ATOM      6  C   UNL     1      33.597 -13.573 -25.001  0.00  0.00    +0.005 C 
ATOM      7  C   UNL     1      34.258 -13.031 -22.742  0.00  0.00    +0.005 C 
ATOM      8  C   UNL     1      34.304 -15.326 -23.496  0.00  0.00    -0.000 C 
ATOM      9  C   UNL     1      33.847 -14.923 -24.750  0.00  0.00    +0.000 C 
ATOM     10  C   UNL     1      34.509 -14.380 -22.491  0.00  0.00    +0.000 C 
BRANCH   8  11
ATOM     11  C   UNL     1      34.564 -16.726 -23.237  0.00  0.00    -0.000 C 
ATOM     12  C   UNL     1      35.319 -17.102 -22.127  0.00  0.00    -0.006 C 
ATOM     13  C   UNL     1      35.569 -18.451 -21.879  0.00  0.00    -0.044 C 
ATOM     14  C   UNL     1      34.059 -17.699 -24.100  0.00  0.00    -0.000 C 
ATOM     15  C   UNL     1      35.065 -19.425 -22.742  0.00  0.00    -0.006 C 
ATOM     16  C   UNL     1      34.309 -19.048 -23.852  0.00  0.00    -0.000 C 
BRANCH  13  17
ATOM     17  C   UNL     1      36.376 -18.854 -20.691  0.00  0.00    -0.059 C 
BRANCH  17  18
ATOM     18  N   UNL     1      35.793 -19.994 -19.981  0.00  0.00    +0.383 N 
ATOM     19  H   UNL     1      35.287 -19.662 -19.161  0.00  0.00    -0.089 HD
ATOM     20  H   UNL     1      36.536 -20.629 -19.689  0.00  0.00    -0.089 HD
ATOM     21  H   UNL     1      35.151 -20.487 -20.602  0.00  0.00    -0.089 HD
ENDBRANCH  17  18
ENDBRANCH  13  17
ENDBRANCH   8  11
ENDBRANCH   3   5
BRANCH   2  22
ATOM     22  C   UNL     1      33.106  -8.971 -23.241  0.00  0.00    +0.083 C 
ATOM     23  C   UNL     1      34.407  -8.170 -23.241  0.00  0.00    +0.022 C 
BRANCH  22  24
ATOM     24  C   UNL     1      32.120  -8.491 -22.153  0.00  0.00    +0.121 C 
BRANCH  24  26
ATOM     25  O   UNL     1      30.819 -10.514 -21.759  0.00  0.00    -0.250 OA
ATOM     26  C   UNL     1      31.587  -9.660 -21.332  0.00  0.00    +0.319 C 
BRANCH  26  27
ATOM     27  O   UNL     1      32.093  -9.603 -20.066  0.00  0.00    -0.444 OA
ATOM     28  C   UNL     1      32.319  -8.285 -19.553  0.00  0.00    +0.256 C 
ENDBRANCH  26  27
ENDBRANCH  24  26
BRANCH  24  29
ATOM     29  C   UNL     1      30.946  -7.689 -22.749  0.00  0.00    +0.039 C 
BRANCH  29  30
ATOM     30  C   UNL     1      31.286  -6.234 -22.979  0.00  0.00    -0.021 C 
ATOM     31  C   UNL     1      31.637  -5.793 -24.254  0.00  0.00    -0.002 C 
ATOM     32  C   UNL     1      31.252  -5.334 -21.914  0.00  0.00    -0.004 C 
ATOM     33  C   UNL     1      31.953  -4.451 -24.466  0.00  0.00    +0.030 C 
ATOM     34  C   UNL     1      31.569  -3.991 -22.126  0.00  0.00    -0.000 C 
ATOM     35  C   UNL     1      31.919  -3.549 -23.401  0.00  0.00    +0.003 C 
BRANCH  33  38
ATOM     36  N   UNL     1      31.844  -2.781 -26.301  0.00  0.00    -0.343 N 
ATOM     37  N   UNL     1      33.116  -4.725 -26.551  0.00  0.00    -0.285 NA
ATOM     38  C   UNL     1      32.319  -3.990 -25.796  0.00  0.00    +0.117 C 
ATOM     39  H   UNL     1      32.104  -2.489 -27.205  0.00  0.00    +0.144 HD
ATOM     40  H   UNL     1      31.246  -2.220 -25.755  0.00  0.00    +0.144 HD
ATOM     41  H   UNL     1      33.365  -4.415 -27.451  0.00  0.00    +0.188 HD
ENDBRANCH  33  38
ENDBRANCH  29  30
ENDBRANCH  24  29
ENDBRANCH  22  24
ENDBRANCH   2  22
TORSDOF 11
ENDMDL
MODEL 2
REMARK VINA RESULT:     -10.7      9.429     15.884
REMARK  Name = 5497056
REMARK  11 active torsions:
REMARK  status: ('A' for Active; 'I' for Inactive)
REMARK    1  A    between atoms: N_2  and  C_22
REMARK    2  A    between atoms: C_3  and  C_5
REMARK    3  A    between atoms: C_8  and  C_11
REMARK    4  A    between atoms: C_13  and  C_17
REMARK    5  A    between atoms: C_17  and  N_18
REMARK    6  A    between atoms: C_22  and  C_24
REMARK    7  A    between atoms: C_24  and  C_26
REMARK    8  A    between atoms: C_24  and  C_29
REMARK    9  A    between atoms: C_26  and  O_27
REMARK   10  A    between atoms: C_29  and  C_30
REMARK   11  A    between atoms: C_33  and  C_38
REMARK                            x       y       z     vdW  Elec       q    Type
REMARK                         _______ _______ _______ _____ _____    ______ ____
ROOT
ATOM      1  O   UNL     1      33.113 -24.303 -17.113  0.00  0.00    -0.270 OA
ATOM      2  N   UNL     1      31.591 -22.641 -16.566  0.00  0.00    -0.302 N 
ATOM      3  C   UNL     1      32.682 -23.161 -17.246  0.00  0.00    +0.246 C 
ATOM      4  H   UNL     1      31.323 -21.710 -16.742  0.00  0.00    +0.150 HD
ENDROOT
BRANCH   3   5
ATOM      5  C   UNL     1      33.371 -22.230 -18.176  0.00  0.00    +0.053 C 
ATOM      6  C   UNL     1      34.764 -22.216 -18.244  0.00  0.00    +0.005 C 
ATOM      7  C   UNL     1      32.625 -21.370 -18.982  0.00  0.00    +0.005 C 
ATOM      8  C   UNL     1      34.665 -20.482 -19.923  0.00  0.00    -0.000 C 
ATOM      9  C   UNL     1      35.411 -21.341 -19.117  0.00  0.00    +0.000 C 
ATOM     10  C   UNL     1      33.271 -20.496 -19.855  0.00  0.00    +0.000 C 
BRANCH   8  11
ATOM     11  C   UNL     1      35.337 -19.576 -20.830  0.00  0.00    -0.000 C 
ATOM     12  C   UNL     1      34.645 -19.027 -21.908  0.00  0.00    -0.006 C 
ATOM     13  C   UNL     1      35.294 -18.154 -22.781  0.00  0.00    -0.044 C 
ATOM     14  C   UNL     1      36.678 -19.253 -20.623  0.00  0.00    -0.000 C 
ATOM     15  C   UNL     1      36.635 -17.831 -22.576  0.00  0.00    -0.006 C 
ATOM     16  C   UNL     1      37.327 -18.380 -21.496  0.00  0.00    -0.000 C 
BRANCH  13  17
ATOM     17  C   UNL     1      34.553 -17.565 -23.934  0.00  0.00    -0.059 C 
BRANCH  17  18
ATOM     18  N   UNL     1      35.048 -16.236 -24.295  0.00  0.00    +0.383 N 
ATOM     19  H   UNL     1      34.311 -15.716 -24.772  0.00  0.00    -0.089 HD
ATOM     20  H   UNL     1      35.854 -16.328 -24.914  0.00  0.00    -0.089 HD
ATOM     21  H   UNL     1      35.325 -15.736 -23.450  0.00  0.00    -0.089 HD
ENDBRANCH  17  18
ENDBRANCH  13  17
ENDBRANCH   8  11
ENDBRANCH   3   5
BRANCH   2  22
ATOM     22  C   UNL     1      30.834 -23.414 -15.609  0.00  0.00    +0.083 C 
ATOM     23  C   UNL     1      29.690 -22.574 -15.044  0.00  0.00    +0.022 C 
BRANCH  22  24
ATOM     24  C   UNL     1      31.722 -24.020 -14.499  0.00  0.00    +0.121 C 
BRANCH  24  26
ATOM     25  O   UNL     1      30.866 -24.695 -12.320  0.00  0.00    -0.250 OA
ATOM     26  C   UNL     1      30.900 -24.865 -13.532  0.00  0.00    +0.319 C 
BRANCH  26  27
ATOM     27  O   UNL     1      30.222 -25.826 -14.223  0.00  0.00    -0.444 OA
ATOM     28  C   UNL     1      28.799 -25.811 -14.064  0.00  0.00    +0.256 C 
ENDBRANCH  26  27
ENDBRANCH  24  26
BRANCH  24  29
ATOM     29  C   UNL     1      32.497 -22.936 -13.723  0.00  0.00    +0.039 C 
BRANCH  29  30
ATOM     30  C   UNL     1      33.960 -23.274 -13.548  0.00  0.00    -0.021 C 
ATOM     31  C   UNL     1      34.409 -23.829 -12.350  0.00  0.00    -0.002 C 
ATOM     32  C   UNL     1      34.861 -23.030 -14.585  0.00  0.00    -0.004 C 
ATOM     33  C   UNL     1      35.760 -24.139 -12.188  0.00  0.00    +0.030 C 
ATOM     34  C   UNL     1      36.211 -23.340 -14.422  0.00  0.00    -0.000 C 
ATOM     35  C   UNL     1      36.661 -23.895 -13.225  0.00  0.00    +0.003 C 
BRANCH  33  38
ATOM     36  N   UNL     1      37.590 -24.832 -10.659  0.00  0.00    -0.343 N 
ATOM     37  N   UNL     1      35.358 -25.145 -10.043  0.00  0.00    -0.285 NA
ATOM     38  C   UNL     1      36.229 -24.716 -10.939  0.00  0.00    +0.117 C 
ATOM     39  H   UNL     1      37.886 -25.227  -9.808  0.00  0.00    +0.144 HD
ATOM     40  H   UNL     1      38.256 -24.522 -11.316  0.00  0.00    +0.144 HD
ATOM     41  H   UNL     1      35.674 -25.535  -9.197  0.00  0.00    +0.188 HD
ENDBRANCH  33  38
ENDBRANCH  29  30
ENDBRANCH  24  29
ENDBRANCH  22  24
ENDBRANCH   2  22
TORSDOF 11
ENDMDL
MODEL 3
REMARK VINA RESULT:     -10.5      9.713     15.785
REMARK  Name = 5497056
REMARK  11 active torsions:
REMARK  status: ('A' for Active; 'I' for Inactive)
REMARK    1  A    between atoms: N_2  and  C_22
REMARK    2  A    between atoms: C_3  and  C_5
REMARK    3  A    between atoms: C_8  and  C_11
REMARK    4  A    between atoms: C_13  and  C_17
REMARK    5  A    between atoms: C_17  and  N_18
REMARK    6  A    between atoms: C_22  and  C_24
REMARK    7  A    between atoms: C_24  and  C_26
REMARK    8  A    between atoms: C_24  and  C_29
REMARK    9  A    between atoms: C_26  and  O_27
REMARK   10  A    between atoms: C_29  and  C_30
REMARK   11  A    between atoms: C_33  and  C_38
REMARK                            x       y       z     vdW  Elec       q    Type
REMARK                         _______ _______ _______ _____ _____    ______ ____
ROOT
ATOM      1  O   UNL     1      33.091 -24.314 -17.145  0.00  0.00    -0.270 OA
ATOM      2  N   UNL     1      31.720 -22.597 -16.407  0.00  0.00    -0.302 N 
ATOM      3  C   UNL     1      32.713 -23.148 -17.202  0.00  0.00    +0.246 C 
ATOM      4  H   UNL     1      31.488 -21.647 -16.528  0.00  0.00    +0.150 HD
ENDROOT
BRANCH   3   5
ATOM      5  C   UNL     1      33.362 -22.221 -18.163  0.00  0.00    +0.053 C 
ATOM      6  C   UNL     1      34.753 -22.188 -18.270  0.00  0.00    +0.005 C 
ATOM      7  C   UNL     1      32.582 -21.382 -18.960  0.00  0.00    +0.005 C 
ATOM      8  C   UNL     1      34.583 -20.480 -19.970  0.00  0.00    -0.000 C 
ATOM      9  C   UNL     1      35.363 -21.317 -19.173  0.00  0.00    +0.000 C 
ATOM     10  C   UNL     1      33.193 -20.512 -19.863  0.00  0.00    +0.000 C 
BRANCH   8  11
ATOM     11  C   UNL     1      35.217 -19.578 -20.908  0.00  0.00    -0.000 C 
ATOM     12  C   UNL     1      34.504 -19.097 -22.004  0.00  0.00    -0.006 C 
ATOM     13  C   UNL     1      35.116 -18.227 -22.907  0.00  0.00    -0.044 C 
ATOM     14  C   UNL     1      36.543 -19.191 -20.712  0.00  0.00    -0.000 C 
ATOM     15  C   UNL     1      36.442 -17.840 -22.713  0.00  0.00    -0.006 C 
ATOM     16  C   UNL     1      37.156 -18.321 -21.615  0.00  0.00    -0.000 C 
BRANCH  13  17
ATOM     17  C   UNL     1      34.353 -17.711 -24.080  0.00  0.00    -0.059 C 
BRANCH  17  18
ATOM     18  N   UNL     1      33.277 -18.616 -24.488  0.00  0.00    +0.383 N 
ATOM     19  H   UNL     1      33.192 -18.606 -25.504  0.00  0.00    -0.089 HD
ATOM     20  H   UNL     1      32.398 -18.311 -24.070  0.00  0.00    -0.089 HD
ATOM     21  H   UNL     1      33.493 -19.563 -24.173  0.00  0.00    -0.089 HD
ENDBRANCH  17  18
ENDBRANCH  13  17
ENDBRANCH   8  11
ENDBRANCH   3   5
BRANCH   2  22
ATOM     22  C   UNL     1      31.013 -23.363 -15.407  0.00  0.00    +0.083 C 
ATOM     23  C   UNL     1      30.105 -22.447 -14.587  0.00  0.00    +0.022 C 
BRANCH  22  24
ATOM     24  C   UNL     1      31.961 -24.198 -14.518  0.00  0.00    +0.121 C 
BRANCH  24  26
ATOM     25  O   UNL     1      31.295 -25.016 -12.322  0.00  0.00    -0.250 OA
ATOM     26  C   UNL     1      31.181 -25.069 -13.539  0.00  0.00    +0.319 C 
BRANCH  26  27
ATOM     27  O   UNL     1      30.351 -25.904 -14.229  0.00  0.00    -0.444 OA
ATOM     28  C   UNL     1      28.951 -25.707 -14.001  0.00  0.00    +0.256 C 
ENDBRANCH  26  27
ENDBRANCH  24  26
BRANCH  24  29
ATOM     29  C   UNL     1      32.963 -23.312 -13.750  0.00  0.00    +0.039 C 
BRANCH  29  30
ATOM     30  C   UNL     1      34.397 -23.555 -14.164  0.00  0.00    -0.021 C 
ATOM     31  C   UNL     1      34.918 -24.848 -14.146  0.00  0.00    -0.002 C 
ATOM     32  C   UNL     1      35.198 -22.485 -14.560  0.00  0.00    -0.004 C 
ATOM     33  C   UNL     1      36.242 -25.072 -14.526  0.00  0.00    +0.030 C 
ATOM     34  C   UNL     1      36.522 -22.708 -14.940  0.00  0.00    -0.000 C 
ATOM     35  C   UNL     1      37.044 -24.001 -14.923  0.00  0.00    +0.003 C 
BRANCH  33  38
ATOM     36  N   UNL     1      36.632 -27.249 -13.397  0.00  0.00    -0.343 N 
ATOM     37  N   UNL     1      37.446 -26.878 -15.556  0.00  0.00    -0.285 NA
ATOM     38  C   UNL     1      36.786 -26.420 -14.507  0.00  0.00    +0.117 C 
ATOM     39  H   UNL     1      37.010 -28.158 -13.406  0.00  0.00    +0.144 HD
ATOM     40  H   UNL     1      36.146 -26.925 -12.604  0.00  0.00    +0.144 HD
ATOM     41  H   UNL     1      37.816 -27.790 -15.545  0.00  0.00    +0.188 HD
ENDBRANCH  33  38
ENDBRANCH  29  30
ENDBRANCH  24  29
ENDBRANCH  22  24
ENDBRANCH   2  22
TORSDOF 11
ENDMDL
MODEL 4
REMARK VINA RESULT:     -10.5      6.023     10.358
REMARK  Name = 5497056
REMARK  11 active torsions:
REMARK  status: ('A' for Active; 'I' for Inactive)
REMARK    1  A    between atoms: N_2  and  C_22
REMARK    2  A    between atoms: C_3  and  C_5
REMARK    3  A    between atoms: C_8  and  C_11
REMARK    4  A    between atoms: C_13  and  C_17
REMARK    5  A    between atoms: C_17  and  N_18
REMARK    6  A    between atoms: C_22  and  C_24
REMARK    7  A    between atoms: C_24  and  C_26
REMARK    8  A    between atoms: C_24  and  C_29
REMARK    9  A    between atoms: C_26  and  O_27
REMARK   10  A    between atoms: C_29  and  C_30
REMARK   11  A    between atoms: C_33  and  C_38
REMARK                            x       y       z     vdW  Elec       q    Type
REMARK                         _______ _______ _______ _____ _____    ______ ____
ROOT
ATOM      1  O   UNL     1      36.616 -21.448 -19.877  0.00  0.00    -0.270 OA
ATOM      2  N   UNL     1      34.989 -19.928 -20.526  0.00  0.00    -0.302 N 
ATOM      3  C   UNL     1      35.491 -20.972 -19.762  0.00  0.00    +0.246 C 
ATOM      4  H   UNL     1      34.070 -19.617 -20.357  0.00  0.00    +0.150 HD
ENDROOT
BRANCH   3   5
ATOM      5  C   UNL     1      34.559 -21.546 -18.759  0.00  0.00    +0.053 C 
ATOM      6  C   UNL     1      33.182 -21.383 -18.912  0.00  0.00    +0.005 C 
ATOM      7  C   UNL     1      35.059 -22.250 -17.663  0.00  0.00    +0.005 C 
ATOM      8  C   UNL     1      32.807 -22.627 -16.875  0.00  0.00    -0.000 C 
ATOM      9  C   UNL     1      32.306 -21.923 -17.970  0.00  0.00    +0.000 C 
ATOM     10  C   UNL     1      34.184 -22.790 -16.721  0.00  0.00    +0.000 C 
BRANCH   8  11
ATOM     11  C   UNL     1      31.897 -23.187 -15.899  0.00  0.00    -0.000 C 
ATOM     12  C   UNL     1      30.520 -23.117 -16.108  0.00  0.00    -0.006 C 
ATOM     13  C   UNL     1      29.644 -23.658 -15.166  0.00  0.00    -0.044 C 
ATOM     14  C   UNL     1      32.399 -23.798 -14.749  0.00  0.00    -0.000 C 
ATOM     15  C   UNL     1      30.146 -24.268 -14.016  0.00  0.00    -0.006 C 
ATOM     16  C   UNL     1      31.523 -24.338 -13.808  0.00  0.00    -0.000 C 
BRANCH  13  17
ATOM     17  C   UNL     1      28.172 -23.584 -15.390  0.00  0.00    -0.059 C 
BRANCH  17  18
ATOM     18  N   UNL     1      27.830 -22.901 -16.638  0.00  0.00    +0.383 N 
ATOM     19  H   UNL     1      27.197 -23.485 -17.184  0.00  0.00    -0.089 HD
ATOM     20  H   UNL     1      28.680 -22.726 -17.175  0.00  0.00    -0.089 HD
ATOM     21  H   UNL     1      27.375 -22.013 -16.425  0.00  0.00    -0.089 HD
ENDBRANCH  17  18
ENDBRANCH  13  17
ENDBRANCH   8  11
ENDBRANCH   3   5
BRANCH   2  22
ATOM     22  C   UNL     1      35.765 -19.282 -21.559  0.00  0.00    +0.083 C 
ATOM     23  C   UNL     1      36.987 -18.599 -20.949  0.00  0.00    +0.022 C 
BRANCH  22  24
ATOM     24  C   UNL     1      34.919 -18.315 -22.418  0.00  0.00    +0.121 C 
BRANCH  24  26
ATOM     25  O   UNL     1      34.773 -20.081 -24.092  0.00  0.00    -0.250 OA
ATOM     26  C   UNL     1      34.362 -19.015 -23.654  0.00  0.00    +0.319 C 
BRANCH  26  27
ATOM     27  O   UNL     1      33.348 -18.271 -24.184  0.00  0.00    -0.444 OA
ATOM     28  C   UNL     1      32.399 -18.997 -24.972  0.00  0.00    +0.256 C 
ENDBRANCH  26  27
ENDBRANCH  24  26
BRANCH  24  29
ATOM     29  C   UNL     1      35.719 -17.065 -22.838  0.00  0.00    +0.039 C 
BRANCH  29  30
ATOM     30  C   UNL     1      35.002 -15.775 -22.513  0.00  0.00    -0.021 C 
ATOM     31  C   UNL     1      34.622 -14.911 -23.539  0.00  0.00    -0.002 C 
ATOM     32  C   UNL     1      34.724 -15.447 -21.186  0.00  0.00    -0.004 C 
ATOM     33  C   UNL     1      33.962 -13.719 -23.239  0.00  0.00    +0.030 C 
ATOM     34  C   UNL     1      34.064 -14.255 -20.886  0.00  0.00    -0.000 C 
ATOM     35  C   UNL     1      33.683 -13.391 -21.911  0.00  0.00    +0.003 C 
BRANCH  33  38
ATOM     36  N   UNL     1      33.577 -11.434 -24.132  0.00  0.00    -0.343 N 
ATOM     37  N   UNL     1      33.185 -13.305 -25.475  0.00  0.00    -0.285 NA
ATOM     38  C   UNL     1      33.567 -12.816 -24.308  0.00  0.00    +0.117 C 
ATOM     39  H   UNL     1      33.304 -10.841 -24.869  0.00  0.00    +0.144 HD
ATOM     40  H   UNL     1      33.854 -11.050 -23.268  0.00  0.00    +0.144 HD
ATOM     41  H   UNL     1      32.917 -12.696 -26.200  0.00  0.00    +0.188 HD
ENDBRANCH  33  38
ENDBRANCH  29  30
ENDBRANCH  24  29
ENDBRANCH  22  24
ENDBRANCH   2  22
TORSDOF 11
ENDMDL
MODEL 5
REMARK VINA RESULT:     -10.4      1.256      1.899
REMARK  Name = 5497056
REMARK  11 active torsions:
REMARK  status: ('A' for Active; 'I' for Inactive)
REMARK    1  A    between atoms: N_2  and  C_22
REMARK    2  A    between atoms: C_3  and  C_5
REMARK    3  A    between atoms: C_8  and  C_11
REMARK    4  A    between atoms: C_13  and  C_17
REMARK    5  A    between atoms: C_17  and  N_18
REMARK    6  A    between atoms: C_22  and  C_24
REMARK    7  A    between atoms: C_24  and  C_26
REMARK    8  A    between atoms: C_24  and  C_29
REMARK    9  A    between atoms: C_26  and  O_27
REMARK   10  A    between atoms: C_29  and  C_30
REMARK   11  A    between atoms: C_33  and  C_38
REMARK                            x       y       z     vdW  Elec       q    Type
REMARK                         _______ _______ _______ _____ _____    ______ ____
ROOT
ATOM      1  O   UNL     1      33.143 -10.812 -25.387  0.00  0.00    -0.270 OA
ATOM      2  N   UNL     1      33.596 -10.298 -23.172  0.00  0.00    -0.302 N 
ATOM      3  C   UNL     1      33.479 -11.153 -24.257  0.00  0.00    +0.246 C 
ATOM      4  H   UNL     1      33.872 -10.669 -22.303  0.00  0.00    +0.150 HD
ENDROOT
BRANCH   3   5
ATOM      5  C   UNL     1      33.766 -12.585 -23.986  0.00  0.00    +0.053 C 
ATOM      6  C   UNL     1      34.244 -12.977 -22.736  0.00  0.00    +0.005 C 
ATOM      7  C   UNL     1      33.557 -13.540 -24.983  0.00  0.00    +0.005 C 
ATOM      8  C   UNL     1      34.304 -15.276 -23.477  0.00  0.00    -0.000 C 
ATOM      9  C   UNL     1      34.513 -14.322 -22.482  0.00  0.00    +0.000 C 
ATOM     10  C   UNL     1      33.825 -14.884 -24.728  0.00  0.00    +0.000 C 
BRANCH   8  11
ATOM     11  C   UNL     1      34.582 -16.671 -23.212  0.00  0.00    -0.000 C 
ATOM     12  C   UNL     1      35.394 -17.027 -22.135  0.00  0.00    -0.006 C 
ATOM     13  C   UNL     1      35.661 -18.372 -21.880  0.00  0.00    -0.044 C 
ATOM     14  C   UNL     1      34.037 -17.658 -24.033  0.00  0.00    -0.000 C 
ATOM     15  C   UNL     1      35.118 -19.360 -22.702  0.00  0.00    -0.006 C 
ATOM     16  C   UNL     1      34.305 -19.003 -23.778  0.00  0.00    -0.000 C 
BRANCH  13  17
ATOM     17  C   UNL     1      36.528 -18.754 -20.728  0.00  0.00    -0.059 C 
BRANCH  17  18
ATOM     18  N   UNL     1      35.983 -19.880 -19.969  0.00  0.00    +0.383 N 
ATOM     19  H   UNL     1      35.770 -19.578 -19.018  0.00  0.00    -0.089 HD
ATOM     20  H   UNL     1      36.667 -20.636 -19.939  0.00  0.00    -0.089 HD
ATOM     21  H   UNL     1      35.130 -20.212 -20.420  0.00  0.00    -0.089 HD
ENDBRANCH  17  18
ENDBRANCH  13  17
ENDBRANCH   8  11
ENDBRANCH   3   5
BRANCH   2  22
ATOM     22  C   UNL     1      33.326  -8.882 -23.269  0.00  0.00    +0.083 C 
ATOM     23  C   UNL     1      34.628  -8.091 -23.163  0.00  0.00    +0.022 C 
BRANCH  22  24
ATOM     24  C   UNL     1      32.266  -8.408 -22.249  0.00  0.00    +0.121 C 
BRANCH  24  26
ATOM     25  O   UNL     1      31.277 -10.593 -21.814  0.00  0.00    -0.250 OA
ATOM     26  C   UNL     1      31.777  -9.563 -21.381  0.00  0.00    +0.319 C 
BRANCH  26  27
ATOM     27  O   UNL     1      31.982  -9.266 -20.064  0.00  0.00    -0.444 OA
ATOM     28  C   UNL     1      31.888 -10.374 -19.162  0.00  0.00    +0.256 C 
ENDBRANCH  26  27
ENDBRANCH  24  26
BRANCH  24  29
ATOM     29  C   UNL     1      31.068  -7.723 -22.936  0.00  0.00    +0.039 C 
BRANCH  29  30
ATOM     30  C   UNL     1      31.407  -6.353 -23.478  0.00  0.00    -0.021 C 
ATOM     31  C   UNL     1      31.232  -5.225 -22.678  0.00  0.00    -0.002 C 
ATOM     32  C   UNL     1      31.893  -6.218 -24.777  0.00  0.00    -0.004 C 
ATOM     33  C   UNL     1      31.543  -3.960 -23.177  0.00  0.00    +0.030 C 
ATOM     34  C   UNL     1      32.204  -4.953 -25.278  0.00  0.00    -0.000 C 
ATOM     35  C   UNL     1      32.030  -3.824 -24.478  0.00  0.00    +0.003 C 
BRANCH  33  38
ATOM     36  N   UNL     1      30.230  -2.631 -21.541  0.00  0.00    -0.343 N 
ATOM     37  N   UNL     1      32.273  -1.828 -22.342  0.00  0.00    -0.285 NA
ATOM     38  C   UNL     1      31.359  -2.783 -22.344  0.00  0.00    +0.117 C 
ATOM     39  H   UNL     1      30.125  -1.825 -20.986  0.00  0.00    +0.144 HD
ATOM     40  H   UNL     1      29.535  -3.330 -21.532  0.00  0.00    +0.144 HD
ATOM     41  H   UNL     1      32.150  -1.030 -21.779  0.00  0.00    +0.188 HD
ENDBRANCH  33  38
ENDBRANCH  29  30
ENDBRANCH  24  29
ENDBRANCH  22  24
ENDBRANCH   2  22
TORSDOF 11
ENDMDL
MODEL 6
REMARK VINA RESULT:     -10.3      1.862      3.040
REMARK  Name = 5497056
REMARK  11 active torsions:
REMARK  status: ('A' for Active; 'I' for Inactive)
REMARK    1  A    between atoms: N_2  and  C_22
REMARK    2  A    between atoms: C_3  and  C_5
REMARK    3  A    between atoms: C_8  and  C_11
REMARK    4  A    between atoms: C_13  and  C_17
REMARK    5  A    between atoms: C_17  and  N_18
REMARK    6  A    between atoms: C_22  and  C_24
REMARK    7  A    between atoms: C_24  and  C_26
REMARK    8  A    between atoms: C_24  and  C_29
REMARK    9  A    between atoms: C_26  and  O_27
REMARK   10  A    between atoms: C_29  and  C_30
REMARK   11  A    between atoms: C_33  and  C_38
REMARK                            x       y       z     vdW  Elec       q    Type
REMARK                         _______ _______ _______ _____ _____    ______ ____
ROOT
ATOM      1  O   UNL     1      33.378 -13.735 -25.116  0.00  0.00    -0.270 OA
ATOM      2  N   UNL     1      33.909 -12.437 -23.270  0.00  0.00    -0.302 N 
ATOM      3  C   UNL     1      33.810 -13.628 -23.972  0.00  0.00    +0.246 C 
ATOM      4  H   UNL     1      34.269 -12.455 -22.353  0.00  0.00    +0.150 HD
ENDROOT
BRANCH   3   5
ATOM      5  C   UNL     1      34.242 -14.848 -23.243  0.00  0.00    +0.053 C 
ATOM      6  C   UNL     1      34.482 -14.791 -21.870  0.00  0.00    +0.005 C 
ATOM      7  C   UNL     1      34.407 -16.051 -23.930  0.00  0.00    +0.005 C 
ATOM      8  C   UNL     1      35.052 -17.139 -21.872  0.00  0.00    -0.000 C 
ATOM      9  C   UNL     1      34.888 -15.937 -21.185  0.00  0.00    +0.000 C 
ATOM     10  C   UNL     1      34.812 -17.196 -23.245  0.00  0.00    +0.000 C 
BRANCH   8  11
ATOM     11  C   UNL     1      35.472 -18.327 -21.160  0.00  0.00    -0.000 C 
ATOM     12  C   UNL     1      34.524 -19.254 -20.729  0.00  0.00    -0.006 C 
ATOM     13  C   UNL     1      34.929 -20.398 -20.043  0.00  0.00    -0.044 C 
ATOM     14  C   UNL     1      36.827 -18.544 -20.906  0.00  0.00    -0.000 C 
ATOM     15  C   UNL     1      36.284 -20.615 -19.787  0.00  0.00    -0.006 C 
ATOM     16  C   UNL     1      37.232 -19.689 -20.219  0.00  0.00    -0.000 C 
BRANCH  13  17
ATOM     17  C   UNL     1      33.915 -21.390 -19.582  0.00  0.00    -0.059 C 
BRANCH  17  18
ATOM     18  N   UNL     1      34.308 -22.052 -18.337  0.00  0.00    +0.383 N 
ATOM     19  H   UNL     1      34.621 -23.001 -18.540  0.00  0.00    -0.089 HD
ATOM     20  H   UNL     1      33.509 -22.086 -17.703  0.00  0.00    -0.089 HD
ATOM     21  H   UNL     1      35.067 -21.529 -17.899  0.00  0.00    -0.089 HD
ENDBRANCH  17  18
ENDBRANCH  13  17
ENDBRANCH   8  11
ENDBRANCH   3   5
BRANCH   2  22
ATOM     22  C   UNL     1      33.506 -11.169 -23.833  0.00  0.00    +0.083 C 
ATOM     23  C   UNL     1      34.656 -10.560 -24.633  0.00  0.00    +0.022 C 
BRANCH  22  24
ATOM     24  C   UNL     1      32.950 -10.197 -22.769  0.00  0.00    +0.121 C 
BRANCH  24  26
ATOM     25  O   UNL     1      30.784 -10.783 -21.819  0.00  0.00    -0.250 OA
ATOM     26  C   UNL     1      32.002 -10.907 -21.809  0.00  0.00    +0.319 C 
BRANCH  26  27
ATOM     27  O   UNL     1      32.718 -11.691 -20.951  0.00  0.00    -0.444 OA
ATOM     28  C   UNL     1      31.981 -12.740 -20.315  0.00  0.00    +0.256 C 
ENDBRANCH  26  27
ENDBRANCH  24  26
BRANCH  24  29
ATOM     29  C   UNL     1      32.241  -8.985 -23.407  0.00  0.00    +0.039 C 
BRANCH  29  30
ATOM     30  C   UNL     1      32.233  -7.770 -22.507  0.00  0.00    -0.021 C 
ATOM     31  C   UNL     1      31.690  -6.569 -22.962  0.00  0.00    -0.002 C 
ATOM     32  C   UNL     1      32.769  -7.851 -21.222  0.00  0.00    -0.004 C 
ATOM     33  C   UNL     1      31.683  -5.448 -22.132  0.00  0.00    +0.030 C 
ATOM     34  C   UNL     1      32.764  -6.729 -20.392  0.00  0.00    -0.000 C 
ATOM     35  C   UNL     1      32.221  -5.528 -20.846  0.00  0.00    +0.003 C 
BRANCH  33  38
ATOM     36  N   UNL     1      30.720  -3.197 -21.718  0.00  0.00    -0.343 N 
ATOM     37  N   UNL     1      30.974  -3.987 -23.903  0.00  0.00    -0.285 NA
ATOM     38  C   UNL     1      31.119  -4.195 -22.606  0.00  0.00    +0.117 C 
ATOM     39  H   UNL     1      30.340  -2.356 -22.061  0.00  0.00    +0.144 HD
ATOM     40  H   UNL     1      30.817  -3.334 -20.748  0.00  0.00    +0.144 HD
ATOM     41  H   UNL     1      30.592  -3.139 -24.226  0.00  0.00    +0.188 HD
ENDBRANCH  33  38
ENDBRANCH  29  30
ENDBRANCH  24  29
ENDBRANCH  22  24
ENDBRANCH   2  22
TORSDOF 11
ENDMDL
MODEL 7
REMARK VINA RESULT:     -10.3      9.971     17.156
REMARK  Name = 5497056
REMARK  11 active torsions:
REMARK  status: ('A' for Active; 'I' for Inactive)
REMARK    1  A    between atoms: N_2  and  C_22
REMARK    2  A    between atoms: C_3  and  C_5
REMARK    3  A    between atoms: C_8  and  C_11
REMARK    4  A    between atoms: C_13  and  C_17
REMARK    5  A    between atoms: C_17  and  N_18
REMARK    6  A    between atoms: C_22  and  C_24
REMARK    7  A    between atoms: C_24  and  C_26
REMARK    8  A    between atoms: C_24  and  C_29
REMARK    9  A    between atoms: C_26  and  O_27
REMARK   10  A    between atoms: C_29  and  C_30
REMARK   11  A    between atoms: C_33  and  C_38
REMARK                            x       y       z     vdW  Elec       q    Type
REMARK                         _______ _______ _______ _____ _____    ______ ____
ROOT
ATOM      1  O   UNL     1      32.152 -23.815 -16.519  0.00  0.00    -0.270 OA
ATOM      2  N   UNL     1      34.101 -23.456 -15.316  0.00  0.00    -0.302 N 
ATOM      3  C   UNL     1      33.254 -23.288 -16.400  0.00  0.00    +0.246 C 
ATOM      4  H   UNL     1      34.968 -22.989 -15.315  0.00  0.00    +0.150 HD
ENDROOT
BRANCH   3   5
ATOM      5  C   UNL     1      33.764 -22.420 -17.492  0.00  0.00    +0.053 C 
ATOM      6  C   UNL     1      32.870 -21.796 -18.363  0.00  0.00    +0.005 C 
ATOM      7  C   UNL     1      35.137 -22.227 -17.648  0.00  0.00    +0.005 C 
ATOM      8  C   UNL     1      34.721 -20.788 -19.543  0.00  0.00    -0.000 C 
ATOM      9  C   UNL     1      33.349 -20.981 -19.389  0.00  0.00    +0.000 C 
ATOM     10  C   UNL     1      35.616 -21.411 -18.673  0.00  0.00    +0.000 C 
BRANCH   8  11
ATOM     11  C   UNL     1      35.216 -19.941 -20.607  0.00  0.00    -0.000 C 
ATOM     12  C   UNL     1      34.418 -19.681 -21.721  0.00  0.00    -0.006 C 
ATOM     13  C   UNL     1      34.896 -18.864 -22.745  0.00  0.00    -0.044 C 
ATOM     14  C   UNL     1      36.492 -19.384 -20.517  0.00  0.00    -0.000 C 
ATOM     15  C   UNL     1      36.172 -18.308 -22.656  0.00  0.00    -0.006 C 
ATOM     16  C   UNL     1      36.970 -18.567 -21.541  0.00  0.00    -0.000 C 
BRANCH  13  17
ATOM     17  C   UNL     1      34.043 -18.586 -23.936  0.00  0.00    -0.059 C 
BRANCH  17  18
ATOM     18  N   UNL     1      34.145 -17.196 -24.383  0.00  0.00    +0.383 N 
ATOM     19  H   UNL     1      33.262 -16.908 -24.805  0.00  0.00    -0.089 HD
ATOM     20  H   UNL     1      34.894 -17.113 -25.071  0.00  0.00    -0.089 HD
ATOM     21  H   UNL     1      34.351 -16.597 -23.583  0.00  0.00    -0.089 HD
ENDBRANCH  17  18
ENDBRANCH  13  17
ENDBRANCH   8  11
ENDBRANCH   3   5
BRANCH   2  22
ATOM     22  C   UNL     1      33.759 -24.290 -14.187  0.00  0.00    +0.083 C 
ATOM     23  C   UNL     1      32.803 -23.546 -13.255  0.00  0.00    +0.022 C 
BRANCH  22  24
ATOM     24  C   UNL     1      35.004 -24.825 -13.445  0.00  0.00    +0.121 C 
BRANCH  24  26
ATOM     25  O   UNL     1      34.816 -24.096 -11.127  0.00  0.00    -0.250 OA
ATOM     26  C   UNL     1      35.336 -23.968 -12.228  0.00  0.00    +0.319 C 
BRANCH  26  27
ATOM     27  O   UNL     1      36.290 -23.051 -12.560  0.00  0.00    -0.444 OA
ATOM     28  C   UNL     1      37.286 -22.809 -11.560  0.00  0.00    +0.256 C 
ENDBRANCH  26  27
ENDBRANCH  24  26
BRANCH  24  29
ATOM     29  C   UNL     1      36.233 -24.921 -14.372  0.00  0.00    +0.039 C 
BRANCH  29  30
ATOM     30  C   UNL     1      37.050 -26.170 -14.134  0.00  0.00    -0.021 C 
ATOM     31  C   UNL     1      37.656 -26.820 -15.208  0.00  0.00    -0.002 C 
ATOM     32  C   UNL     1      37.197 -26.672 -12.842  0.00  0.00    -0.004 C 
ATOM     33  C   UNL     1      38.410 -27.974 -14.990  0.00  0.00    +0.030 C 
ATOM     34  C   UNL     1      37.950 -27.826 -12.623  0.00  0.00    -0.000 C 
ATOM     35  C   UNL     1      38.556 -28.477 -13.696  0.00  0.00    +0.003 C 
BRANCH  33  38
ATOM     36  N   UNL     1      40.416 -28.578 -16.322  0.00  0.00    -0.343 N 
ATOM     37  N   UNL     1      38.306 -29.360 -16.950  0.00  0.00    -0.285 NA
ATOM     38  C   UNL     1      39.041 -28.654 -16.109  0.00  0.00    +0.117 C 
ATOM     39  H   UNL     1      40.823 -29.046 -17.087  0.00  0.00    +0.144 HD
ATOM     40  H   UNL     1      40.982 -28.054 -15.709  0.00  0.00    +0.144 HD
ATOM     41  H   UNL     1      38.731 -29.821 -17.708  0.00  0.00    +0.188 HD
ENDBRANCH  33  38
ENDBRANCH  29  30
ENDBRANCH  24  29
ENDBRANCH  22  24
ENDBRANCH   2  22
TORSDOF 11
ENDMDL
MODEL 8
REMARK VINA RESULT:     -10.1     10.795     17.235
REMARK  Name = 5497056
REMARK  11 active torsions:
REMARK  status: ('A' for Active; 'I' for Inactive)
REMARK    1  A    between atoms: N_2  and  C_22
REMARK    2  A    between atoms: C_3  and  C_5
REMARK    3  A    between atoms: C_8  and  C_11
REMARK    4  A    between atoms: C_13  and  C_17
REMARK    5  A    between atoms: C_17  and  N_18
REMARK    6  A    between atoms: C_22  and  C_24
REMARK    7  A    between atoms: C_24  and  C_26
REMARK    8  A    between atoms: C_24  and  C_29
REMARK    9  A    between atoms: C_26  and  O_27
REMARK   10  A    between atoms: C_29  and  C_30
REMARK   11  A    between atoms: C_33  and  C_38
REMARK                            x       y       z     vdW  Elec       q    Type
REMARK                         _______ _______ _______ _____ _____    ______ ____
ROOT
ATOM      1  O   UNL     1      37.762 -22.717 -13.724  0.00  0.00    -0.270 OA
ATOM      2  N   UNL     1      38.209 -24.588 -15.018  0.00  0.00    -0.302 N 
ATOM      3  C   UNL     1      37.676 -23.330 -14.784  0.00  0.00    +0.246 C 
ATOM      4  H   UNL     1      38.085 -24.998 -15.905  0.00  0.00    +0.150 HD
ENDROOT
BRANCH   3   5
ATOM      5  C   UNL     1      36.930 -22.721 -15.915  0.00  0.00    +0.053 C 
ATOM      6  C   UNL     1      35.579 -23.018 -16.099  0.00  0.00    +0.005 C 
ATOM      7  C   UNL     1      37.579 -21.854 -16.794  0.00  0.00    +0.005 C 
ATOM      8  C   UNL     1      35.527 -21.578 -18.040  0.00  0.00    -0.000 C 
ATOM      9  C   UNL     1      34.878 -22.447 -17.162  0.00  0.00    +0.000 C 
ATOM     10  C   UNL     1      36.878 -21.282 -17.856  0.00  0.00    +0.000 C 
BRANCH   8  11
ATOM     11  C   UNL     1      34.798 -20.986 -19.140  0.00  0.00    -0.000 C 
ATOM     12  C   UNL     1      35.485 -20.305 -20.145  0.00  0.00    -0.006 C 
ATOM     13  C   UNL     1      34.781 -19.735 -21.206  0.00  0.00    -0.044 C 
ATOM     14  C   UNL     1      33.409 -21.097 -19.195  0.00  0.00    -0.000 C 
ATOM     15  C   UNL     1      33.392 -19.844 -21.261  0.00  0.00    -0.006 C 
ATOM     16  C   UNL     1      32.705 -20.526 -20.256  0.00  0.00    -0.000 C 
BRANCH  13  17
ATOM     17  C   UNL     1      35.515 -19.008 -22.282  0.00  0.00    -0.059 C 
BRANCH  17  18
ATOM     18  N   UNL     1      36.697 -18.307 -21.776  0.00  0.00    +0.383 N 
ATOM     19  H   UNL     1      36.665 -18.278 -20.757  0.00  0.00    -0.089 HD
ATOM     20  H   UNL     1      36.712 -17.356 -22.143  0.00  0.00    -0.089 HD
ATOM     21  H   UNL     1      37.538 -18.801 -22.077  0.00  0.00    -0.089 HD
ENDBRANCH  17  18
ENDBRANCH  13  17
ENDBRANCH   8  11
ENDBRANCH   3   5
BRANCH   2  22
ATOM     22  C   UNL     1      38.939 -25.320 -14.010  0.00  0.00    +0.083 C 
ATOM     23  C   UNL     1      40.443 -25.168 -14.235  0.00  0.00    +0.022 C 
BRANCH  22  24
ATOM     24  C   UNL     1      38.506 -26.800 -13.920  0.00  0.00    +0.121 C 
BRANCH  24  26
ATOM     25  O   UNL     1      36.573 -26.908 -15.401  0.00  0.00    -0.250 OA
ATOM     26  C   UNL     1      37.730 -27.228 -15.162  0.00  0.00    +0.319 C 
BRANCH  26  27
ATOM     27  O   UNL     1      38.522 -28.012 -15.950  0.00  0.00    -0.444 OA
ATOM     28  C   UNL     1      38.090 -29.368 -16.100  0.00  0.00    +0.256 C 
ENDBRANCH  26  27
ENDBRANCH  24  26
BRANCH  24  29
ATOM     29  C   UNL     1      37.668 -27.082 -12.655  0.00  0.00    +0.039 C 
BRANCH  29  30
ATOM     30  C   UNL     1      36.908 -25.868 -12.173  0.00  0.00    -0.021 C 
ATOM     31  C   UNL     1      35.678 -25.544 -12.744  0.00  0.00    -0.002 C 
ATOM     32  C   UNL     1      37.438 -25.071 -11.159  0.00  0.00    -0.004 C 
ATOM     33  C   UNL     1      34.976 -24.422 -12.301  0.00  0.00    +0.030 C 
ATOM     34  C   UNL     1      36.737 -23.948 -10.716  0.00  0.00    -0.000 C 
ATOM     35  C   UNL     1      35.507 -23.624 -11.286  0.00  0.00    +0.003 C 
BRANCH  33  38
ATOM     36  N   UNL     1      33.541 -22.947 -13.691  0.00  0.00    -0.343 N 
ATOM     37  N   UNL     1      32.645 -24.857 -12.686  0.00  0.00    -0.285 NA
ATOM     38  C   UNL     1      33.695 -24.083 -12.897  0.00  0.00    +0.117 C 
ATOM     39  H   UNL     1      32.664 -22.736 -14.084  0.00  0.00    +0.144 HD
ATOM     40  H   UNL     1      34.311 -22.355 -13.857  0.00  0.00    +0.144 HD
ATOM     41  H   UNL     1      31.776 -24.629 -13.088  0.00  0.00    +0.188 HD
ENDBRANCH  33  38
ENDBRANCH  29  30
ENDBRANCH  24  29
ENDBRANCH  22  24
ENDBRANCH   2  22
TORSDOF 11
ENDMDL
MODEL 9
REMARK VINA RESULT:      -9.9      1.712     11.358
REMARK  Name = 5497056
REMARK  11 active torsions:
REMARK  status: ('A' for Active; 'I' for Inactive)
REMARK    1  A    between atoms: N_2  and  C_22
REMARK    2  A    between atoms: C_3  and  C_5
REMARK    3  A    between atoms: C_8  and  C_11
REMARK    4  A    between atoms: C_13  and  C_17
REMARK    5  A    between atoms: C_17  and  N_18
REMARK    6  A    between atoms: C_22  and  C_24
REMARK    7  A    between atoms: C_24  and  C_26
REMARK    8  A    between atoms: C_24  and  C_29
REMARK    9  A    between atoms: C_26  and  O_27
REMARK   10  A    between atoms: C_29  and  C_30
REMARK   11  A    between atoms: C_33  and  C_38
REMARK                            x       y       z     vdW  Elec       q    Type
REMARK                         _______ _______ _______ _____ _____    ______ ____
ROOT
ATOM      1  O   UNL     1      35.157 -10.817 -25.076  0.00  0.00    -0.270 OA
ATOM      2  N   UNL     1      33.628 -12.018 -23.813  0.00  0.00    -0.302 N 
ATOM      3  C   UNL     1      34.211 -10.856 -24.294  0.00  0.00    +0.246 C 
ATOM      4  H   UNL     1      32.871 -11.945 -23.187  0.00  0.00    +0.150 HD
ENDROOT
BRANCH   3   5
ATOM      5  C   UNL     1      33.639  -9.584 -23.783  0.00  0.00    +0.053 C 
ATOM      6  C   UNL     1      34.323  -8.384 -23.978  0.00  0.00    +0.005 C 
ATOM      7  C   UNL     1      32.418  -9.589 -23.109  0.00  0.00    +0.005 C 
ATOM      8  C   UNL     1      32.565  -7.194 -22.824  0.00  0.00    -0.000 C 
ATOM      9  C   UNL     1      33.786  -7.189 -23.497  0.00  0.00    +0.000 C 
ATOM     10  C   UNL     1      31.881  -8.394 -22.629  0.00  0.00    +0.000 C 
BRANCH   8  11
ATOM     11  C   UNL     1      32.008  -5.954 -22.327  0.00  0.00    -0.000 C 
ATOM     12  C   UNL     1      32.124  -4.787 -23.081  0.00  0.00    -0.006 C 
ATOM     13  C   UNL     1      31.587  -3.592 -22.602  0.00  0.00    -0.044 C 
ATOM     14  C   UNL     1      31.356  -5.928 -21.094  0.00  0.00    -0.000 C 
ATOM     15  C   UNL     1      30.936  -3.565 -21.369  0.00  0.00    -0.006 C 
ATOM     16  C   UNL     1      30.820  -4.733 -20.615  0.00  0.00    -0.000 C 
BRANCH  13  17
ATOM     17  C   UNL     1      31.709  -2.343 -23.408  0.00  0.00    -0.059 C 
BRANCH  17  18
ATOM     18  N   UNL     1      30.574  -2.149 -24.311  0.00  0.00    +0.383 N 
ATOM     19  H   UNL     1      30.461  -2.975 -24.898  0.00  0.00    -0.089 HD
ATOM     20  H   UNL     1      30.743  -1.334 -24.901  0.00  0.00    -0.089 HD
ATOM     21  H   UNL     1      29.726  -2.001 -23.764  0.00  0.00    -0.089 HD
ENDBRANCH  17  18
ENDBRANCH  13  17
ENDBRANCH   8  11
ENDBRANCH   3   5
BRANCH   2  22
ATOM     22  C   UNL     1      34.088 -13.332 -24.197  0.00  0.00    +0.083 C 
ATOM     23  C   UNL     1      33.366 -13.793 -25.462  0.00  0.00    +0.022 C 
BRANCH  22  24
ATOM     24  C   UNL     1      33.975 -14.360 -23.048  0.00  0.00    +0.121 C 
BRANCH  24  26
ATOM     25  O   UNL     1      34.470 -13.500 -20.822  0.00  0.00    -0.250 OA
ATOM     26  C   UNL     1      33.659 -13.676 -21.722  0.00  0.00    +0.319 C 
BRANCH  26  27
ATOM     27  O   UNL     1      32.347 -13.300 -21.701  0.00  0.00    -0.444 OA
ATOM     28  C   UNL     1      31.966 -12.456 -20.609  0.00  0.00    +0.256 C 
ENDBRANCH  26  27
ENDBRANCH  24  26
BRANCH  24  29
ATOM     29  C   UNL     1      35.251 -15.213 -22.908  0.00  0.00    +0.039 C 
BRANCH  29  30
ATOM     30  C   UNL     1      34.967 -16.698 -22.907  0.00  0.00    -0.021 C 
ATOM     31  C   UNL     1      35.274 -17.466 -21.785  0.00  0.00    -0.002 C 
ATOM     32  C   UNL     1      34.398 -17.300 -24.030  0.00  0.00    -0.004 C 
ATOM     33  C   UNL     1      35.013 -18.836 -21.783  0.00  0.00    +0.030 C 
ATOM     34  C   UNL     1      34.138 -18.670 -24.029  0.00  0.00    -0.000 C 
ATOM     35  C   UNL     1      34.444 -19.439 -22.907  0.00  0.00    +0.003 C 
BRANCH  33  38
ATOM     36  N   UNL     1      34.387 -20.474 -20.025  0.00  0.00    -0.343 N 
ATOM     37  N   UNL     1      36.544 -19.579 -20.088  0.00  0.00    -0.285 NA
ATOM     38  C   UNL     1      35.334 -19.638 -20.614  0.00  0.00    +0.117 C 
ATOM     39  H   UNL     1      34.625 -21.007 -19.233  0.00  0.00    +0.144 HD
ATOM     40  H   UNL     1      33.478 -20.529 -20.400  0.00  0.00    +0.144 HD
ATOM     41  H   UNL     1      36.764 -20.120 -19.296  0.00  0.00    +0.188 HD
ENDBRANCH  33  38
ENDBRANCH  29  30
ENDBRANCH  24  29
ENDBRANCH  22  24
ENDBRANCH   2  22
TORSDOF 11
ENDMDL
