MODEL 1
REMARK VINA RESULT:     -11.4      0.000      0.000
REMARK  Name = 11987860
REMARK  5 active torsions:
REMARK  status: ('A' for Active; 'I' for Inactive)
REMARK    1  A    between atoms: N_2  and  C_19
REMARK    2  A    between atoms: C_3  and  C_11
REMARK    3  A    between atoms: N_9  and  O_17
REMARK    4  A    between atoms: C_19  and  C_20
REMARK    5  A    between atoms: C_23  and  C_26
REMARK                            x       y       z     vdW  Elec       q    Type
REMARK                         _______ _______ _______ _____ _____    ______ ____
ROOT
ATOM      1  O   UNL     1      34.493 -22.414 -14.536  0.00  0.00    -0.272 OA
ATOM      2  N   UNL     1      34.573 -23.539 -16.572  0.00  0.00    -0.298 N 
ATOM      3  C   UNL     1      35.035 -23.196 -15.313  0.00  0.00    +0.253 C 
ATOM      4  H   UNL     1      35.098 -24.181 -17.104  0.00  0.00    +0.150 HD
ENDROOT
BRANCH   3  11
ATOM      5  O   UNL     1      35.760 -24.989 -12.999  0.00  0.00    -0.327 OA
ATOM      6  O   UNL     1      36.072 -25.289 -15.281  0.00  0.00    -0.320 OA
ATOM      7  O   UNL     1      40.681 -24.964 -13.543  0.00  0.00    -0.250 OA
ATOM      8  N   UNL     1      38.437 -25.549 -13.636  0.00  0.00    -0.255 N 
ATOM      9  N   UNL     1      40.116 -27.047 -14.312  0.00  0.00    -0.181 N 
ATOM     10  C   UNL     1      36.567 -23.897 -13.461  0.00  0.00    +0.174 C 
ATOM     11  C   UNL     1      36.297 -23.914 -14.956  0.00  0.00    +0.222 C 
ATOM     12  C   UNL     1      36.019 -25.963 -14.014  0.00  0.00    +0.256 C 
ATOM     13  C   UNL     1      38.019 -24.240 -13.111  0.00  0.00    +0.128 C 
ATOM     14  C   UNL     1      37.388 -26.584 -13.740  0.00  0.00    +0.156 C 
ATOM     15  C   UNL     1      39.811 -25.798 -13.811  0.00  0.00    +0.326 C 
ATOM     16  H   UNL     1      39.424 -27.712 -14.525  0.00  0.00    +0.184 HD
BRANCH   9  17
ATOM     17  O   UNL     1      41.484 -27.301 -14.494  0.00  0.00    -0.294 OA
ATOM     18  H   UNL     1      41.995 -26.818 -13.824  0.00  0.00    +0.241 HD
ENDBRANCH   9  17
ENDBRANCH   3  11
BRANCH   2  19
ATOM     19  C   UNL     1      33.360 -23.001 -17.143  0.00  0.00    +0.116 C 
BRANCH  19  20
ATOM     20  C   UNL     1      33.682 -22.026 -18.241  0.00  0.00    -0.003 C 
ATOM     21  C   UNL     1      35.003 -21.850 -18.636  0.00  0.00    -0.003 C 
ATOM     22  C   UNL     1      32.657 -21.313 -18.848  0.00  0.00    -0.003 C 
ATOM     23  C   UNL     1      34.279 -20.225 -20.270  0.00  0.00    -0.000 C 
ATOM     24  C   UNL     1      35.302 -20.945 -19.654  0.00  0.00    -0.000 C 
ATOM     25  C   UNL     1      32.956 -20.408 -19.867  0.00  0.00    -0.000 C 
BRANCH  23  26
ATOM     26  C   UNL     1      34.589 -19.287 -21.328  0.00  0.00    -0.000 C 
ATOM     27  C   UNL     1      34.081 -19.490 -22.610  0.00  0.00    -0.000 C 
ATOM     28  C   UNL     1      35.394 -18.179 -21.063  0.00  0.00    -0.000 C 
ATOM     29  C   UNL     1      34.379 -18.585 -23.630  0.00  0.00    +0.000 C 
ATOM     30  C   UNL     1      35.692 -17.274 -22.082  0.00  0.00    +0.000 C 
ATOM     31  C   UNL     1      35.185 -17.477 -23.366  0.00  0.00    +0.000 C 
ENDBRANCH  23  26
ENDBRANCH  19  20
ENDBRANCH   2  19
TORSDOF 5
ENDMDL
MODEL 2
REMARK VINA RESULT:     -10.9      1.929      2.439
REMARK  Name = 11987860
REMARK  5 active torsions:
REMARK  status: ('A' for Active; 'I' for Inactive)
REMARK    1  A    between atoms: N_2  and  C_19
REMARK    2  A    between atoms: C_3  and  C_11
REMARK    3  A    between atoms: N_9  and  O_17
REMARK    4  A    between atoms: C_19  and  C_20
REMARK    5  A    between atoms: C_23  and  C_26
REMARK                            x       y       z     vdW  Elec       q    Type
REMARK                         _______ _______ _______ _____ _____    ______ ____
ROOT
ATOM      1  O   UNL     1      32.337 -22.985 -14.891  0.00  0.00    -0.272 OA
ATOM      2  N   UNL     1      33.970 -23.241 -16.531  0.00  0.00    -0.298 N 
ATOM      3  C   UNL     1      33.509 -23.119 -15.231  0.00  0.00    +0.253 C 
ATOM      4  H   UNL     1      34.938 -23.344 -16.677  0.00  0.00    +0.150 HD
ENDROOT
BRANCH   3  11
ATOM      5  O   UNL     1      34.687 -25.422 -13.680  0.00  0.00    -0.327 OA
ATOM      6  O   UNL     1      35.734 -23.760 -14.918  0.00  0.00    -0.320 OA
ATOM      7  O   UNL     1      37.220 -22.837 -10.301  0.00  0.00    -0.250 OA
ATOM      8  N   UNL     1      36.635 -24.060 -12.186  0.00  0.00    -0.255 N 
ATOM      9  N   UNL     1      38.882 -23.591 -11.686  0.00  0.00    -0.181 N 
ATOM     10  C   UNL     1      34.310 -24.165 -13.101  0.00  0.00    +0.174 C 
ATOM     11  C   UNL     1      34.617 -23.194 -14.229  0.00  0.00    +0.222 C 
ATOM     12  C   UNL     1      35.905 -25.061 -14.337  0.00  0.00    +0.256 C 
ATOM     13  C   UNL     1      35.202 -23.958 -11.873  0.00  0.00    +0.128 C 
ATOM     14  C   UNL     1      37.008 -24.978 -13.282  0.00  0.00    +0.156 C 
ATOM     15  C   UNL     1      37.561 -23.453 -11.317  0.00  0.00    +0.326 C 
ATOM     16  H   UNL     1      39.155 -24.081 -12.494  0.00  0.00    +0.184 HD
BRANCH   9  17
ATOM     17  O   UNL     1      39.811 -22.983 -10.826  0.00  0.00    -0.294 OA
ATOM     18  H   UNL     1      39.590 -22.043 -10.724  0.00  0.00    +0.241 HD
ENDBRANCH   9  17
ENDBRANCH   3  11
BRANCH   2  19
ATOM     19  C   UNL     1      33.097 -23.223 -17.683  0.00  0.00    +0.116 C 
BRANCH  19  20
ATOM     20  C   UNL     1      33.505 -22.135 -18.636  0.00  0.00    -0.003 C 
ATOM     21  C   UNL     1      34.854 -21.923 -18.898  0.00  0.00    -0.003 C 
ATOM     22  C   UNL     1      32.531 -21.356 -19.245  0.00  0.00    -0.003 C 
ATOM     23  C   UNL     1      34.260 -20.125 -20.398  0.00  0.00    -0.000 C 
ATOM     24  C   UNL     1      35.232 -20.913 -19.782  0.00  0.00    -0.000 C 
ATOM     25  C   UNL     1      32.909 -20.346 -20.129  0.00  0.00    -0.000 C 
BRANCH  23  26
ATOM     26  C   UNL     1      34.653 -19.078 -21.317  0.00  0.00    -0.000 C 
ATOM     27  C   UNL     1      35.352 -17.966 -20.849  0.00  0.00    -0.000 C 
ATOM     28  C   UNL     1      34.333 -19.182 -22.670  0.00  0.00    -0.000 C 
ATOM     29  C   UNL     1      35.732 -16.957 -21.735  0.00  0.00    +0.000 C 
ATOM     30  C   UNL     1      34.711 -18.174 -23.556  0.00  0.00    +0.000 C 
ATOM     31  C   UNL     1      35.410 -17.060 -23.089  0.00  0.00    +0.000 C 
ENDBRANCH  23  26
ENDBRANCH  19  20
ENDBRANCH   2  19
TORSDOF 5
ENDMDL
MODEL 3
REMARK VINA RESULT:     -10.8      8.875     13.405
REMARK  Name = 11987860
REMARK  5 active torsions:
REMARK  status: ('A' for Active; 'I' for Inactive)
REMARK    1  A    between atoms: N_2  and  C_19
REMARK    2  A    between atoms: C_3  and  C_11
REMARK    3  A    between atoms: N_9  and  O_17
REMARK    4  A    between atoms: C_19  and  C_20
REMARK    5  A    between atoms: C_23  and  C_26
REMARK                            x       y       z     vdW  Elec       q    Type
REMARK                         _______ _______ _______ _____ _____    ______ ____
ROOT
ATOM      1  O   UNL     1      33.628 -14.171 -26.203  0.00  0.00    -0.272 OA
ATOM      2  N   UNL     1      34.242 -14.965 -24.103  0.00  0.00    -0.298 N 
ATOM      3  C   UNL     1      33.682 -14.055 -24.982  0.00  0.00    +0.253 C 
ATOM      4  H   UNL     1      34.224 -14.760 -23.140  0.00  0.00    +0.150 HD
ENDROOT
BRANCH   3  11
ATOM      5  O   UNL     1      34.808 -12.166 -22.918  0.00  0.00    -0.327 OA
ATOM      6  O   UNL     1      33.675 -11.720 -24.896  0.00  0.00    -0.320 OA
ATOM      7  O   UNL     1      30.576 -10.077 -21.421  0.00  0.00    -0.250 OA
ATOM      8  N   UNL     1      32.582 -10.505 -22.509  0.00  0.00    -0.255 N 
ATOM      9  N   UNL     1      31.513  -8.421 -22.698  0.00  0.00    -0.181 N 
ATOM     10  C   UNL     1      33.526 -12.800 -22.821  0.00  0.00    +0.174 C 
ATOM     11  C   UNL     1      33.097 -12.872 -24.277  0.00  0.00    +0.222 C 
ATOM     12  C   UNL     1      34.536 -11.157 -23.895  0.00  0.00    +0.256 C 
ATOM     13  C   UNL     1      32.638 -11.876 -21.981  0.00  0.00    +0.128 C 
ATOM     14  C   UNL     1      33.790 -10.015 -23.203  0.00  0.00    +0.156 C 
ATOM     15  C   UNL     1      31.490  -9.689 -22.156  0.00  0.00    +0.326 C 
ATOM     16  H   UNL     1      32.240  -8.112 -23.283  0.00  0.00    +0.184 HD
BRANCH   9  17
ATOM     17  O   UNL     1      30.425  -7.604 -22.354  0.00  0.00    -0.294 OA
ATOM     18  H   UNL     1      29.953  -7.993 -21.600  0.00  0.00    +0.241 HD
ENDBRANCH   9  17
ENDBRANCH   3  11
BRANCH   2  19
ATOM     19  C   UNL     1      34.853 -16.203 -24.531  0.00  0.00    +0.116 C 
BRANCH  19  20
ATOM     20  C   UNL     1      34.787 -17.230 -23.435  0.00  0.00    -0.003 C 
ATOM     21  C   UNL     1      35.309 -16.930 -22.182  0.00  0.00    -0.003 C 
ATOM     22  C   UNL     1      34.207 -18.466 -23.687  0.00  0.00    -0.003 C 
ATOM     23  C   UNL     1      34.667 -19.126 -21.409  0.00  0.00    -0.000 C 
ATOM     24  C   UNL     1      35.248 -17.883 -21.166  0.00  0.00    -0.000 C 
ATOM     25  C   UNL     1      34.146 -19.418 -22.670  0.00  0.00    -0.000 C 
BRANCH  23  26
ATOM     26  C   UNL     1      34.603 -20.115 -20.354  0.00  0.00    -0.000 C 
ATOM     27  C   UNL     1      35.779 -20.643 -19.822  0.00  0.00    -0.000 C 
ATOM     28  C   UNL     1      33.366 -20.537 -19.869  0.00  0.00    -0.000 C 
ATOM     29  C   UNL     1      35.717 -21.596 -18.804  0.00  0.00    +0.000 C 
ATOM     30  C   UNL     1      33.303 -21.489 -18.852  0.00  0.00    +0.000 C 
ATOM     31  C   UNL     1      34.479 -22.019 -18.319  0.00  0.00    +0.000 C 
ENDBRANCH  23  26
ENDBRANCH  19  20
ENDBRANCH   2  19
TORSDOF 5
ENDMDL
MODEL 4
REMARK VINA RESULT:     -10.6      1.759      2.071
REMARK  Name = 11987860
REMARK  5 active torsions:
REMARK  status: ('A' for Active; 'I' for Inactive)
REMARK    1  A    between atoms: N_2  and  C_19
REMARK    2  A    between atoms: C_3  and  C_11
REMARK    3  A    between atoms: N_9  and  O_17
REMARK    4  A    between atoms: C_19  and  C_20
REMARK    5  A    between atoms: C_23  and  C_26
REMARK                            x       y       z     vdW  Elec       q    Type
REMARK                         _______ _______ _______ _____ _____    ______ ____
ROOT
ATOM      1  O   UNL     1      32.863 -22.983 -14.021  0.00  0.00    -0.272 OA
ATOM      2  N   UNL     1      33.360 -23.774 -16.153  0.00  0.00    -0.298 N 
ATOM      3  C   UNL     1      33.505 -23.706 -14.778  0.00  0.00    +0.253 C 
ATOM      4  H   UNL     1      33.935 -24.396 -16.655  0.00  0.00    +0.150 HD
ENDROOT
BRANCH   3  11
ATOM      5  O   UNL     1      36.214 -23.263 -13.529  0.00  0.00    -0.327 OA
ATOM      6  O   UNL     1      34.451 -24.612 -12.844  0.00  0.00    -0.320 OA
ATOM      7  O   UNL     1      37.997 -27.863 -13.953  0.00  0.00    -0.250 OA
ATOM      8  N   UNL     1      37.010 -25.927 -13.136  0.00  0.00    -0.255 N 
ATOM      9  N   UNL     1      37.515 -27.731 -11.717  0.00  0.00    -0.181 N 
ATOM     10  C   UNL     1      35.954 -24.190 -14.592  0.00  0.00    +0.174 C 
ATOM     11  C   UNL     1      34.544 -24.654 -14.271  0.00  0.00    +0.222 C 
ATOM     12  C   UNL     1      35.662 -23.971 -12.415  0.00  0.00    +0.256 C 
ATOM     13  C   UNL     1      36.995 -25.308 -14.469  0.00  0.00    +0.128 C 
ATOM     14  C   UNL     1      36.658 -25.053 -11.998  0.00  0.00    +0.156 C 
ATOM     15  C   UNL     1      37.543 -27.223 -12.999  0.00  0.00    +0.326 C 
ATOM     16  H   UNL     1      37.154 -27.222 -10.957  0.00  0.00    +0.184 HD
BRANCH   9  17
ATOM     17  O   UNL     1      38.040 -29.025 -11.574  0.00  0.00    -0.294 OA
ATOM     18  H   UNL     1      38.895 -29.079 -12.030  0.00  0.00    +0.241 HD
ENDBRANCH   9  17
ENDBRANCH   3  11
BRANCH   2  19
ATOM     19  C   UNL     1      32.405 -22.975 -16.888  0.00  0.00    +0.116 C 
BRANCH  19  20
ATOM     20  C   UNL     1      33.105 -22.135 -17.921  0.00  0.00    -0.003 C 
ATOM     21  C   UNL     1      34.493 -22.148 -17.989  0.00  0.00    -0.003 C 
ATOM     22  C   UNL     1      32.356 -21.358 -18.794  0.00  0.00    -0.003 C 
ATOM     23  C   UNL     1      34.398 -20.585 -19.828  0.00  0.00    -0.000 C 
ATOM     24  C   UNL     1      35.141 -21.369 -18.947  0.00  0.00    -0.000 C 
ATOM     25  C   UNL     1      33.005 -20.579 -19.751  0.00  0.00    -0.000 C 
BRANCH  23  26
ATOM     26  C   UNL     1      35.071 -19.777 -20.823  0.00  0.00    -0.000 C 
ATOM     27  C   UNL     1      34.422 -19.455 -22.014  0.00  0.00    -0.000 C 
ATOM     28  C   UNL     1      36.367 -19.320 -20.589  0.00  0.00    -0.000 C 
ATOM     29  C   UNL     1      35.070 -18.676 -22.973  0.00  0.00    +0.000 C 
ATOM     30  C   UNL     1      37.016 -18.541 -21.547  0.00  0.00    +0.000 C 
ATOM     31  C   UNL     1      36.367 -18.219 -22.740  0.00  0.00    +0.000 C 
ENDBRANCH  23  26
ENDBRANCH  19  20
ENDBRANCH   2  19
TORSDOF 5
ENDMDL
MODEL 5
REMARK VINA RESULT:     -10.5      4.026      6.531
REMARK  Name = 11987860
REMARK  5 active torsions:
REMARK  status: ('A' for Active; 'I' for Inactive)
REMARK    1  A    between atoms: N_2  and  C_19
REMARK    2  A    between atoms: C_3  and  C_11
REMARK    3  A    between atoms: N_9  and  O_17
REMARK    4  A    between atoms: C_19  and  C_20
REMARK    5  A    between atoms: C_23  and  C_26
REMARK                            x       y       z     vdW  Elec       q    Type
REMARK                         _______ _______ _______ _____ _____    ______ ____
ROOT
ATOM      1  O   UNL     1      34.325 -23.884 -16.033  0.00  0.00    -0.272 OA
ATOM      2  N   UNL     1      33.741 -22.377 -17.708  0.00  0.00    -0.298 N 
ATOM      3  C   UNL     1      33.488 -23.228 -16.647  0.00  0.00    +0.253 C 
ATOM      4  H   UNL     1      32.982 -21.904 -18.121  0.00  0.00    +0.150 HD
ENDROOT
BRANCH   3  11
ATOM      5  O   UNL     1      32.050 -24.086 -14.137  0.00  0.00    -0.327 OA
ATOM      6  O   UNL     1      31.829 -22.151 -15.403  0.00  0.00    -0.320 OA
ATOM      7  O   UNL     1      27.457 -24.376 -15.964  0.00  0.00    -0.250 OA
ATOM      8  N   UNL     1      29.392 -23.631 -14.918  0.00  0.00    -0.255 N 
ATOM      9  N   UNL     1      27.373 -22.444 -14.735  0.00  0.00    -0.181 N 
ATOM     10  C   UNL     1      31.677 -24.489 -15.462  0.00  0.00    +0.174 C 
ATOM     11  C   UNL     1      32.038 -23.261 -16.280  0.00  0.00    +0.222 C 
ATOM     12  C   UNL     1      31.567 -22.740 -14.120  0.00  0.00    +0.256 C 
ATOM     13  C   UNL     1      30.171 -24.768 -15.432  0.00  0.00    +0.128 C 
ATOM     14  C   UNL     1      30.054 -22.781 -13.907  0.00  0.00    +0.156 C 
ATOM     15  C   UNL     1      28.028 -23.541 -15.254  0.00  0.00    +0.326 C 
ATOM     16  H   UNL     1      27.827 -21.778 -14.170  0.00  0.00    +0.184 HD
BRANCH   9  17
ATOM     17  O   UNL     1      26.014 -22.344 -15.070  0.00  0.00    -0.294 OA
ATOM     18  H   UNL     1      25.728 -23.161 -15.509  0.00  0.00    +0.241 HD
ENDBRANCH   9  17
ENDBRANCH   3  11
BRANCH   2  19
ATOM     19  C   UNL     1      35.066 -22.151 -18.241  0.00  0.00    +0.116 C 
BRANCH  19  20
ATOM     20  C   UNL     1      35.030 -21.097 -19.313  0.00  0.00    -0.003 C 
ATOM     21  C   UNL     1      33.812 -20.727 -19.870  0.00  0.00    -0.003 C 
ATOM     22  C   UNL     1      36.214 -20.507 -19.733  0.00  0.00    -0.003 C 
ATOM     23  C   UNL     1      34.962 -19.151 -21.293  0.00  0.00    -0.000 C 
ATOM     24  C   UNL     1      33.779 -19.750 -20.864  0.00  0.00    -0.000 C 
ATOM     25  C   UNL     1      36.180 -19.529 -20.728  0.00  0.00    -0.000 C 
BRANCH  23  26
ATOM     26  C   UNL     1      34.929 -18.136 -22.324  0.00  0.00    -0.000 C 
ATOM     27  C   UNL     1      34.477 -18.457 -23.604  0.00  0.00    -0.000 C 
ATOM     28  C   UNL     1      35.346 -16.837 -22.037  0.00  0.00    -0.000 C 
ATOM     29  C   UNL     1      34.443 -17.478 -24.598  0.00  0.00    +0.000 C 
ATOM     30  C   UNL     1      35.312 -15.858 -23.030  0.00  0.00    +0.000 C 
ATOM     31  C   UNL     1      34.861 -16.179 -24.311  0.00  0.00    +0.000 C 
ENDBRANCH  23  26
ENDBRANCH  19  20
ENDBRANCH   2  19
TORSDOF 5
ENDMDL
MODEL 6
REMARK VINA RESULT:     -10.1     10.712     14.756
REMARK  Name = 11987860
REMARK  5 active torsions:
REMARK  status: ('A' for Active; 'I' for Inactive)
REMARK    1  A    between atoms: N_2  and  C_19
REMARK    2  A    between atoms: C_3  and  C_11
REMARK    3  A    between atoms: N_9  and  O_17
REMARK    4  A    between atoms: C_19  and  C_20
REMARK    5  A    between atoms: C_23  and  C_26
REMARK                            x       y       z     vdW  Elec       q    Type
REMARK                         _______ _______ _______ _____ _____    ______ ____
ROOT
ATOM      1  O   UNL     1      31.153 -11.739 -20.435  0.00  0.00    -0.272 OA
ATOM      2  N   UNL     1      32.237 -10.410 -22.010  0.00  0.00    -0.298 N 
ATOM      3  C   UNL     1      31.874 -11.609 -21.421  0.00  0.00    +0.253 C 
ATOM      4  H   UNL     1      32.823 -10.435 -22.801  0.00  0.00    +0.150 HD
ENDROOT
BRANCH   3  11
ATOM      5  O   UNL     1      34.693 -12.649 -21.688  0.00  0.00    -0.327 OA
ATOM      6  O   UNL     1      32.732 -13.763 -21.133  0.00  0.00    -0.320 OA
ATOM      7  O   UNL     1      33.988 -15.772 -25.465  0.00  0.00    -0.250 OA
ATOM      8  N   UNL     1      34.238 -14.874 -23.338  0.00  0.00    -0.255 N 
ATOM      9  N   UNL     1      34.179 -17.198 -23.681  0.00  0.00    -0.181 N 
ATOM     10  C   UNL     1      33.786 -12.478 -22.785  0.00  0.00    +0.174 C 
ATOM     11  C   UNL     1      32.446 -12.789 -22.140  0.00  0.00    +0.222 C 
ATOM     12  C   UNL     1      34.165 -13.834 -21.085  0.00  0.00    +0.256 C 
ATOM     13  C   UNL     1      34.187 -13.498 -23.855  0.00  0.00    +0.128 C 
ATOM     14  C   UNL     1      34.617 -15.033 -21.919  0.00  0.00    +0.156 C 
ATOM     15  C   UNL     1      34.127 -15.942 -24.249  0.00  0.00    +0.326 C 
ATOM     16  H   UNL     1      34.290 -17.334 -22.713  0.00  0.00    +0.184 HD
BRANCH   9  17
ATOM     17  O   UNL     1      34.064 -18.268 -24.583  0.00  0.00    -0.294 OA
ATOM     18  H   UNL     1      34.240 -17.952 -25.484  0.00  0.00    +0.241 HD
ENDBRANCH   9  17
ENDBRANCH   3  11
BRANCH   2  19
ATOM     19  C   UNL     1      31.796  -9.124 -21.519  0.00  0.00    +0.116 C 
BRANCH  19  20
ATOM     20  C   UNL     1      32.325  -8.019 -22.390  0.00  0.00    -0.003 C 
ATOM     21  C   UNL     1      31.444  -7.284 -23.175  0.00  0.00    -0.003 C 
ATOM     22  C   UNL     1      33.686  -7.744 -22.399  0.00  0.00    -0.003 C 
ATOM     23  C   UNL     1      33.300  -5.976 -23.999  0.00  0.00    -0.000 C 
ATOM     24  C   UNL     1      31.935  -6.258 -23.982  0.00  0.00    -0.000 C 
ATOM     25  C   UNL     1      34.176  -6.719 -23.207  0.00  0.00    -0.000 C 
BRANCH  23  26
ATOM     26  C   UNL     1      33.809  -4.910 -24.837  0.00  0.00    -0.000 C 
ATOM     27  C   UNL     1      33.105  -3.712 -24.944  0.00  0.00    -0.000 C 
ATOM     28  C   UNL     1      35.004  -5.083 -25.534  0.00  0.00    -0.000 C 
ATOM     29  C   UNL     1      33.597  -2.684 -25.751  0.00  0.00    +0.000 C 
ATOM     30  C   UNL     1      35.496  -4.057 -26.340  0.00  0.00    +0.000 C 
ATOM     31  C   UNL     1      34.792  -2.857 -26.449  0.00  0.00    +0.000 C 
ENDBRANCH  23  26
ENDBRANCH  19  20
ENDBRANCH   2  19
TORSDOF 5
ENDMDL
MODEL 7
REMARK VINA RESULT:     -10.1      1.996      2.638
REMARK  Name = 11987860
REMARK  5 active torsions:
REMARK  status: ('A' for Active; 'I' for Inactive)
REMARK    1  A    between atoms: N_2  and  C_19
REMARK    2  A    between atoms: C_3  and  C_11
REMARK    3  A    between atoms: N_9  and  O_17
REMARK    4  A    between atoms: C_19  and  C_20
REMARK    5  A    between atoms: C_23  and  C_26
REMARK                            x       y       z     vdW  Elec       q    Type
REMARK                         _______ _______ _______ _____ _____    ______ ____
ROOT
ATOM      1  O   UNL     1      32.027 -22.866 -14.365  0.00  0.00    -0.272 OA
ATOM      2  N   UNL     1      33.302 -23.508 -16.204  0.00  0.00    -0.298 N 
ATOM      3  C   UNL     1      33.037 -23.365 -14.853  0.00  0.00    +0.253 C 
ATOM      4  H   UNL     1      34.151 -23.927 -16.473  0.00  0.00    +0.150 HD
ENDROOT
BRANCH   3  11
ATOM      5  O   UNL     1      36.009 -23.639 -15.293  0.00  0.00    -0.327 OA
ATOM      6  O   UNL     1      34.836 -22.789 -13.477  0.00  0.00    -0.320 OA
ATOM      7  O   UNL     1      37.022 -26.813 -11.631  0.00  0.00    -0.250 OA
ATOM      8  N   UNL     1      36.747 -24.878 -12.885  0.00  0.00    -0.255 N 
ATOM      9  N   UNL     1      37.846 -24.839 -10.809  0.00  0.00    -0.181 N 
ATOM     10  C   UNL     1      35.162 -24.690 -14.809  0.00  0.00    +0.174 C 
ATOM     11  C   UNL     1      34.133 -23.920 -13.999  0.00  0.00    +0.222 C 
ATOM     12  C   UNL     1      36.117 -22.822 -14.124  0.00  0.00    +0.256 C 
ATOM     13  C   UNL     1      36.039 -25.605 -13.949  0.00  0.00    +0.128 C 
ATOM     14  C   UNL     1      37.120 -23.479 -13.176  0.00  0.00    +0.156 C 
ATOM     15  C   UNL     1      37.197 -25.597 -11.761  0.00  0.00    +0.326 C 
ATOM     16  H   UNL     1      37.986 -23.871 -10.911  0.00  0.00    +0.184 HD
BRANCH   9  17
ATOM     17  O   UNL     1      38.294 -25.548  -9.683  0.00  0.00    -0.294 OA
ATOM     18  H   UNL     1      38.001 -25.093  -8.877  0.00  0.00    +0.241 HD
ENDBRANCH   9  17
ENDBRANCH   3  11
BRANCH   2  19
ATOM     19  C   UNL     1      32.390 -23.073 -17.238  0.00  0.00    +0.116 C 
BRANCH  19  20
ATOM     20  C   UNL     1      33.091 -22.166 -18.210  0.00  0.00    -0.003 C 
ATOM     21  C   UNL     1      32.348 -21.267 -18.967  0.00  0.00    -0.003 C 
ATOM     22  C   UNL     1      34.471 -22.237 -18.342  0.00  0.00    -0.003 C 
ATOM     23  C   UNL     1      34.384 -20.490 -20.008  0.00  0.00    -0.000 C 
ATOM     24  C   UNL     1      32.998 -20.426 -19.869  0.00  0.00    -0.000 C 
ATOM     25  C   UNL     1      35.121 -21.396 -19.245  0.00  0.00    -0.000 C 
BRANCH  23  26
ATOM     26  C   UNL     1      35.059 -19.616 -20.944  0.00  0.00    -0.000 C 
ATOM     27  C   UNL     1      34.423 -19.234 -22.125  0.00  0.00    -0.000 C 
ATOM     28  C   UNL     1      36.345 -19.155 -20.664  0.00  0.00    -0.000 C 
ATOM     29  C   UNL     1      35.073 -18.391 -23.027  0.00  0.00    +0.000 C 
ATOM     30  C   UNL     1      36.996 -18.313 -21.565  0.00  0.00    +0.000 C 
ATOM     31  C   UNL     1      36.360 -17.931 -22.747  0.00  0.00    +0.000 C 
ENDBRANCH  23  26
ENDBRANCH  19  20
ENDBRANCH   2  19
TORSDOF 5
ENDMDL
MODEL 8
REMARK VINA RESULT:     -10.0     12.821     17.464
REMARK  Name = 11987860
REMARK  5 active torsions:
REMARK  status: ('A' for Active; 'I' for Inactive)
REMARK    1  A    between atoms: N_2  and  C_19
REMARK    2  A    between atoms: C_3  and  C_11
REMARK    3  A    between atoms: N_9  and  O_17
REMARK    4  A    between atoms: C_19  and  C_20
REMARK    5  A    between atoms: C_23  and  C_26
REMARK                            x       y       z     vdW  Elec       q    Type
REMARK                         _______ _______ _______ _____ _____    ______ ____
ROOT
ATOM      1  O   UNL     1      33.130  -7.482 -19.958  0.00  0.00    -0.272 OA
ATOM      2  N   UNL     1      31.641  -8.641 -21.321  0.00  0.00    -0.298 N 
ATOM      3  C   UNL     1      32.476  -7.587 -20.992  0.00  0.00    +0.253 C 
ATOM      4  H   UNL     1      31.168  -8.612 -22.184  0.00  0.00    +0.150 HD
ENDROOT
BRANCH   3  11
ATOM      5  O   UNL     1      30.415  -5.667 -22.069  0.00  0.00    -0.327 OA
ATOM      6  O   UNL     1      32.607  -5.291 -21.400  0.00  0.00    -0.320 OA
ATOM      7  O   UNL     1      32.725  -4.349 -26.245  0.00  0.00    -0.250 OA
ATOM      8  N   UNL     1      31.927  -4.398 -24.065  0.00  0.00    -0.255 N 
ATOM      9  N   UNL     1      33.010  -2.498 -24.925  0.00  0.00    -0.181 N 
ATOM     10  C   UNL     1      31.253  -6.497 -22.885  0.00  0.00    +0.174 C 
ATOM     11  C   UNL     1      32.534  -6.552 -22.070  0.00  0.00    +0.222 C 
ATOM     12  C   UNL     1      31.346  -4.658 -21.666  0.00  0.00    +0.256 C 
ATOM     13  C   UNL     1      31.426  -5.771 -24.223  0.00  0.00    +0.128 C 
ATOM     14  C   UNL     1      31.530  -3.687 -22.833  0.00  0.00    +0.156 C 
ATOM     15  C   UNL     1      32.566  -3.783 -25.159  0.00  0.00    +0.326 C 
ATOM     16  H   UNL     1      32.883  -2.046 -24.060  0.00  0.00    +0.184 HD
BRANCH   9  17
ATOM     17  O   UNL     1      33.653  -1.880 -26.009  0.00  0.00    -0.294 OA
ATOM     18  H   UNL     1      33.210  -2.132 -26.835  0.00  0.00    +0.241 HD
ENDBRANCH   9  17
ENDBRANCH   3  11
BRANCH   2  19
ATOM     19  C   UNL     1      31.430  -9.781 -20.458  0.00  0.00    +0.116 C 
BRANCH  19  20
ATOM     20  C   UNL     1      32.071 -11.010 -21.041  0.00  0.00    -0.003 C 
ATOM     21  C   UNL     1      32.598 -10.963 -22.326  0.00  0.00    -0.003 C 
ATOM     22  C   UNL     1      32.128 -12.176 -20.290  0.00  0.00    -0.003 C 
ATOM     23  C   UNL     1      33.254 -13.278 -22.120  0.00  0.00    -0.000 C 
ATOM     24  C   UNL     1      33.192 -12.103 -22.867  0.00  0.00    -0.000 C 
ATOM     25  C   UNL     1      32.722 -13.315 -20.831  0.00  0.00    -0.000 C 
BRANCH  23  26
ATOM     26  C   UNL     1      33.872 -14.462 -22.681  0.00  0.00    -0.000 C 
ATOM     27  C   UNL     1      34.653 -15.289 -21.875  0.00  0.00    -0.000 C 
ATOM     28  C   UNL     1      33.684 -14.775 -24.027  0.00  0.00    -0.000 C 
ATOM     29  C   UNL     1      35.248 -16.429 -22.415  0.00  0.00    +0.000 C 
ATOM     30  C   UNL     1      34.278 -15.915 -24.567  0.00  0.00    +0.000 C 
ATOM     31  C   UNL     1      35.060 -16.743 -23.762  0.00  0.00    +0.000 C 
ENDBRANCH  23  26
ENDBRANCH  19  20
ENDBRANCH   2  19
TORSDOF 5
ENDMDL
MODEL 9
REMARK VINA RESULT:      -9.9      8.553     12.782
REMARK  Name = 11987860
REMARK  5 active torsions:
REMARK  status: ('A' for Active; 'I' for Inactive)
REMARK    1  A    between atoms: N_2  and  C_19
REMARK    2  A    between atoms: C_3  and  C_11
REMARK    3  A    between atoms: N_9  and  O_17
REMARK    4  A    between atoms: C_19  and  C_20
REMARK    5  A    between atoms: C_23  and  C_26
REMARK                            x       y       z     vdW  Elec       q    Type
REMARK                         _______ _______ _______ _____ _____    ______ ____
ROOT
ATOM      1  O   UNL     1      33.426 -13.418 -24.968  0.00  0.00    -0.272 OA
ATOM      2  N   UNL     1      34.512 -14.365 -23.139  0.00  0.00    -0.298 N 
ATOM      3  C   UNL     1      33.761 -13.399 -23.786  0.00  0.00    +0.253 C 
ATOM      4  H   UNL     1      34.716 -14.238 -22.184  0.00  0.00    +0.150 HD
ENDROOT
BRANCH   3  11
ATOM      5  O   UNL     1      31.558 -13.170 -21.739  0.00  0.00    -0.327 OA
ATOM      6  O   UNL     1      33.818 -12.664 -21.570  0.00  0.00    -0.320 OA
ATOM      7  O   UNL     1      31.634  -8.261 -21.099  0.00  0.00    -0.250 OA
ATOM      8  N   UNL     1      31.989 -10.542 -20.850  0.00  0.00    -0.255 N 
ATOM      9  N   UNL     1      32.634  -9.019 -19.182  0.00  0.00    -0.181 N 
ATOM     10  C   UNL     1      31.843 -12.179 -22.735  0.00  0.00    +0.174 C 
ATOM     11  C   UNL     1      33.353 -12.290 -22.869  0.00  0.00    +0.222 C 
ATOM     12  C   UNL     1      32.627 -12.940 -20.817  0.00  0.00    +0.256 C 
ATOM     13  C   UNL     1      31.391 -10.832 -22.162  0.00  0.00    +0.128 C 
ATOM     14  C   UNL     1      32.282 -11.704 -19.987  0.00  0.00    +0.156 C 
ATOM     15  C   UNL     1      32.055  -9.203 -20.420  0.00  0.00    +0.326 C 
ATOM     16  H   UNL     1      32.971  -9.769 -18.641  0.00  0.00    +0.184 HD
BRANCH   9  17
ATOM     17  O   UNL     1      32.709  -7.686 -18.748  0.00  0.00    -0.294 OA
ATOM     18  H   UNL     1      33.259  -7.176 -19.364  0.00  0.00    +0.241 HD
ENDBRANCH   9  17
ENDBRANCH   3  11
BRANCH   2  19
ATOM     19  C   UNL     1      35.010 -15.551 -23.798  0.00  0.00    +0.116 C 
BRANCH  19  20
ATOM     20  C   UNL     1      34.974 -16.728 -22.864  0.00  0.00    -0.003 C 
ATOM     21  C   UNL     1      35.336 -16.557 -21.533  0.00  0.00    -0.003 C 
ATOM     22  C   UNL     1      34.580 -17.971 -23.341  0.00  0.00    -0.003 C 
ATOM     23  C   UNL     1      34.908 -18.901 -21.136  0.00  0.00    -0.000 C 
ATOM     24  C   UNL     1      35.302 -17.650 -20.666  0.00  0.00    -0.000 C 
ATOM     25  C   UNL     1      34.547 -19.062 -22.474  0.00  0.00    -0.000 C 
BRANCH  23  26
ATOM     26  C   UNL     1      34.873 -20.035 -20.236  0.00  0.00    -0.000 C 
ATOM     27  C   UNL     1      33.650 -20.599 -19.874  0.00  0.00    -0.000 C 
ATOM     28  C   UNL     1      36.061 -20.563 -19.733  0.00  0.00    -0.000 C 
ATOM     29  C   UNL     1      33.616 -21.692 -19.008  0.00  0.00    +0.000 C 
ATOM     30  C   UNL     1      36.028 -21.655 -18.867  0.00  0.00    +0.000 C 
ATOM     31  C   UNL     1      34.805 -22.220 -18.504  0.00  0.00    +0.000 C 
ENDBRANCH  23  26
ENDBRANCH  19  20
ENDBRANCH   2  19
TORSDOF 5
ENDMDL
