MODEL 1
REMARK VINA RESULT:     -11.6      0.000      0.000
REMARK  Name = 9909438
REMARK  10 active torsions:
REMARK  status: ('A' for Active; 'I' for Inactive)
REMARK    1  A    between atoms: C_1  and  C_2
REMARK    2  A    between atoms: C_1  and  C_18
REMARK    3  A    between atoms: C_2  and  C_7
REMARK    4  A    between atoms: N_4  and  C_10
REMARK    5  A    between atoms: C_10  and  C_11
REMARK    6  A    between atoms: C_18  and  C_19
REMARK    7  A    between atoms: C_22  and  O_25
REMARK    8  A    between atoms: O_25  and  C_26
REMARK    9  A    between atoms: C_26  and  C_30
REMARK   10  A    between atoms: C_30  and  O_31
REMARK                            x       y       z     vdW  Elec       q    Type
REMARK                         _______ _______ _______ _____ _____    ______ ____
ROOT
ATOM      1  C   UNL     1      34.233 -13.885 -23.054  0.00  0.00    +0.014 C 
ENDROOT
BRANCH   1   2
ATOM      2  C   UNL     1      33.823 -14.854 -24.160  0.00  0.00    +0.078 C 
BRANCH   2   7
ATOM      3  O   UNL     1      34.518 -19.521 -24.318  0.00  0.00    -0.191 OA
ATOM      4  N   UNL     1      35.354 -17.861 -22.918  0.00  0.00    -0.151 N 
ATOM      5  N   UNL     1      35.158 -16.516 -22.850  0.00  0.00    -0.229 N 
ATOM      6  N   UNL     1      33.920 -17.285 -24.561  0.00  0.00    -0.308 NA
ATOM      7  C   UNL     1      34.287 -16.238 -23.860  0.00  0.00    +0.187 C 
ATOM      8  C   UNL     1      34.593 -18.351 -23.965  0.00  0.00    +0.286 C 
ATOM      9  H   UNL     1      35.558 -15.883 -22.211  0.00  0.00    +0.173 HD
BRANCH   4  10
ATOM     10  C   UNL     1      36.221 -18.530 -21.988  0.00  0.00    +0.152 C 
BRANCH  10  11
ATOM     11  C   UNL     1      35.461 -19.437 -21.064  0.00  0.00    +0.000 C 
ATOM     12  C   UNL     1      34.071 -19.432 -21.087  0.00  0.00    -0.003 C 
ATOM     13  C   UNL     1      36.154 -20.271 -20.195  0.00  0.00    -0.003 C 
ATOM     14  C   UNL     1      34.052 -21.115 -19.354  0.00  0.00    -0.022 C 
ATOM     15  C   UNL     1      33.364 -20.275 -20.228  0.00  0.00    -0.005 C 
ATOM     16  C   UNL     1      35.447 -21.113 -19.338  0.00  0.00    -0.005 C 
ATOM     17  C   UNL     1      33.296 -22.015 -18.436  0.00  0.00    +0.031 C 
ENDBRANCH  10  11
ENDBRANCH   4  10
ENDBRANCH   2   7
ENDBRANCH   1   2
BRANCH   1  18
ATOM     18  C   UNL     1      33.095 -13.611 -22.064  0.00  0.00    +0.027 C 
BRANCH  18  19
ATOM     19  C   UNL     1      32.689 -12.160 -22.071  0.00  0.00    -0.022 C 
ATOM     20  C   UNL     1      33.284 -11.292 -22.975  0.00  0.00    -0.001 C 
ATOM     21  C   UNL     1      31.729 -11.716 -21.176  0.00  0.00    -0.001 C 
ATOM     22  C   UNL     1      31.943  -9.489 -22.087  0.00  0.00    +0.139 C 
ATOM     23  C   UNL     1      32.909  -9.948 -22.983  0.00  0.00    +0.037 C 
ATOM     24  C   UNL     1      31.354 -10.372 -21.183  0.00  0.00    +0.037 C 
BRANCH  22  25
ATOM     25  O   UNL     1      31.577  -8.178 -22.093  0.00  0.00    -0.472 OA
BRANCH  25  26
ATOM     26  C   UNL     1      32.382  -7.276 -21.334  0.00  0.00    +0.221 C 
ATOM     27  C   UNL     1      32.610  -7.891 -19.957  0.00  0.00    +0.055 C 
ATOM     28  C   UNL     1      33.687  -7.054 -22.093  0.00  0.00    +0.055 C 
BRANCH  26  30
ATOM     29  O   UNL     1      30.703  -5.657 -22.031  0.00  0.00    -0.246 OA
ATOM     30  C   UNL     1      31.574  -5.989 -21.237  0.00  0.00    +0.350 C 
BRANCH  30  31
ATOM     31  O   UNL     1      31.911  -5.222 -20.168  0.00  0.00    -0.478 OA
ATOM     32  H   UNL     1      31.460  -4.416 -20.009  0.00  0.00    +0.295 HD
ENDBRANCH  30  31
ENDBRANCH  26  30
ENDBRANCH  25  26
ENDBRANCH  22  25
ENDBRANCH  18  19
ENDBRANCH   1  18
TORSDOF 10
ENDMDL
MODEL 2
REMARK VINA RESULT:     -11.5      1.188      2.034
REMARK  Name = 9909438
REMARK  10 active torsions:
REMARK  status: ('A' for Active; 'I' for Inactive)
REMARK    1  A    between atoms: C_1  and  C_2
REMARK    2  A    between atoms: C_1  and  C_18
REMARK    3  A    between atoms: C_2  and  C_7
REMARK    4  A    between atoms: N_4  and  C_10
REMARK    5  A    between atoms: C_10  and  C_11
REMARK    6  A    between atoms: C_18  and  C_19
REMARK    7  A    between atoms: C_22  and  O_25
REMARK    8  A    between atoms: O_25  and  C_26
REMARK    9  A    between atoms: C_26  and  C_30
REMARK   10  A    between atoms: C_30  and  O_31
REMARK                            x       y       z     vdW  Elec       q    Type
REMARK                         _______ _______ _______ _____ _____    ______ ____
ROOT
ATOM      1  C   UNL     1      33.251 -13.308 -23.154  0.00  0.00    +0.014 C 
ENDROOT
BRANCH   1   2
ATOM      2  C   UNL     1      34.337 -13.972 -22.312  0.00  0.00    +0.078 C 
BRANCH   2   7
ATOM      3  O   UNL     1      34.318 -17.992 -24.787  0.00  0.00    -0.191 OA
ATOM      4  N   UNL     1      35.397 -17.370 -22.822  0.00  0.00    -0.151 N 
ATOM      5  N   UNL     1      35.407 -16.223 -22.090  0.00  0.00    -0.229 N 
ATOM      6  N   UNL     1      34.064 -15.873 -23.858  0.00  0.00    -0.308 NA
ATOM      7  C   UNL     1      34.587 -15.369 -22.764  0.00  0.00    +0.187 C 
ATOM      8  C   UNL     1      34.569 -17.173 -23.913  0.00  0.00    +0.286 C 
ATOM      9  H   UNL     1      35.899 -16.048 -21.255  0.00  0.00    +0.173 HD
BRANCH   4  10
ATOM     10  C   UNL     1      36.153 -18.518 -22.408  0.00  0.00    +0.152 C 
BRANCH  10  11
ATOM     11  C   UNL     1      35.403 -19.356 -21.413  0.00  0.00    +0.000 C 
ATOM     12  C   UNL     1      36.105 -20.065 -20.446  0.00  0.00    -0.003 C 
ATOM     13  C   UNL     1      34.016 -19.415 -21.471  0.00  0.00    -0.003 C 
ATOM     14  C   UNL     1      34.016 -20.908 -19.572  0.00  0.00    -0.022 C 
ATOM     15  C   UNL     1      35.407 -20.844 -19.521  0.00  0.00    -0.005 C 
ATOM     16  C   UNL     1      33.320 -20.193 -20.547  0.00  0.00    -0.005 C 
ATOM     17  C   UNL     1      33.271 -21.741 -18.584  0.00  0.00    +0.031 C 
ENDBRANCH  10  11
ENDBRANCH   4  10
ENDBRANCH   2   7
ENDBRANCH   1   2
BRANCH   1  18
ATOM     18  C   UNL     1      33.807 -12.205 -24.062  0.00  0.00    +0.027 C 
BRANCH  18  19
ATOM     19  C   UNL     1      33.601 -10.837 -23.464  0.00  0.00    -0.022 C 
ATOM     20  C   UNL     1      32.581 -10.642 -22.546  0.00  0.00    -0.001 C 
ATOM     21  C   UNL     1      34.436  -9.796 -23.842  0.00  0.00    -0.001 C 
ATOM     22  C   UNL     1      33.224  -8.321 -22.362  0.00  0.00    +0.139 C 
ATOM     23  C   UNL     1      32.390  -9.376 -21.991  0.00  0.00    +0.037 C 
ATOM     24  C   UNL     1      34.246  -8.530 -23.288  0.00  0.00    +0.037 C 
BRANCH  22  25
ATOM     25  O   UNL     1      33.038  -7.085 -21.823  0.00  0.00    -0.472 OA
BRANCH  25  26
ATOM     26  C   UNL     1      32.212  -6.176 -22.550  0.00  0.00    +0.221 C 
ATOM     27  C   UNL     1      33.123  -5.219 -23.314  0.00  0.00    +0.055 C 
ATOM     28  C   UNL     1      31.318  -6.991 -23.480  0.00  0.00    +0.055 C 
BRANCH  26  30
ATOM     29  O   UNL     1      30.213  -5.133 -21.634  0.00  0.00    -0.246 OA
ATOM     30  C   UNL     1      31.391  -5.439 -21.502  0.00  0.00    +0.350 C 
BRANCH  30  31
ATOM     31  O   UNL     1      32.095  -5.141 -20.378  0.00  0.00    -0.478 OA
ATOM     32  H   UNL     1      31.658  -5.096 -19.551  0.00  0.00    +0.295 HD
ENDBRANCH  30  31
ENDBRANCH  26  30
ENDBRANCH  25  26
ENDBRANCH  22  25
ENDBRANCH  18  19
ENDBRANCH   1  18
TORSDOF 10
ENDMDL
MODEL 3
REMARK VINA RESULT:     -11.2      0.889      1.738
REMARK  Name = 9909438
REMARK  10 active torsions:
REMARK  status: ('A' for Active; 'I' for Inactive)
REMARK    1  A    between atoms: C_1  and  C_2
REMARK    2  A    between atoms: C_1  and  C_18
REMARK    3  A    between atoms: C_2  and  C_7
REMARK    4  A    between atoms: N_4  and  C_10
REMARK    5  A    between atoms: C_10  and  C_11
REMARK    6  A    between atoms: C_18  and  C_19
REMARK    7  A    between atoms: C_22  and  O_25
REMARK    8  A    between atoms: O_25  and  C_26
REMARK    9  A    between atoms: C_26  and  C_30
REMARK   10  A    between atoms: C_30  and  O_31
REMARK                            x       y       z     vdW  Elec       q    Type
REMARK                         _______ _______ _______ _____ _____    ______ ____
ROOT
ATOM      1  C   UNL     1      34.237 -13.809 -22.868  0.00  0.00    +0.014 C 
ENDROOT
BRANCH   1   2
ATOM      2  C   UNL     1      33.806 -14.730 -24.006  0.00  0.00    +0.078 C 
BRANCH   2   7
ATOM      3  O   UNL     1      34.445 -19.396 -24.348  0.00  0.00    -0.191 OA
ATOM      4  N   UNL     1      35.323 -17.798 -22.903  0.00  0.00    -0.151 N 
ATOM      5  N   UNL     1      35.143 -16.454 -22.782  0.00  0.00    -0.229 N 
ATOM      6  N   UNL     1      33.868 -17.145 -24.498  0.00  0.00    -0.308 NA
ATOM      7  C   UNL     1      34.259 -16.129 -23.765  0.00  0.00    +0.187 C 
ATOM      8  C   UNL     1      34.539 -18.240 -23.953  0.00  0.00    +0.286 C 
ATOM      9  H   UNL     1      35.561 -15.849 -22.127  0.00  0.00    +0.173 HD
BRANCH   4  10
ATOM     10  C   UNL     1      36.197 -18.510 -22.013  0.00  0.00    +0.152 C 
BRANCH  10  11
ATOM     11  C   UNL     1      35.440 -19.418 -21.089  0.00  0.00    +0.000 C 
ATOM     12  C   UNL     1      36.137 -20.254 -20.224  0.00  0.00    -0.003 C 
ATOM     13  C   UNL     1      34.050 -19.415 -21.107  0.00  0.00    -0.003 C 
ATOM     14  C   UNL     1      34.039 -21.101 -19.377  0.00  0.00    -0.022 C 
ATOM     15  C   UNL     1      35.433 -21.098 -19.364  0.00  0.00    -0.005 C 
ATOM     16  C   UNL     1      33.347 -20.259 -20.248  0.00  0.00    -0.005 C 
ATOM     17  C   UNL     1      33.287 -22.004 -18.458  0.00  0.00    +0.031 C 
ENDBRANCH  10  11
ENDBRANCH   4  10
ENDBRANCH   2   7
ENDBRANCH   1   2
BRANCH   1  18
ATOM     18  C   UNL     1      33.063 -13.394 -21.974  0.00  0.00    +0.027 C 
BRANCH  18  19
ATOM     19  C   UNL     1      32.707 -11.941 -22.164  0.00  0.00    -0.022 C 
ATOM     20  C   UNL     1      31.698 -11.382 -21.394  0.00  0.00    -0.001 C 
ATOM     21  C   UNL     1      33.395 -11.188 -23.103  0.00  0.00    -0.001 C 
ATOM     22  C   UNL     1      32.054  -9.268 -22.509  0.00  0.00    +0.139 C 
ATOM     23  C   UNL     1      31.369 -10.037 -21.568  0.00  0.00    +0.037 C 
ATOM     24  C   UNL     1      33.066  -9.844 -23.277  0.00  0.00    +0.037 C 
BRANCH  22  25
ATOM     25  O   UNL     1      31.733  -7.957 -22.681  0.00  0.00    -0.472 OA
BRANCH  25  26
ATOM     26  C   UNL     1      32.350  -7.017 -21.802  0.00  0.00    +0.221 C 
ATOM     27  C   UNL     1      31.331  -5.928 -21.484  0.00  0.00    +0.055 C 
ATOM     28  C   UNL     1      32.806  -7.766 -20.553  0.00  0.00    +0.055 C 
BRANCH  26  30
ATOM     29  O   UNL     1      33.459  -5.574 -23.419  0.00  0.00    -0.246 OA
ATOM     30  C   UNL     1      33.538  -6.455 -22.572  0.00  0.00    +0.350 C 
BRANCH  30  31
ATOM     31  O   UNL     1      34.721  -7.028 -22.230  0.00  0.00    -0.478 OA
ATOM     32  H   UNL     1      34.735  -7.889 -21.863  0.00  0.00    +0.295 HD
ENDBRANCH  30  31
ENDBRANCH  26  30
ENDBRANCH  25  26
ENDBRANCH  22  25
ENDBRANCH  18  19
ENDBRANCH   1  18
TORSDOF 10
ENDMDL
MODEL 4
REMARK VINA RESULT:     -11.1      5.723     12.857
REMARK  Name = 9909438
REMARK  10 active torsions:
REMARK  status: ('A' for Active; 'I' for Inactive)
REMARK    1  A    between atoms: C_1  and  C_2
REMARK    2  A    between atoms: C_1  and  C_18
REMARK    3  A    between atoms: C_2  and  C_7
REMARK    4  A    between atoms: N_4  and  C_10
REMARK    5  A    between atoms: C_10  and  C_11
REMARK    6  A    between atoms: C_18  and  C_19
REMARK    7  A    between atoms: C_22  and  O_25
REMARK    8  A    between atoms: O_25  and  C_26
REMARK    9  A    between atoms: C_26  and  C_30
REMARK   10  A    between atoms: C_30  and  O_31
REMARK                            x       y       z     vdW  Elec       q    Type
REMARK                         _______ _______ _______ _____ _____    ______ ____
ROOT
ATOM      1  C   UNL     1      34.402 -22.040 -18.789  0.00  0.00    +0.014 C 
ENDROOT
BRANCH   1   2
ATOM      2  C   UNL     1      33.688 -20.897 -19.506  0.00  0.00    +0.078 C 
BRANCH   2   7
ATOM      3  O   UNL     1      37.537 -18.609 -21.001  0.00  0.00    -0.191 OA
ATOM      4  N   UNL     1      35.456 -18.972 -21.975  0.00  0.00    -0.151 N 
ATOM      5  N   UNL     1      34.333 -19.617 -21.557  0.00  0.00    -0.229 N 
ATOM      6  N   UNL     1      35.861 -19.809 -19.920  0.00  0.00    -0.308 NA
ATOM      7  C   UNL     1      34.643 -20.093 -20.319  0.00  0.00    +0.187 C 
ATOM      8  C   UNL     1      36.406 -19.075 -20.975  0.00  0.00    +0.286 C 
ATOM      9  H   UNL     1      33.482 -19.718 -22.043  0.00  0.00    +0.173 HD
BRANCH   4  10
ATOM     10  C   UNL     1      35.502 -18.323 -23.256  0.00  0.00    +0.152 C 
BRANCH  10  11
ATOM     11  C   UNL     1      34.963 -16.923 -23.196  0.00  0.00    +0.000 C 
ATOM     12  C   UNL     1      34.342 -16.378 -24.314  0.00  0.00    -0.003 C 
ATOM     13  C   UNL     1      35.092 -16.185 -22.025  0.00  0.00    -0.003 C 
ATOM     14  C   UNL     1      33.967 -14.331 -23.088  0.00  0.00    -0.022 C 
ATOM     15  C   UNL     1      33.841 -15.077 -24.259  0.00  0.00    -0.005 C 
ATOM     16  C   UNL     1      34.592 -14.885 -21.971  0.00  0.00    -0.005 C 
ATOM     17  C   UNL     1      33.432 -12.939 -23.030  0.00  0.00    +0.031 C 
ENDBRANCH  10  11
ENDBRANCH   4  10
ENDBRANCH   2   7
ENDBRANCH   1   2
BRANCH   1  18
ATOM     18  C   UNL     1      33.525 -22.699 -17.719  0.00  0.00    +0.027 C 
BRANCH  18  19
ATOM     19  C   UNL     1      34.266 -22.864 -16.417  0.00  0.00    -0.022 C 
ATOM     20  C   UNL     1      33.590 -23.340 -15.304  0.00  0.00    -0.001 C 
ATOM     21  C   UNL     1      35.612 -22.538 -16.354  0.00  0.00    -0.001 C 
ATOM     22  C   UNL     1      35.630 -23.171 -14.022  0.00  0.00    +0.139 C 
ATOM     23  C   UNL     1      34.275 -23.494 -14.099  0.00  0.00    +0.037 C 
ATOM     24  C   UNL     1      36.299 -22.692 -15.149  0.00  0.00    +0.037 C 
BRANCH  22  25
ATOM     25  O   UNL     1      36.300 -23.320 -12.847  0.00  0.00    -0.472 OA
BRANCH  25  26
ATOM     26  C   UNL     1      36.862 -24.603 -12.578  0.00  0.00    +0.221 C 
ATOM     27  C   UNL     1      36.301 -25.588 -13.599  0.00  0.00    +0.055 C 
ATOM     28  C   UNL     1      38.380 -24.481 -12.663  0.00  0.00    +0.055 C 
BRANCH  26  30
ATOM     29  O   UNL     1      37.178 -25.150 -10.226  0.00  0.00    -0.246 OA
ATOM     30  C   UNL     1      36.415 -24.958 -11.166  0.00  0.00    +0.350 C 
BRANCH  30  31
ATOM     31  O   UNL     1      35.066 -25.045 -11.034  0.00  0.00    -0.478 OA
ATOM     32  H   UNL     1      34.652 -24.740 -10.252  0.00  0.00    +0.295 HD
ENDBRANCH  30  31
ENDBRANCH  26  30
ENDBRANCH  25  26
ENDBRANCH  22  25
ENDBRANCH  18  19
ENDBRANCH   1  18
TORSDOF 10
ENDMDL
MODEL 5
REMARK VINA RESULT:     -10.8      5.294     12.784
REMARK  Name = 9909438
REMARK  10 active torsions:
REMARK  status: ('A' for Active; 'I' for Inactive)
REMARK    1  A    between atoms: C_1  and  C_2
REMARK    2  A    between atoms: C_1  and  C_18
REMARK    3  A    between atoms: C_2  and  C_7
REMARK    4  A    between atoms: N_4  and  C_10
REMARK    5  A    between atoms: C_10  and  C_11
REMARK    6  A    between atoms: C_18  and  C_19
REMARK    7  A    between atoms: C_22  and  O_25
REMARK    8  A    between atoms: O_25  and  C_26
REMARK    9  A    between atoms: C_26  and  C_30
REMARK   10  A    between atoms: C_30  and  O_31
REMARK                            x       y       z     vdW  Elec       q    Type
REMARK                         _______ _______ _______ _____ _____    ______ ____
ROOT
ATOM      1  C   UNL     1      34.055 -22.089 -19.017  0.00  0.00    +0.014 C 
ENDROOT
BRANCH   1   2
ATOM      2  C   UNL     1      33.450 -20.817 -19.606  0.00  0.00    +0.078 C 
BRANCH   2   7
ATOM      3  O   UNL     1      37.448 -18.708 -20.970  0.00  0.00    -0.191 OA
ATOM      4  N   UNL     1      35.374 -18.942 -21.997  0.00  0.00    -0.151 N 
ATOM      5  N   UNL     1      34.209 -19.535 -21.616  0.00  0.00    -0.229 N 
ATOM      6  N   UNL     1      35.687 -19.838 -19.950  0.00  0.00    -0.308 NA
ATOM      7  C   UNL     1      34.465 -20.050 -20.381  0.00  0.00    +0.187 C 
ATOM      8  C   UNL     1      36.294 -19.115 -20.978  0.00  0.00    +0.286 C 
ATOM      9  H   UNL     1      33.366 -19.582 -22.123  0.00  0.00    +0.173 HD
BRANCH   4  10
ATOM     10  C   UNL     1      35.483 -18.273 -23.263  0.00  0.00    +0.152 C 
BRANCH  10  11
ATOM     11  C   UNL     1      34.945 -16.873 -23.207  0.00  0.00    +0.000 C 
ATOM     12  C   UNL     1      35.105 -16.121 -22.050  0.00  0.00    -0.003 C 
ATOM     13  C   UNL     1      34.291 -16.343 -24.313  0.00  0.00    -0.003 C 
ATOM     14  C   UNL     1      33.948 -14.281 -23.103  0.00  0.00    -0.022 C 
ATOM     15  C   UNL     1      34.605 -14.819 -21.998  0.00  0.00    -0.005 C 
ATOM     16  C   UNL     1      33.791 -15.042 -24.261  0.00  0.00    -0.005 C 
ATOM     17  C   UNL     1      33.413 -12.889 -23.047  0.00  0.00    +0.031 C 
ENDBRANCH  10  11
ENDBRANCH   4  10
ENDBRANCH   2   7
ENDBRANCH   1   2
BRANCH   1  18
ATOM     18  C   UNL     1      33.342 -22.538 -17.737  0.00  0.00    +0.027 C 
BRANCH  18  19
ATOM     19  C   UNL     1      34.321 -22.840 -16.632  0.00  0.00    -0.022 C 
ATOM     20  C   UNL     1      35.630 -22.395 -16.743  0.00  0.00    -0.001 C 
ATOM     21  C   UNL     1      33.898 -23.555 -15.523  0.00  0.00    -0.001 C 
ATOM     22  C   UNL     1      36.124 -23.391 -14.599  0.00  0.00    +0.139 C 
ATOM     23  C   UNL     1      36.538 -22.672 -15.721  0.00  0.00    +0.037 C 
ATOM     24  C   UNL     1      34.805 -23.834 -14.500  0.00  0.00    +0.037 C 
BRANCH  22  25
ATOM     25  O   UNL     1      37.009 -23.664 -13.601  0.00  0.00    -0.472 OA
BRANCH  25  26
ATOM     26  C   UNL     1      37.552 -24.983 -13.557  0.00  0.00    +0.221 C 
ATOM     27  C   UNL     1      37.260 -25.568 -12.179  0.00  0.00    +0.055 C 
ATOM     28  C   UNL     1      36.911 -25.795 -14.679  0.00  0.00    +0.055 C 
BRANCH  26  30
ATOM     29  O   UNL     1      39.908 -25.105 -12.958  0.00  0.00    -0.246 OA
ATOM     30  C   UNL     1      39.049 -24.818 -13.782  0.00  0.00    +0.350 C 
BRANCH  30  31
ATOM     31  O   UNL     1      39.357 -24.312 -15.004  0.00  0.00    -0.478 OA
ATOM     32  H   UNL     1      39.474 -24.888 -15.733  0.00  0.00    +0.295 HD
ENDBRANCH  30  31
ENDBRANCH  26  30
ENDBRANCH  25  26
ENDBRANCH  22  25
ENDBRANCH  18  19
ENDBRANCH   1  18
TORSDOF 10
ENDMDL
MODEL 6
REMARK VINA RESULT:     -10.7      4.626     11.668
REMARK  Name = 9909438
REMARK  10 active torsions:
REMARK  status: ('A' for Active; 'I' for Inactive)
REMARK    1  A    between atoms: C_1  and  C_2
REMARK    2  A    between atoms: C_1  and  C_18
REMARK    3  A    between atoms: C_2  and  C_7
REMARK    4  A    between atoms: N_4  and  C_10
REMARK    5  A    between atoms: C_10  and  C_11
REMARK    6  A    between atoms: C_18  and  C_19
REMARK    7  A    between atoms: C_22  and  O_25
REMARK    8  A    between atoms: O_25  and  C_26
REMARK    9  A    between atoms: C_26  and  C_30
REMARK   10  A    between atoms: C_30  and  O_31
REMARK                            x       y       z     vdW  Elec       q    Type
REMARK                         _______ _______ _______ _____ _____    ______ ____
ROOT
ATOM      1  C   UNL     1      34.989 -20.555 -19.855  0.00  0.00    +0.014 C 
ENDROOT
BRANCH   1   2
ATOM      2  C   UNL     1      36.062 -19.657 -20.466  0.00  0.00    +0.078 C 
BRANCH   2   7
ATOM      3  O   UNL     1      33.653 -18.394 -24.325  0.00  0.00    -0.191 OA
ATOM      4  N   UNL     1      35.152 -17.241 -22.969  0.00  0.00    -0.151 N 
ATOM      5  N   UNL     1      35.863 -17.590 -21.862  0.00  0.00    -0.229 N 
ATOM      6  N   UNL     1      34.659 -19.386 -22.475  0.00  0.00    -0.308 NA
ATOM      7  C   UNL     1      35.522 -18.887 -21.622  0.00  0.00    +0.187 C 
ATOM      8  C   UNL     1      34.408 -18.339 -23.363  0.00  0.00    +0.286 C 
ATOM      9  H   UNL     1      36.487 -17.029 -21.347  0.00  0.00    +0.173 HD
BRANCH   4  10
ATOM     10  C   UNL     1      35.263 -15.926 -23.534  0.00  0.00    +0.152 C 
BRANCH  10  11
ATOM     11  C   UNL     1      34.412 -14.927 -22.806  0.00  0.00    +0.000 C 
ATOM     12  C   UNL     1      33.545 -14.111 -23.524  0.00  0.00    -0.003 C 
ATOM     13  C   UNL     1      34.499 -14.827 -21.423  0.00  0.00    -0.003 C 
ATOM     14  C   UNL     1      32.834 -13.077 -21.460  0.00  0.00    -0.022 C 
ATOM     15  C   UNL     1      32.753 -13.183 -22.847  0.00  0.00    -0.005 C 
ATOM     16  C   UNL     1      33.707 -13.899 -20.747  0.00  0.00    -0.005 C 
ATOM     17  C   UNL     1      31.988 -12.084 -20.737  0.00  0.00    +0.031 C 
ENDBRANCH  10  11
ENDBRANCH   4  10
ENDBRANCH   2   7
ENDBRANCH   1   2
BRANCH   1  18
ATOM     18  C   UNL     1      35.545 -21.463 -18.752  0.00  0.00    +0.027 C 
BRANCH  18  19
ATOM     19  C   UNL     1      34.441 -22.109 -17.955  0.00  0.00    -0.022 C 
ATOM     20  C   UNL     1      34.764 -22.959 -16.909  0.00  0.00    -0.001 C 
ATOM     21  C   UNL     1      33.120 -21.841 -18.280  0.00  0.00    -0.001 C 
ATOM     22  C   UNL     1      32.410 -23.296 -16.487  0.00  0.00    +0.139 C 
ATOM     23  C   UNL     1      33.743 -23.557 -16.170  0.00  0.00    +0.037 C 
ATOM     24  C   UNL     1      32.098 -22.439 -17.542  0.00  0.00    +0.037 C 
BRANCH  22  25
ATOM     25  O   UNL     1      31.412 -23.879 -15.768  0.00  0.00    -0.472 OA
BRANCH  25  26
ATOM     26  C   UNL     1      31.162 -23.358 -14.463  0.00  0.00    +0.221 C 
ATOM     27  C   UNL     1      32.337 -22.463 -14.079  0.00  0.00    +0.055 C 
ATOM     28  C   UNL     1      29.842 -22.595 -14.504  0.00  0.00    +0.055 C 
BRANCH  26  30
ATOM     29  O   UNL     1      31.910 -24.871 -12.708  0.00  0.00    -0.246 OA
ATOM     30  C   UNL     1      31.070 -24.572 -13.548  0.00  0.00    +0.350 C 
BRANCH  30  31
ATOM     31  O   UNL     1      29.949 -25.313 -13.747  0.00  0.00    -0.478 OA
ATOM     32  H   UNL     1      29.981 -26.244 -13.655  0.00  0.00    +0.295 HD
ENDBRANCH  30  31
ENDBRANCH  26  30
ENDBRANCH  25  26
ENDBRANCH  22  25
ENDBRANCH  18  19
ENDBRANCH   1  18
TORSDOF 10
ENDMDL
MODEL 7
REMARK VINA RESULT:     -10.7      4.791     12.013
REMARK  Name = 9909438
REMARK  10 active torsions:
REMARK  status: ('A' for Active; 'I' for Inactive)
REMARK    1  A    between atoms: C_1  and  C_2
REMARK    2  A    between atoms: C_1  and  C_18
REMARK    3  A    between atoms: C_2  and  C_7
REMARK    4  A    between atoms: N_4  and  C_10
REMARK    5  A    between atoms: C_10  and  C_11
REMARK    6  A    between atoms: C_18  and  C_19
REMARK    7  A    between atoms: C_22  and  O_25
REMARK    8  A    between atoms: O_25  and  C_26
REMARK    9  A    between atoms: C_26  and  C_30
REMARK   10  A    between atoms: C_30  and  O_31
REMARK                            x       y       z     vdW  Elec       q    Type
REMARK                         _______ _______ _______ _____ _____    ______ ____
ROOT
ATOM      1  C   UNL     1      34.869 -20.217 -20.056  0.00  0.00    +0.014 C 
ENDROOT
BRANCH   1   2
ATOM      2  C   UNL     1      35.981 -19.409 -20.721  0.00  0.00    +0.078 C 
BRANCH   2   7
ATOM      3  O   UNL     1      33.712 -18.121 -24.656  0.00  0.00    -0.191 OA
ATOM      4  N   UNL     1      35.053 -16.941 -23.165  0.00  0.00    -0.151 N 
ATOM      5  N   UNL     1      35.723 -17.296 -22.035  0.00  0.00    -0.229 N 
ATOM      6  N   UNL     1      34.677 -19.134 -22.795  0.00  0.00    -0.308 NA
ATOM      7  C   UNL     1      35.456 -18.622 -21.872  0.00  0.00    +0.187 C 
ATOM      8  C   UNL     1      34.407 -18.064 -23.650  0.00  0.00    +0.286 C 
ATOM      9  H   UNL     1      36.278 -16.720 -21.460  0.00  0.00    +0.173 HD
BRANCH   4  10
ATOM     10  C   UNL     1      35.108 -15.596 -23.665  0.00  0.00    +0.152 C 
BRANCH  10  11
ATOM     11  C   UNL     1      34.274 -14.656 -22.844  0.00  0.00    +0.000 C 
ATOM     12  C   UNL     1      33.398 -13.783 -23.477  0.00  0.00    -0.003 C 
ATOM     13  C   UNL     1      34.387 -14.668 -21.459  0.00  0.00    -0.003 C 
ATOM     14  C   UNL     1      32.730 -12.915 -21.324  0.00  0.00    -0.022 C 
ATOM     15  C   UNL     1      32.623 -12.909 -22.714  0.00  0.00    -0.005 C 
ATOM     16  C   UNL     1      33.612 -13.795 -20.696  0.00  0.00    -0.005 C 
ATOM     17  C   UNL     1      31.901 -11.981 -20.508  0.00  0.00    +0.031 C 
ENDBRANCH  10  11
ENDBRANCH   4  10
ENDBRANCH   2   7
ENDBRANCH   1   2
BRANCH   1  18
ATOM     18  C   UNL     1      35.272 -21.676 -19.812  0.00  0.00    +0.027 C 
BRANCH  18  19
ATOM     19  C   UNL     1      35.433 -21.970 -18.343  0.00  0.00    -0.022 C 
ATOM     20  C   UNL     1      36.635 -21.674 -17.717  0.00  0.00    -0.001 C 
ATOM     21  C   UNL     1      34.377 -22.530 -17.640  0.00  0.00    -0.001 C 
ATOM     22  C   UNL     1      35.730 -22.507 -15.639  0.00  0.00    +0.139 C 
ATOM     23  C   UNL     1      36.785 -21.944 -16.357  0.00  0.00    +0.037 C 
ATOM     24  C   UNL     1      34.527 -22.801 -16.280  0.00  0.00    +0.037 C 
BRANCH  22  25
ATOM     25  O   UNL     1      35.876 -22.773 -14.312  0.00  0.00    -0.472 OA
BRANCH  25  26
ATOM     26  C   UNL     1      36.362 -24.067 -13.958  0.00  0.00    +0.221 C 
ATOM     27  C   UNL     1      35.518 -25.105 -14.692  0.00  0.00    +0.055 C 
ATOM     28  C   UNL     1      37.836 -24.140 -14.346  0.00  0.00    +0.055 C 
BRANCH  26  30
ATOM     29  O   UNL     1      36.255 -23.229 -11.675  0.00  0.00    -0.246 OA
ATOM     30  C   UNL     1      36.181 -24.175 -12.450  0.00  0.00    +0.350 C 
BRANCH  30  31
ATOM     31  O   UNL     1      35.926 -25.440 -12.027  0.00  0.00    -0.478 OA
ATOM     32  H   UNL     1      35.185 -25.611 -11.481  0.00  0.00    +0.295 HD
ENDBRANCH  30  31
ENDBRANCH  26  30
ENDBRANCH  25  26
ENDBRANCH  22  25
ENDBRANCH  18  19
ENDBRANCH   1  18
TORSDOF 10
ENDMDL
MODEL 8
REMARK VINA RESULT:     -10.6      2.011      3.307
REMARK  Name = 9909438
REMARK  10 active torsions:
REMARK  status: ('A' for Active; 'I' for Inactive)
REMARK    1  A    between atoms: C_1  and  C_2
REMARK    2  A    between atoms: C_1  and  C_18
REMARK    3  A    between atoms: C_2  and  C_7
REMARK    4  A    between atoms: N_4  and  C_10
REMARK    5  A    between atoms: C_10  and  C_11
REMARK    6  A    between atoms: C_18  and  C_19
REMARK    7  A    between atoms: C_22  and  O_25
REMARK    8  A    between atoms: O_25  and  C_26
REMARK    9  A    between atoms: C_26  and  C_30
REMARK   10  A    between atoms: C_30  and  O_31
REMARK                            x       y       z     vdW  Elec       q    Type
REMARK                         _______ _______ _______ _____ _____    ______ ____
ROOT
ATOM      1  C   UNL     1      31.574 -11.969 -20.942  0.00  0.00    +0.014 C 
ENDROOT
BRANCH   1   2
ATOM      2  C   UNL     1      32.755 -12.897 -20.667  0.00  0.00    +0.078 C 
BRANCH   2   7
ATOM      3  O   UNL     1      33.351 -14.090 -25.196  0.00  0.00    -0.191 OA
ATOM      4  N   UNL     1      34.325 -14.869 -23.232  0.00  0.00    -0.151 N 
ATOM      5  N   UNL     1      34.159 -14.547 -21.920  0.00  0.00    -0.229 N 
ATOM      6  N   UNL     1      32.776 -13.234 -23.110  0.00  0.00    -0.308 NA
ATOM      7  C   UNL     1      33.216 -13.563 -21.918  0.00  0.00    +0.187 C 
ATOM      8  C   UNL     1      33.475 -14.072 -23.978  0.00  0.00    +0.286 C 
ATOM      9  H   UNL     1      34.619 -14.938 -21.143  0.00  0.00    +0.173 HD
BRANCH   4  10
ATOM     10  C   UNL     1      35.249 -15.894 -23.630  0.00  0.00    +0.152 C 
BRANCH  10  11
ATOM     11  C   UNL     1      35.153 -17.109 -22.754  0.00  0.00    +0.000 C 
ATOM     12  C   UNL     1      34.477 -18.233 -23.212  0.00  0.00    -0.003 C 
ATOM     13  C   UNL     1      35.740 -17.097 -21.494  0.00  0.00    -0.003 C 
ATOM     14  C   UNL     1      34.973 -19.360 -21.133  0.00  0.00    -0.022 C 
ATOM     15  C   UNL     1      34.387 -19.363 -22.398  0.00  0.00    -0.005 C 
ATOM     16  C   UNL     1      35.650 -18.227 -20.681  0.00  0.00    -0.005 C 
ATOM     17  C   UNL     1      34.877 -20.568 -20.264  0.00  0.00    +0.031 C 
ENDBRANCH  10  11
ENDBRANCH   4  10
ENDBRANCH   2   7
ENDBRANCH   1   2
BRANCH   1  18
ATOM     18  C   UNL     1      31.557 -10.752 -20.011  0.00  0.00    +0.027 C 
BRANCH  18  19
ATOM     19  C   UNL     1      32.005  -9.502 -20.723  0.00  0.00    -0.022 C 
ATOM     20  C   UNL     1      32.146  -9.518 -22.103  0.00  0.00    -0.001 C 
ATOM     21  C   UNL     1      32.268  -8.356 -19.988  0.00  0.00    -0.001 C 
ATOM     22  C   UNL     1      32.827  -7.201 -22.035  0.00  0.00    +0.139 C 
ATOM     23  C   UNL     1      32.559  -8.361 -22.763  0.00  0.00    +0.037 C 
ATOM     24  C   UNL     1      32.683  -7.198 -20.648  0.00  0.00    +0.037 C 
BRANCH  22  25
ATOM     25  O   UNL     1      33.232  -6.072 -22.678  0.00  0.00    -0.472 OA
BRANCH  25  26
ATOM     26  C   UNL     1      32.223  -5.292 -23.319  0.00  0.00    +0.221 C 
ATOM     27  C   UNL     1      32.914  -4.234 -24.173  0.00  0.00    +0.055 C 
ATOM     28  C   UNL     1      31.357  -6.233 -24.152  0.00  0.00    +0.055 C 
BRANCH  26  30
ATOM     29  O   UNL     1      30.292  -5.001 -21.865  0.00  0.00    -0.246 OA
ATOM     30  C   UNL     1      31.420  -4.655 -22.193  0.00  0.00    +0.350 C 
BRANCH  30  31
ATOM     31  O   UNL     1      32.079  -3.646 -21.567  0.00  0.00    -0.478 OA
ATOM     32  H   UNL     1      31.647  -3.146 -20.902  0.00  0.00    +0.295 HD
ENDBRANCH  30  31
ENDBRANCH  26  30
ENDBRANCH  25  26
ENDBRANCH  22  25
ENDBRANCH  18  19
ENDBRANCH   1  18
TORSDOF 10
ENDMDL
MODEL 9
REMARK VINA RESULT:     -10.6      7.472     10.462
REMARK  Name = 9909438
REMARK  10 active torsions:
REMARK  status: ('A' for Active; 'I' for Inactive)
REMARK    1  A    between atoms: C_1  and  C_2
REMARK    2  A    between atoms: C_1  and  C_18
REMARK    3  A    between atoms: C_2  and  C_7
REMARK    4  A    between atoms: N_4  and  C_10
REMARK    5  A    between atoms: C_10  and  C_11
REMARK    6  A    between atoms: C_18  and  C_19
REMARK    7  A    between atoms: C_22  and  O_25
REMARK    8  A    between atoms: O_25  and  C_26
REMARK    9  A    between atoms: C_26  and  C_30
REMARK   10  A    between atoms: C_30  and  O_31
REMARK                            x       y       z     vdW  Elec       q    Type
REMARK                         _______ _______ _______ _____ _____    ______ ____
ROOT
ATOM      1  C   UNL     1      36.783 -21.652 -17.466  0.00  0.00    +0.014 C 
ENDROOT
BRANCH   1   2
ATOM      2  C   UNL     1      36.965 -21.587 -15.952  0.00  0.00    +0.078 C 
BRANCH   2   7
ATOM      3  O   UNL     1      35.606 -25.864 -14.484  0.00  0.00    -0.191 OA
ATOM      4  N   UNL     1      34.838 -23.723 -13.992  0.00  0.00    -0.151 N 
ATOM      5  N   UNL     1      35.208 -22.483 -14.412  0.00  0.00    -0.229 N 
ATOM      6  N   UNL     1      36.554 -23.962 -15.436  0.00  0.00    -0.308 NA
ATOM      7  C   UNL     1      36.239 -22.698 -15.276  0.00  0.00    +0.187 C 
ATOM      8  C   UNL     1      35.655 -24.648 -14.619  0.00  0.00    +0.286 C 
ATOM      9  H   UNL     1      34.818 -21.618 -14.148  0.00  0.00    +0.173 HD
BRANCH   4  10
ATOM     10  C   UNL     1      33.756 -23.897 -13.064  0.00  0.00    +0.152 C 
BRANCH  10  11
ATOM     11  C   UNL     1      32.430 -24.003 -13.760  0.00  0.00    +0.000 C 
ATOM     12  C   UNL     1      31.536 -24.999 -13.387  0.00  0.00    -0.003 C 
ATOM     13  C   UNL     1      32.110 -23.105 -14.771  0.00  0.00    -0.003 C 
ATOM     14  C   UNL     1      29.975 -24.200 -15.048  0.00  0.00    -0.022 C 
ATOM     15  C   UNL     1      30.303 -25.098 -14.033  0.00  0.00    -0.005 C 
ATOM     16  C   UNL     1      30.879 -23.203 -15.417  0.00  0.00    -0.005 C 
ATOM     17  C   UNL     1      28.658 -24.306 -15.740  0.00  0.00    +0.031 C 
ENDBRANCH  10  11
ENDBRANCH   4  10
ENDBRANCH   2   7
ENDBRANCH   1   2
BRANCH   1  18
ATOM     18  C   UNL     1      35.342 -21.982 -17.868  0.00  0.00    +0.027 C 
BRANCH  18  19
ATOM     19  C   UNL     1      34.903 -21.183 -19.068  0.00  0.00    -0.022 C 
ATOM     20  C   UNL     1      33.553 -21.110 -19.380  0.00  0.00    -0.001 C 
ATOM     21  C   UNL     1      35.854 -20.532 -19.838  0.00  0.00    -0.001 C 
ATOM     22  C   UNL     1      34.093 -19.709 -21.273  0.00  0.00    +0.139 C 
ATOM     23  C   UNL     1      33.145 -20.369 -20.489  0.00  0.00    +0.037 C 
ATOM     24  C   UNL     1      35.447 -19.791 -20.949  0.00  0.00    +0.037 C 
BRANCH  22  25
ATOM     25  O   UNL     1      33.696 -18.987 -22.356  0.00  0.00    -0.472 OA
BRANCH  25  26
ATOM     26  C   UNL     1      34.662 -18.775 -23.384  0.00  0.00    +0.221 C 
ATOM     27  C   UNL     1      35.883 -18.111 -22.755  0.00  0.00    +0.055 C 
ATOM     28  C   UNL     1      34.995 -20.128 -24.006  0.00  0.00    +0.055 C 
BRANCH  26  30
ATOM     29  O   UNL     1      34.482 -16.814 -24.816  0.00  0.00    -0.246 OA
ATOM     30  C   UNL     1      33.991 -17.854 -24.394  0.00  0.00    +0.350 C 
BRANCH  30  31
ATOM     31  O   UNL     1      32.772 -18.295 -24.798  0.00  0.00    -0.478 OA
ATOM     32  H   UNL     1      32.189 -17.715 -25.247  0.00  0.00    +0.295 HD
ENDBRANCH  30  31
ENDBRANCH  26  30
ENDBRANCH  25  26
ENDBRANCH  22  25
ENDBRANCH  18  19
ENDBRANCH   1  18
TORSDOF 10
ENDMDL
