MODEL 1
REMARK VINA RESULT:     -11.7      0.000      0.000
REMARK  Name = 447735
REMARK  4 active torsions:
REMARK  status: ('A' for Active; 'I' for Inactive)
REMARK    1  A    between atoms: N_2  and  C_13
REMARK    2  A    between atoms: C_3  and  C_18
REMARK    3  A    between atoms: C_7  and  C_15
REMARK    4  A    between atoms: C_26  and  C_30
REMARK                            x       y       z     vdW  Elec       q    Type
REMARK                         _______ _______ _______ _____ _____    ______ ____
ROOT
ATOM      1  O   UNL     1      33.644 -23.922 -17.344  0.00  0.00    -0.270 OA
ATOM      2  N   UNL     1      35.032 -22.436 -16.163  0.00  0.00    -0.280 N 
ATOM      3  C   UNL     1      34.246 -22.858 -17.244  0.00  0.00    +0.249 C 
ATOM      4  H   UNL     1      35.443 -21.546 -16.252  0.00  0.00    +0.155 HD
ENDROOT
BRANCH   2  13
ATOM      5  N   UNL     1      38.482 -25.460 -12.161  0.00  0.00    -0.274 NA
ATOM      6  C   UNL     1      36.806 -24.410 -13.603  0.00  0.00    +0.010 C 
ATOM      7  C   UNL     1      38.094 -25.101 -13.341  0.00  0.00    +0.053 C 
ATOM      8  C   UNL     1      35.834 -24.481 -12.596  0.00  0.00    -0.019 C 
ATOM      9  C   UNL     1      36.146 -25.250 -11.348  0.00  0.00    +0.053 C 
ATOM     10  C   UNL     1      37.627 -25.104 -11.023  0.00  0.00    +0.130 C 
ATOM     11  C   UNL     1      36.545 -23.726 -14.792  0.00  0.00    +0.016 C 
ATOM     12  C   UNL     1      34.586 -23.886 -12.799  0.00  0.00    -0.003 C 
ATOM     13  C   UNL     1      35.301 -23.120 -14.978  0.00  0.00    +0.051 C 
ATOM     14  C   UNL     1      34.324 -23.203 -13.986  0.00  0.00    +0.014 C 
BRANCH   7  15
ATOM     15  C   UNL     1      39.003 -25.411 -14.505  0.00  0.00    +0.040 C 
ATOM     16  C   UNL     1      40.443 -25.337 -14.030  0.00  0.00    +0.006 C 
ATOM     17  C   UNL     1      38.656 -26.782 -15.057  0.00  0.00    +0.006 C 
ENDBRANCH   7  15
ENDBRANCH   2  13
BRANCH   3  18
ATOM     18  C   UNL     1      34.170 -21.910 -18.386  0.00  0.00    +0.054 C 
ATOM     19  C   UNL     1      35.280 -20.442 -19.934  0.00  0.00    +0.000 C 
ATOM     20  C   UNL     1      34.028 -20.141 -20.521  0.00  0.00    +0.000 C 
ATOM     21  C   UNL     1      35.335 -21.340 -18.856  0.00  0.00    +0.005 C 
ATOM     22  C   UNL     1      32.940 -21.634 -18.938  0.00  0.00    +0.005 C 
ATOM     23  C   UNL     1      32.866 -20.745 -20.011  0.00  0.00    +0.000 C 
ATOM     24  C   UNL     1      33.973 -19.243 -21.599  0.00  0.00    +0.003 C 
ATOM     25  C   UNL     1      36.440 -19.838 -20.445  0.00  0.00    +0.000 C 
ATOM     26  C   UNL     1      35.136 -18.651 -22.094  0.00  0.00    +0.031 C 
ATOM     27  C   UNL     1      36.368 -18.948 -21.517  0.00  0.00    +0.003 C 
BRANCH  26  30
ATOM     28  N   UNL     1      35.635 -16.456 -23.141  0.00  0.00    -0.343 N 
ATOM     29  N   UNL     1      34.440 -18.081 -24.321  0.00  0.00    -0.285 NA
ATOM     30  C   UNL     1      35.063 -17.725 -23.211  0.00  0.00    +0.117 C 
ATOM     31  H   UNL     1      35.573 -15.845 -23.910  0.00  0.00    +0.144 HD
ATOM     32  H   UNL     1      36.101 -16.171 -22.322  0.00  0.00    +0.144 HD
ATOM     33  H   UNL     1      34.388 -17.455 -25.080  0.00  0.00    +0.188 HD
ENDBRANCH  26  30
ENDBRANCH   3  18
TORSDOF 4
ENDMDL
MODEL 2
REMARK VINA RESULT:     -10.9      9.346     15.846
REMARK  Name = 447735
REMARK  4 active torsions:
REMARK  status: ('A' for Active; 'I' for Inactive)
REMARK    1  A    between atoms: N_2  and  C_13
REMARK    2  A    between atoms: C_3  and  C_18
REMARK    3  A    between atoms: C_7  and  C_15
REMARK    4  A    between atoms: C_26  and  C_30
REMARK                            x       y       z     vdW  Elec       q    Type
REMARK                         _______ _______ _______ _____ _____    ______ ____
ROOT
ATOM      1  O   UNL     1      34.640  -9.923 -24.175  0.00  0.00    -0.270 OA
ATOM      2  N   UNL     1      32.877 -10.183 -22.641  0.00  0.00    -0.280 N 
ATOM      3  C   UNL     1      33.848 -10.621 -23.552  0.00  0.00    +0.249 C 
ATOM      4  H   UNL     1      32.325 -10.885 -22.229  0.00  0.00    +0.155 HD
ENDROOT
BRANCH   2  13
ATOM      5  N   UNL     1      31.967  -4.217 -23.443  0.00  0.00    -0.274 NA
ATOM      6  C   UNL     1      32.412  -6.527 -22.767  0.00  0.00    +0.010 C 
ATOM      7  C   UNL     1      32.510  -5.364 -23.686  0.00  0.00    +0.053 C 
ATOM      8  C   UNL     1      32.035  -6.256 -21.445  0.00  0.00    -0.019 C 
ATOM      9  C   UNL     1      31.774  -4.835 -21.047  0.00  0.00    +0.053 C 
ATOM     10  C   UNL     1      31.161  -4.087 -22.224  0.00  0.00    +0.130 C 
ATOM     11  C   UNL     1      32.690  -7.834 -23.171  0.00  0.00    +0.016 C 
ATOM     12  C   UNL     1      31.964  -7.303 -20.521  0.00  0.00    -0.003 C 
ATOM     13  C   UNL     1      32.601  -8.874 -22.244  0.00  0.00    +0.051 C 
ATOM     14  C   UNL     1      32.242  -8.609 -20.923  0.00  0.00    +0.014 C 
BRANCH   7  15
ATOM     15  C   UNL     1      33.287  -5.517 -24.971  0.00  0.00    +0.040 C 
ATOM     16  C   UNL     1      32.723  -4.550 -25.997  0.00  0.00    +0.006 C 
ATOM     17  C   UNL     1      34.758  -5.262 -24.698  0.00  0.00    +0.006 C 
ENDBRANCH   7  15
ENDBRANCH   2  13
BRANCH   3  18
ATOM     18  C   UNL     1      33.883 -12.088 -23.789  0.00  0.00    +0.054 C 
ATOM     19  C   UNL     1      34.405 -14.300 -23.003  0.00  0.00    +0.000 C 
ATOM     20  C   UNL     1      33.946 -14.827 -24.233  0.00  0.00    +0.000 C 
ATOM     21  C   UNL     1      34.365 -12.912 -22.793  0.00  0.00    +0.005 C 
ATOM     22  C   UNL     1      33.432 -12.574 -24.994  0.00  0.00    +0.005 C 
ATOM     23  C   UNL     1      33.463 -13.951 -25.220  0.00  0.00    +0.000 C 
ATOM     24  C   UNL     1      33.986 -16.216 -24.443  0.00  0.00    +0.003 C 
ATOM     25  C   UNL     1      34.888 -15.176 -22.018  0.00  0.00    +0.000 C 
ATOM     26  C   UNL     1      34.470 -17.072 -23.453  0.00  0.00    +0.031 C 
ATOM     27  C   UNL     1      34.920 -16.553 -22.243  0.00  0.00    +0.003 C 
BRANCH  26  30
ATOM     28  N   UNL     1      35.226 -19.359 -22.853  0.00  0.00    -0.343 N 
ATOM     29  N   UNL     1      33.841 -19.024 -24.705  0.00  0.00    -0.285 NA
ATOM     30  C   UNL     1      34.503 -18.507 -23.685  0.00  0.00    +0.117 C 
ATOM     31  H   UNL     1      35.235 -20.328 -23.029  0.00  0.00    +0.144 HD
ATOM     32  H   UNL     1      35.729 -18.993 -22.089  0.00  0.00    +0.144 HD
ATOM     33  H   UNL     1      33.863 -19.996 -24.865  0.00  0.00    +0.188 HD
ENDBRANCH  26  30
ENDBRANCH   3  18
TORSDOF 4
ENDMDL
MODEL 3
REMARK VINA RESULT:     -10.2      9.973     16.636
REMARK  Name = 447735
REMARK  4 active torsions:
REMARK  status: ('A' for Active; 'I' for Inactive)
REMARK    1  A    between atoms: N_2  and  C_13
REMARK    2  A    between atoms: C_3  and  C_18
REMARK    3  A    between atoms: C_7  and  C_15
REMARK    4  A    between atoms: C_26  and  C_30
REMARK                            x       y       z     vdW  Elec       q    Type
REMARK                         _______ _______ _______ _____ _____    ______ ____
ROOT
ATOM      1  O   UNL     1      30.585  -9.768 -22.125  0.00  0.00    -0.270 OA
ATOM      2  N   UNL     1      32.682  -8.768 -21.763  0.00  0.00    -0.280 N 
ATOM      3  C   UNL     1      31.784  -9.838 -21.883  0.00  0.00    +0.249 C 
ATOM      4  H   UNL     1      33.615  -9.009 -21.565  0.00  0.00    +0.155 HD
ENDROOT
BRANCH   2  13
ATOM      5  N   UNL     1      32.137  -3.477 -24.725  0.00  0.00    -0.274 NA
ATOM      6  C   UNL     1      32.394  -5.396 -23.228  0.00  0.00    +0.010 C 
ATOM      7  C   UNL     1      32.656  -4.634 -24.475  0.00  0.00    +0.053 C 
ATOM      8  C   UNL     1      31.865  -4.677 -22.148  0.00  0.00    -0.019 C 
ATOM      9  C   UNL     1      31.617  -3.207 -22.313  0.00  0.00    +0.053 C 
ATOM     10  C   UNL     1      31.190  -2.927 -23.748  0.00  0.00    +0.130 C 
ATOM     11  C   UNL     1      32.664  -6.761 -23.105  0.00  0.00    +0.016 C 
ATOM     12  C   UNL     1      31.633  -5.328 -20.933  0.00  0.00    -0.003 C 
ATOM     13  C   UNL     1      32.414  -7.405 -21.893  0.00  0.00    +0.051 C 
ATOM     14  C   UNL     1      31.904  -6.691 -20.809  0.00  0.00    +0.014 C 
BRANCH   7  15
ATOM     15  C   UNL     1      33.582  -5.228 -25.509  0.00  0.00    +0.040 C 
ATOM     16  C   UNL     1      33.402  -4.471 -26.813  0.00  0.00    +0.006 C 
ATOM     17  C   UNL     1      35.011  -5.155 -25.001  0.00  0.00    +0.006 C 
ENDBRANCH   7  15
ENDBRANCH   2  13
BRANCH   3  18
ATOM     18  C   UNL     1      32.368 -11.187 -21.662  0.00  0.00    +0.054 C 
ATOM     19  C   UNL     1      33.634 -13.056 -22.493  0.00  0.00    +0.000 C 
ATOM     20  C   UNL     1      33.459 -13.706 -21.248  0.00  0.00    +0.000 C 
ATOM     21  C   UNL     1      33.076 -11.781 -22.686  0.00  0.00    +0.005 C 
ATOM     22  C   UNL     1      32.183 -11.797 -20.443  0.00  0.00    +0.005 C 
ATOM     23  C   UNL     1      32.731 -13.064 -20.233  0.00  0.00    +0.000 C 
ATOM     24  C   UNL     1      34.017 -14.980 -21.055  0.00  0.00    +0.003 C 
ATOM     25  C   UNL     1      34.362 -13.699 -23.507  0.00  0.00    +0.000 C 
ATOM     26  C   UNL     1      34.737 -15.605 -22.074  0.00  0.00    +0.031 C 
ATOM     27  C   UNL     1      34.909 -14.965 -23.298  0.00  0.00    +0.003 C 
BRANCH  26  30
ATOM     28  N   UNL     1      35.506 -17.427 -20.575  0.00  0.00    -0.343 N 
ATOM     29  N   UNL     1      35.657 -17.668 -22.894  0.00  0.00    -0.285 NA
ATOM     30  C   UNL     1      35.309 -16.924 -21.859  0.00  0.00    +0.117 C 
ATOM     31  H   UNL     1      35.895 -18.324 -20.452  0.00  0.00    +0.144 HD
ATOM     32  H   UNL     1      35.256 -16.888 -19.790  0.00  0.00    +0.144 HD
ATOM     33  H   UNL     1      36.045 -18.561 -22.751  0.00  0.00    +0.188 HD
ENDBRANCH  26  30
ENDBRANCH   3  18
TORSDOF 4
ENDMDL
MODEL 4
REMARK VINA RESULT:     -10.2     10.100     17.063
REMARK  Name = 447735
REMARK  4 active torsions:
REMARK  status: ('A' for Active; 'I' for Inactive)
REMARK    1  A    between atoms: N_2  and  C_13
REMARK    2  A    between atoms: C_3  and  C_18
REMARK    3  A    between atoms: C_7  and  C_15
REMARK    4  A    between atoms: C_26  and  C_30
REMARK                            x       y       z     vdW  Elec       q    Type
REMARK                         _______ _______ _______ _____ _____    ______ ____
ROOT
ATOM      1  O   UNL     1      35.058  -8.928 -23.602  0.00  0.00    -0.270 OA
ATOM      2  N   UNL     1      32.720  -8.886 -23.352  0.00  0.00    -0.280 N 
ATOM      3  C   UNL     1      33.965  -9.484 -23.591  0.00  0.00    +0.249 C 
ATOM      4  H   UNL     1      31.941  -9.487 -23.380  0.00  0.00    +0.155 HD
ENDROOT
BRANCH   2  13
ATOM      5  N   UNL     1      31.916  -3.001 -24.684  0.00  0.00    -0.274 NA
ATOM      6  C   UNL     1      32.309  -5.249 -23.802  0.00  0.00    +0.010 C 
ATOM      7  C   UNL     1      32.449  -4.171 -24.813  0.00  0.00    +0.053 C 
ATOM      8  C   UNL     1      31.898  -4.863 -22.520  0.00  0.00    -0.019 C 
ATOM      9  C   UNL     1      31.645  -3.410 -22.251  0.00  0.00    +0.053 C 
ATOM     10  C   UNL     1      31.077  -2.758 -23.505  0.00  0.00    +0.130 C 
ATOM     11  C   UNL     1      32.581  -6.590 -24.085  0.00  0.00    +0.016 C 
ATOM     12  C   UNL     1      31.786  -5.826 -21.512  0.00  0.00    -0.003 C 
ATOM     13  C   UNL     1      32.450  -7.546 -23.077  0.00  0.00    +0.051 C 
ATOM     14  C   UNL     1      32.058  -7.165 -21.794  0.00  0.00    +0.014 C 
BRANCH   7  15
ATOM     15  C   UNL     1      33.261  -4.441 -26.057  0.00  0.00    +0.040 C 
ATOM     16  C   UNL     1      32.919  -3.388 -27.097  0.00  0.00    +0.006 C 
ATOM     17  C   UNL     1      34.737  -4.432 -25.702  0.00  0.00    +0.006 C 
ENDBRANCH   7  15
ENDBRANCH   2  13
BRANCH   3  18
ATOM     18  C   UNL     1      33.927 -10.941 -23.884  0.00  0.00    +0.054 C 
ATOM     19  C   UNL     1      34.228 -13.209 -23.145  0.00  0.00    +0.000 C 
ATOM     20  C   UNL     1      33.854 -13.661 -24.432  0.00  0.00    +0.000 C 
ATOM     21  C   UNL     1      34.259 -11.830 -22.883  0.00  0.00    +0.005 C 
ATOM     22  C   UNL     1      33.560 -11.353 -25.144  0.00  0.00    +0.005 C 
ATOM     23  C   UNL     1      33.523 -12.720 -25.422  0.00  0.00    +0.000 C 
ATOM     24  C   UNL     1      33.823 -15.041 -24.694  0.00  0.00    +0.003 C 
ATOM     25  C   UNL     1      34.559 -14.150 -22.157  0.00  0.00    +0.000 C 
ATOM     26  C   UNL     1      34.155 -15.962 -23.700  0.00  0.00    +0.031 C 
ATOM     27  C   UNL     1      34.523 -15.517 -22.433  0.00  0.00    +0.003 C 
BRANCH  26  30
ATOM     28  N   UNL     1      34.896 -18.292 -23.268  0.00  0.00    -0.343 N 
ATOM     29  N   UNL     1      33.334 -17.844 -24.948  0.00  0.00    -0.285 NA
ATOM     30  C   UNL     1      34.117 -17.387 -23.986  0.00  0.00    +0.117 C 
ATOM     31  H   UNL     1      34.854 -19.253 -23.479  0.00  0.00    +0.144 HD
ATOM     32  H   UNL     1      35.487 -17.971 -22.550  0.00  0.00    +0.144 HD
ATOM     33  H   UNL     1      33.307 -18.809 -25.145  0.00  0.00    +0.188 HD
ENDBRANCH  26  30
ENDBRANCH   3  18
TORSDOF 4
ENDMDL
MODEL 5
REMARK VINA RESULT:      -9.8      3.907     11.857
REMARK  Name = 447735
REMARK  4 active torsions:
REMARK  status: ('A' for Active; 'I' for Inactive)
REMARK    1  A    between atoms: N_2  and  C_13
REMARK    2  A    between atoms: C_3  and  C_18
REMARK    3  A    between atoms: C_7  and  C_15
REMARK    4  A    between atoms: C_26  and  C_30
REMARK                            x       y       z     vdW  Elec       q    Type
REMARK                         _______ _______ _______ _____ _____    ______ ____
ROOT
ATOM      1  O   UNL     1      34.669 -18.725 -23.458  0.00  0.00    -0.270 OA
ATOM      2  N   UNL     1      34.889 -16.794 -22.133  0.00  0.00    -0.280 N 
ATOM      3  C   UNL     1      34.941 -18.169 -22.399  0.00  0.00    +0.249 C 
ATOM      4  H   UNL     1      35.144 -16.522 -21.222  0.00  0.00    +0.155 HD
ENDROOT
BRANCH   2  13
ATOM      5  N   UNL     1      33.287 -11.120 -23.650  0.00  0.00    -0.274 NA
ATOM      6  C   UNL     1      33.770 -13.502 -23.361  0.00  0.00    +0.010 C 
ATOM      7  C   UNL     1      33.325 -12.165 -22.891  0.00  0.00    +0.053 C 
ATOM      8  C   UNL     1      33.798 -13.707 -24.747  0.00  0.00    -0.019 C 
ATOM      9  C   UNL     1      33.369 -12.589 -25.649  0.00  0.00    +0.053 C 
ATOM     10  C   UNL     1      33.772 -11.258 -25.028  0.00  0.00    +0.130 C 
ATOM     11  C   UNL     1      34.137 -14.527 -22.486  0.00  0.00    +0.016 C 
ATOM     12  C   UNL     1      34.170 -14.957 -25.252  0.00  0.00    -0.003 C 
ATOM     13  C   UNL     1      34.522 -15.766 -23.000  0.00  0.00    +0.051 C 
ATOM     14  C   UNL     1      34.535 -15.981 -24.379  0.00  0.00    +0.014 C 
BRANCH   7  15
ATOM     15  C   UNL     1      32.885 -12.009 -21.456  0.00  0.00    +0.040 C 
ATOM     16  C   UNL     1      31.893 -10.863 -21.375  0.00  0.00    +0.006 C 
ATOM     17  C   UNL     1      32.284 -13.317 -20.972  0.00  0.00    +0.006 C 
ENDBRANCH   7  15
ENDBRANCH   2  13
BRANCH   3  18
ATOM     18  C   UNL     1      35.348 -19.025 -21.254  0.00  0.00    +0.054 C 
ATOM     19  C   UNL     1      34.763 -20.622 -19.553  0.00  0.00    +0.000 C 
ATOM     20  C   UNL     1      36.108 -20.624 -19.116  0.00  0.00    +0.000 C 
ATOM     21  C   UNL     1      34.394 -19.808 -20.637  0.00  0.00    +0.005 C 
ATOM     22  C   UNL     1      36.662 -19.009 -20.848  0.00  0.00    +0.005 C 
ATOM     23  C   UNL     1      37.047 -19.812 -19.774  0.00  0.00    +0.000 C 
ATOM     24  C   UNL     1      36.477 -21.438 -18.032  0.00  0.00    +0.003 C 
ATOM     25  C   UNL     1      33.826 -21.434 -18.895  0.00  0.00    +0.000 C 
ATOM     26  C   UNL     1      35.532 -22.239 -17.390  0.00  0.00    +0.031 C 
ATOM     27  C   UNL     1      34.209 -22.237 -17.820  0.00  0.00    +0.003 C 
BRANCH  26  30
ATOM     28  N   UNL     1      37.217 -23.018 -15.741  0.00  0.00    -0.343 N 
ATOM     29  N   UNL     1      35.061 -23.919 -15.737  0.00  0.00    -0.285 NA
ATOM     30  C   UNL     1      35.930 -23.077 -16.270  0.00  0.00    +0.117 C 
ATOM     31  H   UNL     1      37.465 -23.594 -14.982  0.00  0.00    +0.144 HD
ATOM     32  H   UNL     1      37.880 -22.399 -16.126  0.00  0.00    +0.144 HD
ATOM     33  H   UNL     1      35.328 -24.489 -14.979  0.00  0.00    +0.188 HD
ENDBRANCH  26  30
ENDBRANCH   3  18
TORSDOF 4
ENDMDL
MODEL 6
REMARK VINA RESULT:      -9.8      0.677      1.473
REMARK  Name = 447735
REMARK  4 active torsions:
REMARK  status: ('A' for Active; 'I' for Inactive)
REMARK    1  A    between atoms: N_2  and  C_13
REMARK    2  A    between atoms: C_3  and  C_18
REMARK    3  A    between atoms: C_7  and  C_15
REMARK    4  A    between atoms: C_26  and  C_30
REMARK                            x       y       z     vdW  Elec       q    Type
REMARK                         _______ _______ _______ _____ _____    ______ ____
ROOT
ATOM      1  O   UNL     1      34.087 -23.474 -17.313  0.00  0.00    -0.270 OA
ATOM      2  N   UNL     1      35.796 -22.393 -16.113  0.00  0.00    -0.280 N 
ATOM      3  C   UNL     1      34.949 -22.608 -17.208  0.00  0.00    +0.249 C 
ATOM      4  H   UNL     1      36.432 -21.647 -16.200  0.00  0.00    +0.155 HD
ENDROOT
BRANCH   2  13
ATOM      5  N   UNL     1      38.317 -25.979 -11.888  0.00  0.00    -0.274 NA
ATOM      6  C   UNL     1      36.978 -24.643 -13.441  0.00  0.00    +0.010 C 
ATOM      7  C   UNL     1      38.088 -25.564 -13.091  0.00  0.00    +0.053 C 
ATOM      8  C   UNL     1      35.943 -24.517 -12.505  0.00  0.00    -0.019 C 
ATOM      9  C   UNL     1      36.014 -25.319 -11.240  0.00  0.00    +0.053 C 
ATOM     10  C   UNL     1      37.470 -25.454 -10.812  0.00  0.00    +0.130 C 
ATOM     11  C   UNL     1      36.935 -23.934 -14.643  0.00  0.00    +0.016 C 
ATOM     12  C   UNL     1      34.848 -23.696 -12.792  0.00  0.00    -0.003 C 
ATOM     13  C   UNL     1      35.846 -23.104 -14.914  0.00  0.00    +0.051 C 
ATOM     14  C   UNL     1      34.805 -22.988 -13.993  0.00  0.00    +0.014 C 
BRANCH   7  15
ATOM     15  C   UNL     1      38.999 -26.055 -14.190  0.00  0.00    +0.040 C 
ATOM     16  C   UNL     1      40.381 -25.464 -13.974  0.00  0.00    +0.006 C 
ATOM     17  C   UNL     1      39.022 -27.573 -14.179  0.00  0.00    +0.006 C 
ENDBRANCH   7  15
ENDBRANCH   2  13
BRANCH   3  18
ATOM     18  C   UNL     1      35.154 -21.694 -18.363  0.00  0.00    +0.054 C 
ATOM     19  C   UNL     1      34.244 -20.473 -20.224  0.00  0.00    +0.000 C 
ATOM     20  C   UNL     1      35.539 -19.986 -20.517  0.00  0.00    +0.000 C 
ATOM     21  C   UNL     1      34.065 -21.336 -19.130  0.00  0.00    +0.005 C 
ATOM     22  C   UNL     1      36.424 -21.236 -18.626  0.00  0.00    +0.005 C 
ATOM     23  C   UNL     1      36.621 -20.377 -19.708  0.00  0.00    +0.000 C 
ATOM     24  C   UNL     1      35.718 -19.124 -21.611  0.00  0.00    +0.003 C 
ATOM     25  C   UNL     1      33.165 -20.082 -21.033  0.00  0.00    +0.000 C 
ATOM     26  C   UNL     1      34.634 -18.746 -22.404  0.00  0.00    +0.031 C 
ATOM     27  C   UNL     1      33.359 -19.225 -22.115  0.00  0.00    +0.003 C 
BRANCH  26  30
ATOM     28  N   UNL     1      35.601 -16.694 -23.412  0.00  0.00    -0.343 N 
ATOM     29  N   UNL     1      34.280 -18.129 -24.699  0.00  0.00    -0.285 NA
ATOM     30  C   UNL     1      34.835 -17.851 -23.532  0.00  0.00    +0.117 C 
ATOM     31  H   UNL     1      35.724 -16.102 -24.190  0.00  0.00    +0.144 HD
ATOM     32  H   UNL     1      36.020 -16.467 -22.551  0.00  0.00    +0.144 HD
ATOM     33  H   UNL     1      34.414 -17.524 -25.465  0.00  0.00    +0.188 HD
ENDBRANCH  26  30
ENDBRANCH   3  18
TORSDOF 4
ENDMDL
MODEL 7
REMARK VINA RESULT:      -9.8      1.193      2.671
REMARK  Name = 447735
REMARK  4 active torsions:
REMARK  status: ('A' for Active; 'I' for Inactive)
REMARK    1  A    between atoms: N_2  and  C_13
REMARK    2  A    between atoms: C_3  and  C_18
REMARK    3  A    between atoms: C_7  and  C_15
REMARK    4  A    between atoms: C_26  and  C_30
REMARK                            x       y       z     vdW  Elec       q    Type
REMARK                         _______ _______ _______ _____ _____    ______ ____
ROOT
ATOM      1  O   UNL     1      34.453 -23.190 -17.264  0.00  0.00    -0.270 OA
ATOM      2  N   UNL     1      36.544 -22.165 -16.938  0.00  0.00    -0.280 N 
ATOM      3  C   UNL     1      35.298 -22.351 -17.553  0.00  0.00    +0.249 C 
ATOM      4  H   UNL     1      37.100 -21.438 -17.300  0.00  0.00    +0.155 HD
ENDROOT
BRANCH   2  13
ATOM      5  N   UNL     1      36.421 -25.407 -11.786  0.00  0.00    -0.274 NA
ATOM      6  C   UNL     1      36.823 -24.027 -13.766  0.00  0.00    +0.010 C 
ATOM      7  C   UNL     1      36.021 -24.492 -12.606  0.00  0.00    +0.053 C 
ATOM      8  C   UNL     1      38.191 -24.330 -13.751  0.00  0.00    -0.019 C 
ATOM      9  C   UNL     1      38.750 -25.077 -12.577  0.00  0.00    +0.053 C 
ATOM     10  C   UNL     1      37.706 -26.059 -12.063  0.00  0.00    +0.130 C 
ATOM     11  C   UNL     1      36.269 -23.309 -14.828  0.00  0.00    +0.016 C 
ATOM     12  C   UNL     1      39.008 -23.885 -14.794  0.00  0.00    -0.003 C 
ATOM     13  C   UNL     1      37.090 -22.883 -15.874  0.00  0.00    +0.051 C 
ATOM     14  C   UNL     1      38.456 -23.167 -15.855  0.00  0.00    +0.014 C 
BRANCH   7  15
ATOM     15  C   UNL     1      34.671 -23.865 -12.358  0.00  0.00    +0.040 C 
ATOM     16  C   UNL     1      33.618 -24.672 -13.096  0.00  0.00    +0.006 C 
ATOM     17  C   UNL     1      34.409 -23.820 -10.863  0.00  0.00    +0.006 C 
ENDBRANCH   7  15
ENDBRANCH   2  13
BRANCH   3  18
ATOM     18  C   UNL     1      35.007 -21.438 -18.690  0.00  0.00    +0.054 C 
ATOM     19  C   UNL     1      35.794 -19.898 -20.361  0.00  0.00    +0.000 C 
ATOM     20  C   UNL     1      34.463 -19.735 -20.814  0.00  0.00    +0.000 C 
ATOM     21  C   UNL     1      36.053 -20.764 -19.286  0.00  0.00    +0.005 C 
ATOM     22  C   UNL     1      33.705 -21.298 -19.110  0.00  0.00    +0.005 C 
ATOM     23  C   UNL     1      33.429 -20.443 -20.177  0.00  0.00    +0.000 C 
ATOM     24  C   UNL     1      34.204 -18.869 -21.889  0.00  0.00    +0.003 C 
ATOM     25  C   UNL     1      36.826 -19.191 -20.998  0.00  0.00    +0.000 C 
ATOM     26  C   UNL     1      35.243 -18.175 -22.510  0.00  0.00    +0.031 C 
ATOM     27  C   UNL     1      36.552 -18.335 -22.064  0.00  0.00    +0.003 C 
BRANCH  26  30
ATOM     28  N   UNL     1      35.449 -15.979 -23.650  0.00  0.00    -0.343 N 
ATOM     29  N   UNL     1      34.217 -17.705 -24.632  0.00  0.00    -0.285 NA
ATOM     30  C   UNL     1      34.958 -17.283 -23.622  0.00  0.00    +0.117 C 
ATOM     31  H   UNL     1      35.243 -15.392 -24.413  0.00  0.00    +0.144 HD
ATOM     32  H   UNL     1      36.000 -15.644 -22.906  0.00  0.00    +0.144 HD
ATOM     33  H   UNL     1      34.023 -17.103 -25.386  0.00  0.00    +0.188 HD
ENDBRANCH  26  30
ENDBRANCH   3  18
TORSDOF 4
ENDMDL
MODEL 8
REMARK VINA RESULT:      -9.3      8.089     15.065
REMARK  Name = 447735
REMARK  4 active torsions:
REMARK  status: ('A' for Active; 'I' for Inactive)
REMARK    1  A    between atoms: N_2  and  C_13
REMARK    2  A    between atoms: C_3  and  C_18
REMARK    3  A    between atoms: C_7  and  C_15
REMARK    4  A    between atoms: C_26  and  C_30
REMARK                            x       y       z     vdW  Elec       q    Type
REMARK                         _______ _______ _______ _____ _____    ______ ____
ROOT
ATOM      1  O   UNL     1      33.358 -12.376 -24.593  0.00  0.00    -0.270 OA
ATOM      2  N   UNL     1      34.541 -11.117 -22.998  0.00  0.00    -0.280 N 
ATOM      3  C   UNL     1      34.015 -12.287 -23.562  0.00  0.00    +0.249 C 
ATOM      4  H   UNL     1      35.046 -11.231 -22.161  0.00  0.00    +0.155 HD
ENDROOT
BRANCH   2  13
ATOM      5  N   UNL     1      32.839  -5.273 -22.866  0.00  0.00    -0.274 NA
ATOM      6  C   UNL     1      33.549  -7.577 -23.287  0.00  0.00    +0.010 C 
ATOM      7  C   UNL     1      32.709  -6.538 -22.638  0.00  0.00    +0.053 C 
ATOM      8  C   UNL     1      34.245  -7.195 -24.442  0.00  0.00    -0.019 C 
ATOM      9  C   UNL     1      34.088  -5.792 -24.947  0.00  0.00    +0.053 C 
ATOM     10  C   UNL     1      33.918  -4.847 -23.764  0.00  0.00    +0.130 C 
ATOM     11  C   UNL     1      33.647  -8.882 -22.800  0.00  0.00    +0.016 C 
ATOM     12  C   UNL     1      35.021  -8.138 -25.122  0.00  0.00    -0.003 C 
ATOM     13  C   UNL     1      34.438  -9.811 -23.478  0.00  0.00    +0.051 C 
ATOM     14  C   UNL     1      35.120  -9.441 -24.637  0.00  0.00    +0.014 C 
BRANCH   7  15
ATOM     15  C   UNL     1      31.639  -6.972 -21.666  0.00  0.00    +0.040 C 
ATOM     16  C   UNL     1      32.274  -7.164 -20.300  0.00  0.00    +0.006 C 
ATOM     17  C   UNL     1      30.536  -5.929 -21.639  0.00  0.00    +0.006 C 
ENDBRANCH   7  15
ENDBRANCH   2  13
BRANCH   3  18
ATOM     18  C   UNL     1      34.271 -13.535 -22.795  0.00  0.00    +0.054 C 
ATOM     19  C   UNL     1      34.824 -15.875 -22.777  0.00  0.00    +0.000 C 
ATOM     20  C   UNL     1      34.752 -15.864 -21.364  0.00  0.00    +0.000 C 
ATOM     21  C   UNL     1      34.579 -14.688 -23.487  0.00  0.00    +0.005 C 
ATOM     22  C   UNL     1      34.194 -13.496 -21.423  0.00  0.00    +0.005 C 
ATOM     23  C   UNL     1      34.435 -14.666 -20.700  0.00  0.00    +0.000 C 
ATOM     24  C   UNL     1      34.996 -17.051 -20.654  0.00  0.00    +0.003 C 
ATOM     25  C   UNL     1      35.140 -17.073 -23.438  0.00  0.00    +0.000 C 
ATOM     26  C   UNL     1      35.309 -18.232 -21.328  0.00  0.00    +0.031 C 
ATOM     27  C   UNL     1      35.380 -18.243 -22.718  0.00  0.00    +0.003 C 
BRANCH  26  30
ATOM     28  N   UNL     1      36.794 -19.692 -19.976  0.00  0.00    -0.343 N 
ATOM     29  N   UNL     1      34.609 -20.362 -20.464  0.00  0.00    -0.285 NA
ATOM     30  C   UNL     1      35.561 -19.452 -20.579  0.00  0.00    +0.117 C 
ATOM     31  H   UNL     1      36.942 -20.525 -19.473  0.00  0.00    +0.144 HD
ATOM     32  H   UNL     1      37.517 -19.028 -20.052  0.00  0.00    +0.144 HD
ATOM     33  H   UNL     1      34.777 -21.190 -19.958  0.00  0.00    +0.188 HD
ENDBRANCH  26  30
ENDBRANCH   3  18
TORSDOF 4
ENDMDL
MODEL 9
REMARK VINA RESULT:      -9.1      2.159     10.437
REMARK  Name = 447735
REMARK  4 active torsions:
REMARK  status: ('A' for Active; 'I' for Inactive)
REMARK    1  A    between atoms: N_2  and  C_13
REMARK    2  A    between atoms: C_3  and  C_18
REMARK    3  A    between atoms: C_7  and  C_15
REMARK    4  A    between atoms: C_26  and  C_30
REMARK                            x       y       z     vdW  Elec       q    Type
REMARK                         _______ _______ _______ _____ _____    ______ ____
ROOT
ATOM      1  O   UNL     1      33.853 -21.571 -19.737  0.00  0.00    -0.270 OA
ATOM      2  N   UNL     1      35.598 -20.000 -19.872  0.00  0.00    -0.280 N 
ATOM      3  C   UNL     1      34.891 -21.074 -19.314  0.00  0.00    +0.249 C 
ATOM      4  H   UNL     1      36.417 -19.731 -19.399  0.00  0.00    +0.155 HD
ENDROOT
BRANCH   2  13
ATOM      5  N   UNL     1      34.920 -14.967 -23.230  0.00  0.00    -0.274 NA
ATOM      6  C   UNL     1      34.954 -17.148 -22.119  0.00  0.00    +0.010 C 
ATOM      7  C   UNL     1      34.895 -15.664 -22.142  0.00  0.00    +0.053 C 
ATOM      8  C   UNL     1      34.659 -17.809 -23.318  0.00  0.00    -0.019 C 
ATOM      9  C   UNL     1      34.296 -16.993 -24.522  0.00  0.00    +0.053 C 
ATOM     10  C   UNL     1      35.079 -15.687 -24.499  0.00  0.00    +0.130 C 
ATOM     11  C   UNL     1      35.271 -17.873 -20.969  0.00  0.00    +0.016 C 
ATOM     12  C   UNL     1      34.658 -19.207 -23.352  0.00  0.00    -0.003 C 
ATOM     13  C   UNL     1      35.282 -19.268 -21.017  0.00  0.00    +0.051 C 
ATOM     14  C   UNL     1      34.974 -19.933 -22.204  0.00  0.00    +0.014 C 
BRANCH   7  15
ATOM     15  C   UNL     1      34.794 -14.920 -20.832  0.00  0.00    +0.040 C 
ATOM     16  C   UNL     1      34.088 -13.599 -21.078  0.00  0.00    +0.006 C 
ATOM     17  C   UNL     1      34.054 -15.782 -19.825  0.00  0.00    +0.006 C 
ENDBRANCH   7  15
ENDBRANCH   2  13
BRANCH   3  18
ATOM     18  C   UNL     1      35.469 -21.636 -18.064  0.00  0.00    +0.054 C 
ATOM     19  C   UNL     1      35.190 -22.925 -16.053  0.00  0.00    +0.000 C 
ATOM     20  C   UNL     1      36.547 -22.685 -15.732  0.00  0.00    +0.000 C 
ATOM     21  C   UNL     1      34.660 -22.388 -17.238  0.00  0.00    +0.005 C 
ATOM     22  C   UNL     1      36.790 -21.387 -17.776  0.00  0.00    +0.005 C 
ATOM     23  C   UNL     1      37.335 -21.914 -16.603  0.00  0.00    +0.000 C 
ATOM     24  C   UNL     1      37.078 -23.222 -14.547  0.00  0.00    +0.003 C 
ATOM     25  C   UNL     1      34.405 -23.695 -15.181  0.00  0.00    +0.000 C 
ATOM     26  C   UNL     1      36.282 -23.985 -13.692  0.00  0.00    +0.031 C 
ATOM     27  C   UNL     1      34.947 -24.221 -14.009  0.00  0.00    +0.003 C 
BRANCH  26  30
ATOM     28  N   UNL     1      37.903 -23.908 -11.814  0.00  0.00    -0.343 N 
ATOM     29  N   UNL     1      36.357 -25.654 -11.965  0.00  0.00    -0.285 NA
ATOM     30  C   UNL     1      36.846 -24.535 -12.471  0.00  0.00    +0.117 C 
ATOM     31  H   UNL     1      38.270 -24.298 -10.987  0.00  0.00    +0.144 HD
ATOM     32  H   UNL     1      38.284 -23.075 -12.176  0.00  0.00    +0.144 HD
ATOM     33  H   UNL     1      36.738 -26.029 -11.138  0.00  0.00    +0.188 HD
ENDBRANCH  26  30
ENDBRANCH   3  18
TORSDOF 4
ENDMDL
