MODEL 1
REMARK VINA RESULT:     -11.8      0.000      0.000
REMARK  Name = 3488
REMARK  8 active torsions:
REMARK  status: ('A' for Active; 'I' for Inactive)
REMARK    1  A    between atoms: C_1  and  S_7
REMARK    2  A    between atoms: C_2  and  C_22
REMARK    3  A    between atoms: S_7  and  N_12
REMARK    4  A    between atoms: N_11  and  C_16
REMARK    5  A    between atoms: C_22  and  C_23
REMARK    6  A    between atoms: C_23  and  N_25
REMARK    7  A    between atoms: C_26  and  C_29
REMARK    8  A    between atoms: C_30  and  O_35
REMARK                            x       y       z     vdW  Elec       q    Type
REMARK                         _______ _______ _______ _____ _____    ______ ____
ROOT
ATOM      1  C   UNL     1      34.361 -21.480 -19.038  0.00  0.00    +0.125 C 
ATOM      2  C   UNL     1      35.651 -19.610 -20.621  0.00  0.00    -0.020 C 
ATOM      3  C   UNL     1      33.609 -20.644 -19.845  0.00  0.00    +0.020 C 
ATOM      4  C   UNL     1      35.742 -21.404 -19.003  0.00  0.00    +0.020 C 
ATOM      5  C   UNL     1      34.260 -19.701 -20.642  0.00  0.00    -0.003 C 
ATOM      6  C   UNL     1      36.393 -20.463 -19.802  0.00  0.00    -0.003 C 
ENDROOT
BRANCH   1   7
ATOM      7  S   UNL     1      33.537 -22.673 -18.027  0.00  0.00    +0.077 S 
ATOM      8  O   UNL     1      33.538 -23.940 -18.734  0.00  0.00    -0.150 OA
ATOM      9  O   UNL     1      32.290 -22.071 -17.598  0.00  0.00    -0.150 OA
BRANCH   7  12
ATOM     10  O   UNL     1      33.373 -24.208 -15.331  0.00  0.00    -0.251 OA
ATOM     11  N   UNL     1      35.418 -23.416 -14.601  0.00  0.00    -0.289 N 
ATOM     12  N   UNL     1      34.605 -22.768 -16.696  0.00  0.00    -0.169 N 
ATOM     13  C   UNL     1      34.381 -23.530 -15.506  0.00  0.00    +0.319 C 
ATOM     14  H   UNL     1      36.186 -22.846 -14.833  0.00  0.00    +0.151 HD
ATOM     15  H   UNL     1      35.445 -22.256 -16.754  0.00  0.00    +0.178 HD
BRANCH  11  16
ATOM     16  C   UNL     1      35.426 -24.098 -13.324  0.00  0.00    +0.073 C 
ATOM     17  C   UNL     1      36.055 -23.220 -12.236  0.00  0.00    +0.020 C 
ATOM     18  C   UNL     1      36.137 -25.450 -13.427  0.00  0.00    +0.020 C 
ATOM     19  C   UNL     1      37.567 -23.079 -12.401  0.00  0.00    +0.002 C 
ATOM     20  C   UNL     1      37.650 -25.306 -13.589  0.00  0.00    +0.002 C 
ATOM     21  C   UNL     1      38.254 -24.439 -12.488  0.00  0.00    +0.000 C 
ENDBRANCH  11  16
ENDBRANCH   7  12
ENDBRANCH   1   7
BRANCH   2  22
ATOM     22  C   UNL     1      36.347 -18.603 -21.473  0.00  0.00    +0.048 C 
BRANCH  22  23
ATOM     23  C   UNL     1      35.608 -18.291 -22.780  0.00  0.00    +0.094 C 
BRANCH  23  25
ATOM     24  O   UNL     1      33.805 -17.126 -24.686  0.00  0.00    -0.270 OA
ATOM     25  N   UNL     1      35.255 -16.902 -22.890  0.00  0.00    -0.300 N 
ATOM     26  C   UNL     1      34.369 -16.426 -23.849  0.00  0.00    +0.249 C 
ATOM     27  H   UNL     1      35.659 -16.260 -22.261  0.00  0.00    +0.150 HD
BRANCH  26  29
ATOM     28 CL   UNL     1      33.190 -12.191 -26.547  0.00  0.00    -0.082 Cl
ATOM     29  C   UNL     1      34.130 -14.959 -23.848  0.00  0.00    +0.088 C 
ATOM     30  C   UNL     1      34.228 -14.249 -22.670  0.00  0.00    +0.143 C 
ATOM     31  C   UNL     1      33.814 -14.353 -25.048  0.00  0.00    +0.019 C 
ATOM     32  C   UNL     1      34.000 -12.873 -22.689  0.00  0.00    +0.038 C 
ATOM     33  C   UNL     1      33.586 -12.977 -25.067  0.00  0.00    +0.058 C 
ATOM     34  C   UNL     1      33.679 -12.237 -23.889  0.00  0.00    +0.015 C 
BRANCH  30  35
ATOM     35  O   UNL     1      34.540 -14.852 -21.487  0.00  0.00    -0.471 OA
ATOM     36  C   UNL     1      34.153 -14.174 -20.294  0.00  0.00    +0.252 C 
ENDBRANCH  30  35
ENDBRANCH  26  29
ENDBRANCH  23  25
ENDBRANCH  22  23
ENDBRANCH   2  22
TORSDOF 8
ENDMDL
MODEL 2
REMARK VINA RESULT:     -11.3      6.246      9.921
REMARK  Name = 3488
REMARK  8 active torsions:
REMARK  status: ('A' for Active; 'I' for Inactive)
REMARK    1  A    between atoms: C_1  and  S_7
REMARK    2  A    between atoms: C_2  and  C_22
REMARK    3  A    between atoms: S_7  and  N_12
REMARK    4  A    between atoms: N_11  and  C_16
REMARK    5  A    between atoms: C_22  and  C_23
REMARK    6  A    between atoms: C_23  and  N_25
REMARK    7  A    between atoms: C_26  and  C_29
REMARK    8  A    between atoms: C_30  and  O_35
REMARK                            x       y       z     vdW  Elec       q    Type
REMARK                         _______ _______ _______ _____ _____    ______ ____
ROOT
ATOM      1  C   UNL     1      32.946 -12.681 -22.566  0.00  0.00    +0.125 C 
ATOM      2  C   UNL     1      31.800 -11.168 -20.550  0.00  0.00    -0.020 C 
ATOM      3  C   UNL     1      32.702 -13.268 -21.337  0.00  0.00    +0.020 C 
ATOM      4  C   UNL     1      32.631 -11.356 -22.812  0.00  0.00    +0.020 C 
ATOM      5  C   UNL     1      32.124 -12.506 -20.320  0.00  0.00    -0.003 C 
ATOM      6  C   UNL     1      32.052 -10.594 -21.797  0.00  0.00    -0.003 C 
ENDROOT
BRANCH   1   7
ATOM      7  S   UNL     1      33.679 -13.646 -23.853  0.00  0.00    +0.077 S 
ATOM      8  O   UNL     1      34.708 -12.846 -24.487  0.00  0.00    -0.150 OA
ATOM      9  O   UNL     1      32.590 -14.198 -24.635  0.00  0.00    -0.150 OA
BRANCH   7  12
ATOM     10  O   UNL     1      34.749 -16.449 -24.659  0.00  0.00    -0.251 OA
ATOM     11  N   UNL     1      35.411 -16.965 -22.506  0.00  0.00    -0.289 N 
ATOM     12  N   UNL     1      34.413 -14.897 -22.947  0.00  0.00    -0.169 N 
ATOM     13  C   UNL     1      34.856 -16.151 -23.474  0.00  0.00    +0.319 C 
ATOM     14  H   UNL     1      35.452 -16.635 -21.579  0.00  0.00    +0.151 HD
ATOM     15  H   UNL     1      34.541 -14.739 -21.983  0.00  0.00    +0.178 HD
BRANCH  11  16
ATOM     16  C   UNL     1      35.937 -18.282 -22.793  0.00  0.00    +0.073 C 
ATOM     17  C   UNL     1      34.847 -19.351 -22.656  0.00  0.00    +0.020 C 
ATOM     18  C   UNL     1      37.142 -18.600 -21.904  0.00  0.00    +0.020 C 
ATOM     19  C   UNL     1      34.455 -19.602 -21.201  0.00  0.00    +0.002 C 
ATOM     20  C   UNL     1      36.746 -18.853 -20.449  0.00  0.00    +0.002 C 
ATOM     21  C   UNL     1      35.670 -19.929 -20.337  0.00  0.00    +0.000 C 
ENDBRANCH  11  16
ENDBRANCH   7  12
ENDBRANCH   1   7
BRANCH   2  22
ATOM     22  C   UNL     1      31.183 -10.353 -19.464  0.00  0.00    +0.048 C 
BRANCH  22  23
ATOM     23  C   UNL     1      31.998  -9.108 -19.094  0.00  0.00    +0.094 C 
BRANCH  23  25
ATOM     24  O   UNL     1      33.088  -6.454 -19.012  0.00  0.00    -0.270 OA
ATOM     25  N   UNL     1      32.168  -8.215 -20.208  0.00  0.00    -0.300 N 
ATOM     26  C   UNL     1      32.708  -6.942 -20.073  0.00  0.00    +0.249 C 
ATOM     27  H   UNL     1      31.891  -8.518 -21.103  0.00  0.00    +0.150 HD
BRANCH  26  29
ATOM     28 CL   UNL     1      31.263  -2.701 -22.630  0.00  0.00    -0.082 Cl
ATOM     29  C   UNL     1      32.791  -6.132 -21.316  0.00  0.00    +0.088 C 
ATOM     30  C   UNL     1      33.568  -6.570 -22.369  0.00  0.00    +0.143 C 
ATOM     31  C   UNL     1      32.076  -4.952 -21.371  0.00  0.00    +0.019 C 
ATOM     32  C   UNL     1      33.633  -5.797 -23.528  0.00  0.00    +0.038 C 
ATOM     33  C   UNL     1      32.143  -4.178 -22.530  0.00  0.00    +0.058 C 
ATOM     34  C   UNL     1      32.920  -4.600 -23.608  0.00  0.00    +0.015 C 
BRANCH  30  35
ATOM     35  O   UNL     1      34.272  -7.736 -22.311  0.00  0.00    -0.471 OA
ATOM     36  C   UNL     1      34.697  -8.298 -23.550  0.00  0.00    +0.252 C 
ENDBRANCH  30  35
ENDBRANCH  26  29
ENDBRANCH  23  25
ENDBRANCH  22  23
ENDBRANCH   2  22
TORSDOF 8
ENDMDL
MODEL 3
REMARK VINA RESULT:     -10.6      4.851      7.624
REMARK  Name = 3488
REMARK  8 active torsions:
REMARK  status: ('A' for Active; 'I' for Inactive)
REMARK    1  A    between atoms: C_1  and  S_7
REMARK    2  A    between atoms: C_2  and  C_22
REMARK    3  A    between atoms: S_7  and  N_12
REMARK    4  A    between atoms: N_11  and  C_16
REMARK    5  A    between atoms: C_22  and  C_23
REMARK    6  A    between atoms: C_23  and  N_25
REMARK    7  A    between atoms: C_26  and  C_29
REMARK    8  A    between atoms: C_30  and  O_35
REMARK                            x       y       z     vdW  Elec       q    Type
REMARK                         _______ _______ _______ _____ _____    ______ ____
ROOT
ATOM      1  C   UNL     1      36.215 -23.863 -12.426  0.00  0.00    +0.125 C 
ATOM      2  C   UNL     1      34.019 -23.329 -14.026  0.00  0.00    -0.020 C 
ATOM      3  C   UNL     1      36.398 -23.193 -13.623  0.00  0.00    +0.020 C 
ATOM      4  C   UNL     1      34.960 -24.273 -12.009  0.00  0.00    +0.020 C 
ATOM      5  C   UNL     1      35.291 -22.924 -14.430  0.00  0.00    -0.003 C 
ATOM      6  C   UNL     1      33.853 -24.003 -12.815  0.00  0.00    -0.003 C 
ENDROOT
BRANCH   1   7
ATOM      7  S   UNL     1      37.617 -24.204 -11.405  0.00  0.00    +0.077 S 
ATOM      8  O   UNL     1      37.161 -24.949 -10.248  0.00  0.00    -0.150 OA
ATOM      9  O   UNL     1      38.330 -22.953 -11.240  0.00  0.00    -0.150 OA
BRANCH   7  12
ATOM     10  O   UNL     1      37.070 -27.068 -12.477  0.00  0.00    -0.251 OA
ATOM     11  N   UNL     1      39.057 -27.152 -13.656  0.00  0.00    -0.289 N 
ATOM     12  N   UNL     1      38.520 -25.238 -12.424  0.00  0.00    -0.169 N 
ATOM     13  C   UNL     1      38.125 -26.551 -12.831  0.00  0.00    +0.319 C 
ATOM     14  H   UNL     1      39.875 -26.655 -13.883  0.00  0.00    +0.151 HD
ATOM     15  H   UNL     1      39.383 -24.900 -12.758  0.00  0.00    +0.178 HD
BRANCH  11  16
ATOM     16  C   UNL     1      38.882 -28.480 -14.202  0.00  0.00    +0.073 C 
ATOM     17  C   UNL     1      40.072 -29.380 -13.853  0.00  0.00    +0.020 C 
ATOM     18  C   UNL     1      38.650 -28.427 -15.715  0.00  0.00    +0.020 C 
ATOM     19  C   UNL     1      41.334 -29.006 -14.629  0.00  0.00    +0.002 C 
ATOM     20  C   UNL     1      39.915 -28.055 -16.489  0.00  0.00    +0.002 C 
ATOM     21  C   UNL     1      41.082 -28.971 -16.134  0.00  0.00    +0.000 C 
ENDBRANCH  11  16
ENDBRANCH   7  12
ENDBRANCH   1   7
BRANCH   2  22
ATOM     22  C   UNL     1      32.836 -23.043 -14.887  0.00  0.00    +0.048 C 
BRANCH  22  23
ATOM     23  C   UNL     1      33.014 -23.492 -16.344  0.00  0.00    +0.094 C 
BRANCH  23  25
ATOM     24  O   UNL     1      33.734 -23.726 -19.112  0.00  0.00    -0.270 OA
ATOM     25  N   UNL     1      33.737 -22.527 -17.127  0.00  0.00    -0.300 N 
ATOM     26  C   UNL     1      34.043 -22.727 -18.468  0.00  0.00    +0.249 C 
ATOM     27  H   UNL     1      34.029 -21.690 -16.696  0.00  0.00    +0.150 HD
BRANCH  26  29
ATOM     28 CL   UNL     1      34.212 -19.057 -22.089  0.00  0.00    -0.082 Cl
ATOM     29  C   UNL     1      34.819 -21.647 -19.130  0.00  0.00    +0.088 C 
ATOM     30  C   UNL     1      36.101 -21.364 -18.704  0.00  0.00    +0.143 C 
ATOM     31  C   UNL     1      34.219 -20.956 -20.163  0.00  0.00    +0.019 C 
ATOM     32  C   UNL     1      36.814 -20.347 -19.338  0.00  0.00    +0.038 C 
ATOM     33  C   UNL     1      34.932 -19.938 -20.797  0.00  0.00    +0.058 C 
ATOM     34  C   UNL     1      36.230 -19.634 -20.385  0.00  0.00    +0.015 C 
BRANCH  30  35
ATOM     35  O   UNL     1      36.690 -22.049 -17.683  0.00  0.00    -0.471 OA
ATOM     36  C   UNL     1      37.404 -21.282 -16.717  0.00  0.00    +0.252 C 
ENDBRANCH  30  35
ENDBRANCH  26  29
ENDBRANCH  23  25
ENDBRANCH  22  23
ENDBRANCH   2  22
TORSDOF 8
ENDMDL
MODEL 4
REMARK VINA RESULT:     -10.6      3.033      3.906
REMARK  Name = 3488
REMARK  8 active torsions:
REMARK  status: ('A' for Active; 'I' for Inactive)
REMARK    1  A    between atoms: C_1  and  S_7
REMARK    2  A    between atoms: C_2  and  C_22
REMARK    3  A    between atoms: S_7  and  N_12
REMARK    4  A    between atoms: N_11  and  C_16
REMARK    5  A    between atoms: C_22  and  C_23
REMARK    6  A    between atoms: C_23  and  N_25
REMARK    7  A    between atoms: C_26  and  C_29
REMARK    8  A    between atoms: C_30  and  O_35
REMARK                            x       y       z     vdW  Elec       q    Type
REMARK                         _______ _______ _______ _____ _____    ______ ____
ROOT
ATOM      1  C   UNL     1      34.499 -21.674 -19.160  0.00  0.00    +0.125 C 
ATOM      2  C   UNL     1      35.387 -19.486 -20.606  0.00  0.00    -0.020 C 
ATOM      3  C   UNL     1      35.851 -21.380 -19.178  0.00  0.00    +0.020 C 
ATOM      4  C   UNL     1      33.579 -20.900 -19.846  0.00  0.00    +0.020 C 
ATOM      5  C   UNL     1      36.299 -20.278 -19.908  0.00  0.00    -0.003 C 
ATOM      6  C   UNL     1      34.026 -19.796 -20.574  0.00  0.00    -0.003 C 
ENDROOT
BRANCH   1   7
ATOM      7  S   UNL     1      33.932 -23.071 -18.236  0.00  0.00    +0.077 S 
ATOM      8  O   UNL     1      34.762 -23.196 -17.053  0.00  0.00    -0.150 OA
ATOM      9  O   UNL     1      33.813 -24.171 -19.172  0.00  0.00    -0.150 OA
BRANCH   7  12
ATOM     10  O   UNL     1      32.357 -23.306 -15.569  0.00  0.00    -0.251 OA
ATOM     11  N   UNL     1      30.504 -22.209 -16.410  0.00  0.00    -0.289 N 
ATOM     12  N   UNL     1      32.370 -22.548 -17.778  0.00  0.00    -0.169 N 
ATOM     13  C   UNL     1      31.778 -22.737 -16.489  0.00  0.00    +0.319 C 
ATOM     14  H   UNL     1      30.125 -21.772 -17.205  0.00  0.00    +0.151 HD
ATOM     15  H   UNL     1      31.834 -22.078 -18.458  0.00  0.00    +0.178 HD
BRANCH  11  16
ATOM     16  C   UNL     1      29.702 -22.271 -15.207  0.00  0.00    +0.073 C 
ATOM     17  C   UNL     1      30.267 -23.298 -14.220  0.00  0.00    +0.020 C 
ATOM     18  C   UNL     1      28.236 -22.566 -15.538  0.00  0.00    +0.020 C 
ATOM     19  C   UNL     1      30.047 -24.737 -14.685  0.00  0.00    +0.002 C 
ATOM     20  C   UNL     1      28.019 -24.007 -16.000  0.00  0.00    +0.002 C 
ATOM     21  C   UNL     1      28.578 -25.011 -14.997  0.00  0.00    +0.000 C 
ENDBRANCH  11  16
ENDBRANCH   7  12
ENDBRANCH   1   7
BRANCH   2  22
ATOM     22  C   UNL     1      35.864 -18.308 -21.385  0.00  0.00    +0.048 C 
BRANCH  22  23
ATOM     23  C   UNL     1      35.033 -18.027 -22.644  0.00  0.00    +0.094 C 
BRANCH  23  25
ATOM     24  O   UNL     1      33.899 -16.778 -24.966  0.00  0.00    -0.270 OA
ATOM     25  N   UNL     1      34.763 -16.627 -22.819  0.00  0.00    -0.300 N 
ATOM     26  C   UNL     1      34.209 -16.109 -23.984  0.00  0.00    +0.249 C 
ATOM     27  H   UNL     1      34.980 -16.007 -22.084  0.00  0.00    +0.150 HD
BRANCH  26  29
ATOM     28 CL   UNL     1      33.093 -11.914 -26.769  0.00  0.00    -0.082 Cl
ATOM     29  C   UNL     1      34.017 -14.636 -24.018  0.00  0.00    +0.088 C 
ATOM     30  C   UNL     1      34.170 -13.897 -22.863  0.00  0.00    +0.143 C 
ATOM     31  C   UNL     1      33.689 -14.053 -25.226  0.00  0.00    +0.019 C 
ATOM     32  C   UNL     1      33.985 -12.516 -22.916  0.00  0.00    +0.038 C 
ATOM     33  C   UNL     1      33.503 -12.671 -25.278  0.00  0.00    +0.058 C 
ATOM     34  C   UNL     1      33.653 -11.902 -24.124  0.00  0.00    +0.015 C 
BRANCH  30  35
ATOM     35  O   UNL     1      34.494 -14.477 -21.673  0.00  0.00    -0.471 OA
ATOM     36  C   UNL     1      33.844 -13.973 -20.509  0.00  0.00    +0.252 C 
ENDBRANCH  30  35
ENDBRANCH  26  29
ENDBRANCH  23  25
ENDBRANCH  22  23
ENDBRANCH   2  22
TORSDOF 8
ENDMDL
MODEL 5
REMARK VINA RESULT:     -10.6      3.110      4.866
REMARK  Name = 3488
REMARK  8 active torsions:
REMARK  status: ('A' for Active; 'I' for Inactive)
REMARK    1  A    between atoms: C_1  and  S_7
REMARK    2  A    between atoms: C_2  and  C_22
REMARK    3  A    between atoms: S_7  and  N_12
REMARK    4  A    between atoms: N_11  and  C_16
REMARK    5  A    between atoms: C_22  and  C_23
REMARK    6  A    between atoms: C_23  and  N_25
REMARK    7  A    between atoms: C_26  and  C_29
REMARK    8  A    between atoms: C_30  and  O_35
REMARK                            x       y       z     vdW  Elec       q    Type
REMARK                         _______ _______ _______ _____ _____    ______ ____
ROOT
ATOM      1  C   UNL     1      35.767 -23.126 -15.247  0.00  0.00    +0.125 C 
ATOM      2  C   UNL     1      35.171 -22.098 -17.747  0.00  0.00    -0.020 C 
ATOM      3  C   UNL     1      34.503 -23.324 -15.774  0.00  0.00    +0.020 C 
ATOM      4  C   UNL     1      36.741 -22.428 -15.939  0.00  0.00    +0.020 C 
ATOM      5  C   UNL     1      34.202 -22.805 -17.034  0.00  0.00    -0.003 C 
ATOM      6  C   UNL     1      36.441 -21.911 -17.200  0.00  0.00    -0.003 C 
ENDROOT
BRANCH   1   7
ATOM      7  S   UNL     1      36.148 -23.783 -13.650  0.00  0.00    +0.077 S 
ATOM      8  O   UNL     1      34.983 -24.500 -13.168  0.00  0.00    -0.150 OA
ATOM      9  O   UNL     1      36.716 -22.698 -12.875  0.00  0.00    -0.150 OA
BRANCH   7  12
ATOM     10  O   UNL     1      36.091 -26.493 -15.166  0.00  0.00    -0.251 OA
ATOM     11  N   UNL     1      38.366 -26.830 -14.925  0.00  0.00    -0.289 N 
ATOM     12  N   UNL     1      37.379 -24.902 -14.041  0.00  0.00    -0.169 N 
ATOM     13  C   UNL     1      37.188 -26.127 -14.755  0.00  0.00    +0.319 C 
ATOM     14  H   UNL     1      39.197 -26.452 -14.558  0.00  0.00    +0.151 HD
ATOM     15  H   UNL     1      38.295 -24.685 -13.752  0.00  0.00    +0.178 HD
BRANCH  11  16
ATOM     16  C   UNL     1      38.432 -28.097 -15.620  0.00  0.00    +0.073 C 
ATOM     17  C   UNL     1      38.154 -29.263 -14.666  0.00  0.00    +0.020 C 
ATOM     18  C   UNL     1      39.779 -28.267 -16.328  0.00  0.00    +0.020 C 
ATOM     19  C   UNL     1      39.304 -29.507 -13.690  0.00  0.00    +0.002 C 
ATOM     20  C   UNL     1      40.928 -28.513 -15.349  0.00  0.00    +0.002 C 
ATOM     21  C   UNL     1      40.633 -29.685 -14.419  0.00  0.00    +0.000 C 
ENDBRANCH  11  16
ENDBRANCH   7  12
ENDBRANCH   1   7
BRANCH   2  22
ATOM     22  C   UNL     1      34.850 -21.544 -19.094  0.00  0.00    +0.048 C 
BRANCH  22  23
ATOM     23  C   UNL     1      35.911 -20.572 -19.625  0.00  0.00    +0.094 C 
BRANCH  23  25
ATOM     24  O   UNL     1      37.276 -18.363 -20.849  0.00  0.00    -0.270 OA
ATOM     25  N   UNL     1      35.391 -19.699 -20.642  0.00  0.00    -0.300 N 
ATOM     26  C   UNL     1      36.128 -18.650 -21.179  0.00  0.00    +0.249 C 
ATOM     27  H   UNL     1      34.475 -19.849 -20.973  0.00  0.00    +0.150 HD
BRANCH  26  29
ATOM     28 CL   UNL     1      34.591 -13.966 -22.700  0.00  0.00    -0.082 Cl
ATOM     29  C   UNL     1      35.438 -17.823 -22.202  0.00  0.00    +0.088 C 
ATOM     30  C   UNL     1      34.905 -18.423 -23.324  0.00  0.00    +0.143 C 
ATOM     31  C   UNL     1      35.355 -16.461 -21.988  0.00  0.00    +0.019 C 
ATOM     32  C   UNL     1      34.262 -17.630 -24.274  0.00  0.00    +0.038 C 
ATOM     33  C   UNL     1      34.712 -15.667 -22.938  0.00  0.00    +0.058 C 
ATOM     34  C   UNL     1      34.164 -16.251 -24.080  0.00  0.00    +0.015 C 
BRANCH  30  35
ATOM     35  O   UNL     1      34.990 -19.768 -23.532  0.00  0.00    -0.471 OA
ATOM     36  C   UNL     1      34.580 -20.252 -24.809  0.00  0.00    +0.252 C 
ENDBRANCH  30  35
ENDBRANCH  26  29
ENDBRANCH  23  25
ENDBRANCH  22  23
ENDBRANCH   2  22
TORSDOF 8
ENDMDL
MODEL 6
REMARK VINA RESULT:     -10.3      2.665      4.300
REMARK  Name = 3488
REMARK  8 active torsions:
REMARK  status: ('A' for Active; 'I' for Inactive)
REMARK    1  A    between atoms: C_1  and  S_7
REMARK    2  A    between atoms: C_2  and  C_22
REMARK    3  A    between atoms: S_7  and  N_12
REMARK    4  A    between atoms: N_11  and  C_16
REMARK    5  A    between atoms: C_22  and  C_23
REMARK    6  A    between atoms: C_23  and  N_25
REMARK    7  A    between atoms: C_26  and  C_29
REMARK    8  A    between atoms: C_30  and  O_35
REMARK                            x       y       z     vdW  Elec       q    Type
REMARK                         _______ _______ _______ _____ _____    ______ ____
ROOT
ATOM      1  C   UNL     1      33.262 -23.350 -15.473  0.00  0.00    +0.125 C 
ATOM      2  C   UNL     1      33.382 -22.162 -17.971  0.00  0.00    -0.020 C 
ATOM      3  C   UNL     1      34.497 -23.118 -16.051  0.00  0.00    +0.020 C 
ATOM      4  C   UNL     1      32.085 -23.003 -16.112  0.00  0.00    +0.020 C 
ATOM      5  C   UNL     1      34.558 -22.519 -17.311  0.00  0.00    -0.003 C 
ATOM      6  C   UNL     1      32.145 -22.403 -17.371  0.00  0.00    -0.003 C 
ENDROOT
BRANCH   1   7
ATOM      7  S   UNL     1      33.185 -24.109 -13.878  0.00  0.00    +0.077 S 
ATOM      8  O   UNL     1      31.965 -24.890 -13.808  0.00  0.00    -0.150 OA
ATOM      9  O   UNL     1      33.449 -23.068 -12.905  0.00  0.00    -0.150 OA
BRANCH   7  12
ATOM     10  O   UNL     1      35.724 -24.377 -12.108  0.00  0.00    -0.251 OA
ATOM     11  N   UNL     1      36.574 -26.128 -13.356  0.00  0.00    -0.289 N 
ATOM     12  N   UNL     1      34.528 -25.165 -13.953  0.00  0.00    -0.169 N 
ATOM     13  C   UNL     1      35.637 -25.160 -13.049  0.00  0.00    +0.319 C 
ATOM     14  H   UNL     1      36.413 -26.709 -14.133  0.00  0.00    +0.151 HD
ATOM     15  H   UNL     1      34.538 -25.831 -14.678  0.00  0.00    +0.178 HD
BRANCH  11  16
ATOM     16  C   UNL     1      37.782 -26.324 -12.584  0.00  0.00    +0.073 C 
ATOM     17  C   UNL     1      38.767 -25.170 -12.801  0.00  0.00    +0.020 C 
ATOM     18  C   UNL     1      38.429 -27.674 -12.908  0.00  0.00    +0.020 C 
ATOM     19  C   UNL     1      39.405 -25.199 -14.189  0.00  0.00    +0.002 C 
ATOM     20  C   UNL     1      39.068 -27.700 -14.296  0.00  0.00    +0.002 C 
ATOM     21  C   UNL     1      40.053 -26.550 -14.484  0.00  0.00    +0.000 C 
ENDBRANCH  11  16
ENDBRANCH   7  12
ENDBRANCH   1   7
BRANCH   2  22
ATOM     22  C   UNL     1      33.446 -21.522 -19.316  0.00  0.00    +0.048 C 
BRANCH  22  23
ATOM     23  C   UNL     1      34.757 -20.769 -19.575  0.00  0.00    +0.094 C 
BRANCH  23  25
ATOM     24  O   UNL     1      36.676 -18.724 -20.188  0.00  0.00    -0.270 OA
ATOM     25  N   UNL     1      34.589 -19.686 -20.505  0.00  0.00    -0.300 N 
ATOM     26  C   UNL     1      35.578 -18.738 -20.738  0.00  0.00    +0.249 C 
ATOM     27  H   UNL     1      33.739 -19.611 -20.997  0.00  0.00    +0.150 HD
BRANCH  26  29
ATOM     28 CL   UNL     1      34.506 -13.758 -21.548  0.00  0.00    -0.082 Cl
ATOM     29  C   UNL     1      35.240 -17.665 -21.709  0.00  0.00    +0.088 C 
ATOM     30  C   UNL     1      35.117 -17.967 -23.050  0.00  0.00    +0.143 C 
ATOM     31  C   UNL     1      35.057 -16.385 -21.225  0.00  0.00    +0.019 C 
ATOM     32  C   UNL     1      34.799 -16.947 -23.946  0.00  0.00    +0.038 C 
ATOM     33  C   UNL     1      34.740 -15.364 -22.121  0.00  0.00    +0.058 C 
ATOM     34  C   UNL     1      34.610 -15.645 -23.481  0.00  0.00    +0.015 C 
BRANCH  30  35
ATOM     35  O   UNL     1      35.298 -19.232 -23.524  0.00  0.00    -0.471 OA
ATOM     36  C   UNL     1      34.277 -19.759 -24.369  0.00  0.00    +0.252 C 
ENDBRANCH  30  35
ENDBRANCH  26  29
ENDBRANCH  23  25
ENDBRANCH  22  23
ENDBRANCH   2  22
TORSDOF 8
ENDMDL
MODEL 7
REMARK VINA RESULT:     -10.3      5.356     12.929
REMARK  Name = 3488
REMARK  8 active torsions:
REMARK  status: ('A' for Active; 'I' for Inactive)
REMARK    1  A    between atoms: C_1  and  S_7
REMARK    2  A    between atoms: C_2  and  C_22
REMARK    3  A    between atoms: S_7  and  N_12
REMARK    4  A    between atoms: N_11  and  C_16
REMARK    5  A    between atoms: C_22  and  C_23
REMARK    6  A    between atoms: C_23  and  N_25
REMARK    7  A    between atoms: C_26  and  C_29
REMARK    8  A    between atoms: C_30  and  O_35
REMARK                            x       y       z     vdW  Elec       q    Type
REMARK                         _______ _______ _______ _____ _____    ______ ____
ROOT
ATOM      1  C   UNL     1      32.696 -12.400 -21.631  0.00  0.00    +0.125 C 
ATOM      2  C   UNL     1      34.382 -14.424 -22.486  0.00  0.00    -0.020 C 
ATOM      3  C   UNL     1      33.110 -12.422 -22.952  0.00  0.00    +0.020 C 
ATOM      4  C   UNL     1      33.105 -13.365 -20.727  0.00  0.00    +0.020 C 
ATOM      5  C   UNL     1      33.960 -13.442 -23.382  0.00  0.00    -0.003 C 
ATOM      6  C   UNL     1      33.954 -14.386 -21.158  0.00  0.00    -0.003 C 
ENDROOT
BRANCH   1   7
ATOM      7  S   UNL     1      31.620 -11.108 -21.086  0.00  0.00    +0.077 S 
ATOM      8  O   UNL     1      31.974 -10.774 -19.719  0.00  0.00    -0.150 OA
ATOM      9  O   UNL     1      30.270 -11.519 -21.417  0.00  0.00    -0.150 OA
BRANCH   7  12
ATOM     10  O   UNL     1      32.304  -8.128 -20.536  0.00  0.00    -0.251 OA
ATOM     11  N   UNL     1      32.731  -7.675 -22.762  0.00  0.00    -0.289 N 
ATOM     12  N   UNL     1      32.092  -9.831 -22.120  0.00  0.00    -0.169 N 
ATOM     13  C   UNL     1      32.374  -8.491 -21.706  0.00  0.00    +0.319 C 
ATOM     14  H   UNL     1      32.758  -8.060 -23.667  0.00  0.00    +0.151 HD
ATOM     15  H   UNL     1      32.176 -10.036 -23.080  0.00  0.00    +0.178 HD
BRANCH  11  16
ATOM     16  C   UNL     1      33.068  -6.278 -22.596  0.00  0.00    +0.073 C 
ATOM     17  C   UNL     1      31.936  -5.375 -23.098  0.00  0.00    +0.020 C 
ATOM     18  C   UNL     1      34.393  -5.945 -23.289  0.00  0.00    +0.020 C 
ATOM     19  C   UNL     1      31.819  -5.376 -24.622  0.00  0.00    +0.002 C 
ATOM     20  C   UNL     1      34.272  -5.945 -24.813  0.00  0.00    +0.002 C 
ATOM     21  C   UNL     1      33.148  -5.030 -25.289  0.00  0.00    +0.000 C 
ENDBRANCH  11  16
ENDBRANCH   7  12
ENDBRANCH   1   7
BRANCH   2  22
ATOM     22  C   UNL     1      35.291 -15.513 -22.945  0.00  0.00    +0.048 C 
BRANCH  22  23
ATOM     23  C   UNL     1      34.578 -16.855 -23.160  0.00  0.00    +0.094 C 
BRANCH  23  25
ATOM     24  O   UNL     1      33.438 -19.471 -22.856  0.00  0.00    -0.270 OA
ATOM     25  N   UNL     1      34.855 -17.795 -22.108  0.00  0.00    -0.300 N 
ATOM     26  C   UNL     1      34.253 -19.045 -22.042  0.00  0.00    +0.249 C 
ATOM     27  H   UNL     1      35.498 -17.543 -21.405  0.00  0.00    +0.150 HD
BRANCH  26  29
ATOM     28 CL   UNL     1      32.693 -22.041 -18.143  0.00  0.00    -0.082 Cl
ATOM     29  C   UNL     1      34.624 -19.889 -20.876  0.00  0.00    +0.088 C 
ATOM     30  C   UNL     1      35.953 -20.054 -20.545  0.00  0.00    +0.143 C 
ATOM     31  C   UNL     1      33.608 -20.486 -20.157  0.00  0.00    +0.019 C 
ATOM     32  C   UNL     1      36.282 -20.849 -19.448  0.00  0.00    +0.038 C 
ATOM     33  C   UNL     1      33.937 -21.283 -19.060  0.00  0.00    +0.058 C 
ATOM     34  C   UNL     1      35.274 -21.464 -18.705  0.00  0.00    +0.015 C 
BRANCH  30  35
ATOM     35  O   UNL     1      36.954 -19.462 -21.258  0.00  0.00    -0.471 OA
ATOM     36  C   UNL     1      37.632 -18.371 -20.638  0.00  0.00    +0.252 C 
ENDBRANCH  30  35
ENDBRANCH  26  29
ENDBRANCH  23  25
ENDBRANCH  22  23
ENDBRANCH   2  22
TORSDOF 8
ENDMDL
MODEL 8
REMARK VINA RESULT:     -10.2      2.959      4.705
REMARK  Name = 3488
REMARK  8 active torsions:
REMARK  status: ('A' for Active; 'I' for Inactive)
REMARK    1  A    between atoms: C_1  and  S_7
REMARK    2  A    between atoms: C_2  and  C_22
REMARK    3  A    between atoms: S_7  and  N_12
REMARK    4  A    between atoms: N_11  and  C_16
REMARK    5  A    between atoms: C_22  and  C_23
REMARK    6  A    between atoms: C_23  and  N_25
REMARK    7  A    between atoms: C_26  and  C_29
REMARK    8  A    between atoms: C_30  and  O_35
REMARK                            x       y       z     vdW  Elec       q    Type
REMARK                         _______ _______ _______ _____ _____    ______ ____
ROOT
ATOM      1  C   UNL     1      35.497 -22.360 -16.898  0.00  0.00    +0.125 C 
ATOM      2  C   UNL     1      35.694 -21.119 -19.365  0.00  0.00    -0.020 C 
ATOM      3  C   UNL     1      36.677 -21.725 -17.242  0.00  0.00    +0.020 C 
ATOM      4  C   UNL     1      34.412 -22.389 -17.757  0.00  0.00    +0.020 C 
ATOM      5  C   UNL     1      36.777 -21.100 -18.486  0.00  0.00    -0.003 C 
ATOM      6  C   UNL     1      34.511 -21.762 -19.000  0.00  0.00    -0.003 C 
ENDROOT
BRANCH   1   7
ATOM      7  S   UNL     1      35.371 -23.152 -15.323  0.00  0.00    +0.077 S 
ATOM      8  O   UNL     1      35.425 -22.128 -14.297  0.00  0.00    -0.150 OA
ATOM      9  O   UNL     1      36.325 -24.243 -15.325  0.00  0.00    -0.150 OA
BRANCH   7  12
ATOM     10  O   UNL     1      32.804 -22.560 -13.677  0.00  0.00    -0.251 OA
ATOM     11  N   UNL     1      31.533 -24.091 -14.854  0.00  0.00    -0.289 N 
ATOM     12  N   UNL     1      33.786 -23.789 -15.403  0.00  0.00    -0.169 N 
ATOM     13  C   UNL     1      32.696 -23.407 -14.558  0.00  0.00    +0.319 C 
ATOM     14  H   UNL     1      31.548 -24.753 -15.581  0.00  0.00    +0.151 HD
ATOM     15  H   UNL     1      33.610 -24.475 -16.087  0.00  0.00    +0.178 HD
BRANCH  11  16
ATOM     16  C   UNL     1      30.292 -23.875 -14.141  0.00  0.00    +0.073 C 
ATOM     17  C   UNL     1      29.319 -25.037 -14.368  0.00  0.00    +0.020 C 
ATOM     18  C   UNL     1      29.659 -22.536 -14.529  0.00  0.00    +0.020 C 
ATOM     19  C   UNL     1      28.741 -25.047 -15.783  0.00  0.00    +0.002 C 
ATOM     20  C   UNL     1      29.080 -22.550 -15.944  0.00  0.00    +0.002 C 
ATOM     21  C   UNL     1      28.106 -23.707 -16.142  0.00  0.00    +0.000 C 
ENDBRANCH  11  16
ENDBRANCH   7  12
ENDBRANCH   1   7
BRANCH   2  22
ATOM     22  C   UNL     1      35.800 -20.451 -20.694  0.00  0.00    +0.048 C 
BRANCH  22  23
ATOM     23  C   UNL     1      36.575 -19.127 -20.655  0.00  0.00    +0.094 C 
BRANCH  23  25
ATOM     24  O   UNL     1      35.060 -16.763 -20.061  0.00  0.00    -0.270 OA
ATOM     25  N   UNL     1      36.070 -18.171 -21.602  0.00  0.00    -0.300 N 
ATOM     26  C   UNL     1      35.343 -17.050 -21.222  0.00  0.00    +0.249 C 
ATOM     27  H   UNL     1      36.246 -18.316 -22.561  0.00  0.00    +0.150 HD
BRANCH  26  29
ATOM     28 CL   UNL     1      33.920 -12.332 -22.745  0.00  0.00    -0.082 Cl
ATOM     29  C   UNL     1      34.868 -16.173 -22.323  0.00  0.00    +0.088 C 
ATOM     30  C   UNL     1      34.660 -16.702 -23.580  0.00  0.00    +0.143 C 
ATOM     31  C   UNL     1      34.648 -14.839 -22.042  0.00  0.00    +0.019 C 
ATOM     32  C   UNL     1      34.214 -15.863 -24.601  0.00  0.00    +0.038 C 
ATOM     33  C   UNL     1      34.203 -14.000 -23.063  0.00  0.00    +0.058 C 
ATOM     34  C   UNL     1      33.985 -14.512 -24.342  0.00  0.00    +0.015 C 
BRANCH  30  35
ATOM     35  O   UNL     1      34.878 -18.020 -23.854  0.00  0.00    -0.471 OA
ATOM     36  C   UNL     1      33.754 -18.788 -24.276  0.00  0.00    +0.252 C 
ENDBRANCH  30  35
ENDBRANCH  26  29
ENDBRANCH  23  25
ENDBRANCH  22  23
ENDBRANCH   2  22
TORSDOF 8
ENDMDL
MODEL 9
REMARK VINA RESULT:     -10.0      5.991      9.691
REMARK  Name = 3488
REMARK  8 active torsions:
REMARK  status: ('A' for Active; 'I' for Inactive)
REMARK    1  A    between atoms: C_1  and  S_7
REMARK    2  A    between atoms: C_2  and  C_22
REMARK    3  A    between atoms: S_7  and  N_12
REMARK    4  A    between atoms: N_11  and  C_16
REMARK    5  A    between atoms: C_22  and  C_23
REMARK    6  A    between atoms: C_23  and  N_25
REMARK    7  A    between atoms: C_26  and  C_29
REMARK    8  A    between atoms: C_30  and  O_35
REMARK                            x       y       z     vdW  Elec       q    Type
REMARK                         _______ _______ _______ _____ _____    ______ ____
ROOT
ATOM      1  C   UNL     1      32.910 -12.714 -22.424  0.00  0.00    +0.125 C 
ATOM      2  C   UNL     1      31.781 -11.227 -20.380  0.00  0.00    -0.020 C 
ATOM      3  C   UNL     1      32.440 -11.441 -22.695  0.00  0.00    +0.020 C 
ATOM      4  C   UNL     1      32.830 -13.262 -21.156  0.00  0.00    +0.020 C 
ATOM      5  C   UNL     1      31.871 -10.692 -21.665  0.00  0.00    -0.003 C 
ATOM      6  C   UNL     1      32.262 -12.513 -20.125  0.00  0.00    -0.003 C 
ENDROOT
BRANCH   1   7
ATOM      7  S   UNL     1      33.631 -13.664 -23.730  0.00  0.00    +0.077 S 
ATOM      8  O   UNL     1      34.647 -12.851 -24.370  0.00  0.00    -0.150 OA
ATOM      9  O   UNL     1      32.535 -14.215 -24.502  0.00  0.00    -0.150 OA
BRANCH   7  12
ATOM     10  O   UNL     1      34.741 -16.437 -24.582  0.00  0.00    -0.251 OA
ATOM     11  N   UNL     1      35.414 -16.978 -22.437  0.00  0.00    -0.289 N 
ATOM     12  N   UNL     1      34.385 -14.917 -22.845  0.00  0.00    -0.169 N 
ATOM     13  C   UNL     1      34.846 -16.156 -23.392  0.00  0.00    +0.319 C 
ATOM     14  H   UNL     1      35.451 -16.662 -21.506  0.00  0.00    +0.151 HD
ATOM     15  H   UNL     1      34.513 -14.774 -21.879  0.00  0.00    +0.178 HD
BRANCH  11  16
ATOM     16  C   UNL     1      35.959 -18.282 -22.746  0.00  0.00    +0.073 C 
ATOM     17  C   UNL     1      34.890 -19.372 -22.603  0.00  0.00    +0.020 C 
ATOM     18  C   UNL     1      37.184 -18.587 -21.880  0.00  0.00    +0.020 C 
ATOM     19  C   UNL     1      34.526 -19.644 -21.144  0.00  0.00    +0.002 C 
ATOM     20  C   UNL     1      36.815 -18.862 -20.421  0.00  0.00    +0.002 C 
ATOM     21  C   UNL     1      35.760 -19.958 -20.304  0.00  0.00    +0.000 C 
ENDBRANCH  11  16
ENDBRANCH   7  12
ENDBRANCH   1   7
BRANCH   2  22
ATOM     22  C   UNL     1      31.172 -10.427 -19.278  0.00  0.00    +0.048 C 
BRANCH  22  23
ATOM     23  C   UNL     1      31.772  -9.022 -19.138  0.00  0.00    +0.094 C 
BRANCH  23  25
ATOM     24  O   UNL     1      32.527  -6.322 -19.756  0.00  0.00    -0.270 OA
ATOM     25  N   UNL     1      32.360  -8.554 -20.364  0.00  0.00    -0.300 N 
ATOM     26  C   UNL     1      32.694  -7.222 -20.576  0.00  0.00    +0.249 C 
ATOM     27  H   UNL     1      32.532  -9.204 -21.084  0.00  0.00    +0.150 HD
BRANCH  26  29
ATOM     28 CL   UNL     1      35.279  -8.841 -24.736  0.00  0.00    -0.082 Cl
ATOM     29  C   UNL     1      33.268  -6.895 -21.906  0.00  0.00    +0.088 C 
ATOM     30  C   UNL     1      33.142  -5.618 -22.413  0.00  0.00    +0.143 C 
ATOM     31  C   UNL     1      33.917  -7.899 -22.597  0.00  0.00    +0.019 C 
ATOM     32  C   UNL     1      33.687  -5.331 -23.664  0.00  0.00    +0.038 C 
ATOM     33  C   UNL     1      34.462  -7.612 -23.849  0.00  0.00    +0.058 C 
ATOM     34  C   UNL     1      34.348  -6.328 -24.382  0.00  0.00    +0.015 C 
BRANCH  30  35
ATOM     35  O   UNL     1      32.499  -4.630 -21.727  0.00  0.00    -0.471 OA
ATOM     36  C   UNL     1      31.287  -4.135 -22.291  0.00  0.00    +0.252 C 
ENDBRANCH  30  35
ENDBRANCH  26  29
ENDBRANCH  23  25
ENDBRANCH  22  23
ENDBRANCH   2  22
TORSDOF 8
ENDMDL
