MODEL 1
REMARK VINA RESULT:     -11.7      0.000      0.000
REMARK  Name = 107971
REMARK  9 active torsions:
REMARK  status: ('A' for Active; 'I' for Inactive)
REMARK    1  A    between atoms: C_3  and  O_20
REMARK    2  A    between atoms: C_10  and  C_12
REMARK    3  A    between atoms: C_17  and  O_18
REMARK    4  A    between atoms: O_20  and  C_26
REMARK    5  A    between atoms: C_22  and  O_27
REMARK    6  A    between atoms: C_23  and  O_29
REMARK    7  A    between atoms: C_24  and  O_31
REMARK    8  A    between atoms: C_25  and  C_33
REMARK    9  A    between atoms: C_33  and  O_34
REMARK                            x       y       z     vdW  Elec       q    Type
REMARK                         _______ _______ _______ _____ _____    ______ ____
ROOT
ATOM      1  O   UNL     1      36.201 -21.383 -18.566  0.00  0.00    -0.450 OA
ATOM      2  O   UNL     1      32.545 -20.535 -20.166  0.00  0.00    -0.286 OA
ATOM      3  C   UNL     1      34.107 -23.309 -16.290  0.00  0.00    +0.144 C 
ATOM      4  C   UNL     1      35.226 -22.743 -16.900  0.00  0.00    +0.075 C 
ATOM      5  C   UNL     1      32.830 -23.045 -16.787  0.00  0.00    +0.037 C 
ATOM      6  C   UNL     1      35.065 -21.911 -18.008  0.00  0.00    +0.151 C 
ATOM      7  C   UNL     1      33.789 -21.647 -18.505  0.00  0.00    +0.074 C 
ATOM      8  C   UNL     1      32.666 -22.213 -17.896  0.00  0.00    +0.009 C 
ATOM      9  C   UNL     1      33.644 -20.768 -19.680  0.00  0.00    +0.202 C 
ATOM     10  C   UNL     1      34.900 -20.201 -20.242  0.00  0.00    +0.077 C 
ATOM     11  C   UNL     1      36.051 -20.549 -19.648  0.00  0.00    +0.183 C 
ENDROOT
BRANCH  10  12
ATOM     12  C   UNL     1      34.894 -19.279 -21.390  0.00  0.00    +0.006 C 
ATOM     13  C   UNL     1      35.393 -17.982 -21.251  0.00  0.00    +0.003 C 
ATOM     14  C   UNL     1      34.388 -19.699 -22.623  0.00  0.00    +0.003 C 
ATOM     15  C   UNL     1      35.387 -17.110 -22.339  0.00  0.00    +0.037 C 
ATOM     16  C   UNL     1      34.381 -18.826 -23.710  0.00  0.00    +0.037 C 
ATOM     17  C   UNL     1      34.880 -17.531 -23.569  0.00  0.00    +0.134 C 
BRANCH  17  18
ATOM     18  O   UNL     1      34.874 -16.679 -24.631  0.00  0.00    -0.506 OA
ATOM     19  H   UNL     1      35.010 -17.010 -25.497  0.00  0.00    +0.292 HD
ENDBRANCH  17  18
ENDBRANCH  10  12
BRANCH   3  20
ATOM     20  O   UNL     1      34.260 -24.121 -15.206  0.00  0.00    -0.450 OA
BRANCH  20  26
ATOM     21  O   UNL     1      35.805 -25.868 -15.174  0.00  0.00    -0.316 OA
ATOM     22  C   UNL     1      37.154 -24.749 -12.898  0.00  0.00    +0.173 C 
ATOM     23  C   UNL     1      37.408 -26.177 -13.381  0.00  0.00    +0.169 C 
ATOM     24  C   UNL     1      35.794 -24.238 -13.374  0.00  0.00    +0.210 C 
ATOM     25  C   UNL     1      37.136 -26.299 -14.883  0.00  0.00    +0.177 C 
ATOM     26  C   UNL     1      35.597 -24.492 -14.869  0.00  0.00    +0.318 C 
BRANCH  22  27
ATOM     27  O   UNL     1      37.186 -24.753 -11.470  0.00  0.00    -0.379 OA
ATOM     28  H   UNL     1      38.069 -24.490 -11.166  0.00  0.00    +0.211 HD
ENDBRANCH  22  27
BRANCH  23  29
ATOM     29  O   UNL     1      38.763 -26.530 -13.118  0.00  0.00    -0.379 OA
ATOM     30  H   UNL     1      39.352 -25.864 -13.506  0.00  0.00    +0.211 HD
ENDBRANCH  23  29
BRANCH  24  31
ATOM     31  O   UNL     1      35.710 -22.832 -13.145  0.00  0.00    -0.377 OA
ATOM     32  H   UNL     1      34.798 -22.596 -12.913  0.00  0.00    +0.211 HD
ENDBRANCH  24  31
BRANCH  25  33
ATOM     33  C   UNL     1      37.270 -27.740 -15.366  0.00  0.00    +0.169 C 
BRANCH  33  34
ATOM     34  O   UNL     1      36.885 -27.796 -16.727  0.00  0.00    -0.379 OA
ATOM     35  H   UNL     1      37.272 -28.584 -17.140  0.00  0.00    +0.211 HD
ENDBRANCH  33  34
ENDBRANCH  25  33
ENDBRANCH  20  26
ENDBRANCH   3  20
TORSDOF 9
ENDMDL
MODEL 2
REMARK VINA RESULT:     -11.7      1.446      1.836
REMARK  Name = 107971
REMARK  9 active torsions:
REMARK  status: ('A' for Active; 'I' for Inactive)
REMARK    1  A    between atoms: C_3  and  O_20
REMARK    2  A    between atoms: C_10  and  C_12
REMARK    3  A    between atoms: C_17  and  O_18
REMARK    4  A    between atoms: O_20  and  C_26
REMARK    5  A    between atoms: C_22  and  O_27
REMARK    6  A    between atoms: C_23  and  O_29
REMARK    7  A    between atoms: C_24  and  O_31
REMARK    8  A    between atoms: C_25  and  C_33
REMARK    9  A    between atoms: C_33  and  O_34
REMARK                            x       y       z     vdW  Elec       q    Type
REMARK                         _______ _______ _______ _____ _____    ______ ____
ROOT
ATOM      1  O   UNL     1      36.145 -21.253 -18.889  0.00  0.00    -0.450 OA
ATOM      2  O   UNL     1      32.475 -20.295 -20.393  0.00  0.00    -0.286 OA
ATOM      3  C   UNL     1      34.060 -23.205 -16.628  0.00  0.00    +0.144 C 
ATOM      4  C   UNL     1      35.177 -22.642 -17.243  0.00  0.00    +0.075 C 
ATOM      5  C   UNL     1      32.778 -22.905 -17.093  0.00  0.00    +0.037 C 
ATOM      6  C   UNL     1      35.011 -21.776 -18.325  0.00  0.00    +0.151 C 
ATOM      7  C   UNL     1      33.730 -21.476 -18.789  0.00  0.00    +0.074 C 
ATOM      8  C   UNL     1      32.609 -22.039 -18.174  0.00  0.00    +0.009 C 
ATOM      9  C   UNL     1      33.579 -20.561 -19.936  0.00  0.00    +0.202 C 
ATOM     10  C   UNL     1      34.835 -20.000 -20.506  0.00  0.00    +0.077 C 
ATOM     11  C   UNL     1      35.990 -20.386 -19.944  0.00  0.00    +0.183 C 
ENDROOT
BRANCH  10  12
ATOM     12  C   UNL     1      34.824 -19.046 -21.627  0.00  0.00    +0.006 C 
ATOM     13  C   UNL     1      34.291 -19.422 -22.863  0.00  0.00    +0.003 C 
ATOM     14  C   UNL     1      35.346 -17.762 -21.459  0.00  0.00    +0.003 C 
ATOM     15  C   UNL     1      34.281 -18.518 -23.924  0.00  0.00    +0.037 C 
ATOM     16  C   UNL     1      35.336 -16.858 -22.521  0.00  0.00    +0.037 C 
ATOM     17  C   UNL     1      34.803 -17.236 -23.754  0.00  0.00    +0.134 C 
BRANCH  17  18
ATOM     18  O   UNL     1      34.794 -16.354 -24.790  0.00  0.00    -0.506 OA
ATOM     19  H   UNL     1      35.325 -16.513 -25.546  0.00  0.00    +0.292 HD
ENDBRANCH  17  18
ENDBRANCH  10  12
BRANCH   3  20
ATOM     20  O   UNL     1      34.218 -24.050 -15.570  0.00  0.00    -0.450 OA
BRANCH  20  26
ATOM     21  O   UNL     1      36.392 -24.358 -14.783  0.00  0.00    -0.316 OA
ATOM     22  C   UNL     1      35.596 -23.749 -12.091  0.00  0.00    +0.173 C 
ATOM     23  C   UNL     1      36.948 -24.381 -12.423  0.00  0.00    +0.169 C 
ATOM     24  C   UNL     1      34.581 -23.997 -13.207  0.00  0.00    +0.210 C 
ATOM     25  C   UNL     1      37.397 -23.994 -13.834  0.00  0.00    +0.177 C 
ATOM     26  C   UNL     1      35.167 -23.660 -14.577  0.00  0.00    +0.318 C 
BRANCH  22  27
ATOM     27  O   UNL     1      35.121 -24.333 -10.877  0.00  0.00    -0.379 OA
ATOM     28  H   UNL     1      34.153 -24.394 -10.905  0.00  0.00    +0.211 HD
ENDBRANCH  22  27
BRANCH  23  29
ATOM     29  O   UNL     1      37.920 -23.936 -11.480  0.00  0.00    -0.379 OA
ATOM     30  H   UNL     1      38.533 -23.323 -11.914  0.00  0.00    +0.211 HD
ENDBRANCH  23  29
BRANCH  24  31
ATOM     31  O   UNL     1      33.434 -23.173 -12.996  0.00  0.00    -0.377 OA
ATOM     32  H   UNL     1      32.802 -23.309 -13.718  0.00  0.00    +0.211 HD
ENDBRANCH  24  31
BRANCH  25  33
ATOM     33  C   UNL     1      38.686 -24.705 -14.231  0.00  0.00    +0.169 C 
BRANCH  33  34
ATOM     34  O   UNL     1      39.297 -23.978 -15.281  0.00  0.00    -0.379 OA
ATOM     35  H   UNL     1      38.672 -23.888 -16.017  0.00  0.00    +0.211 HD
ENDBRANCH  33  34
ENDBRANCH  25  33
ENDBRANCH  20  26
ENDBRANCH   3  20
TORSDOF 9
ENDMDL
MODEL 3
REMARK VINA RESULT:     -11.4      0.816      1.634
REMARK  Name = 107971
REMARK  9 active torsions:
REMARK  status: ('A' for Active; 'I' for Inactive)
REMARK    1  A    between atoms: C_3  and  O_20
REMARK    2  A    between atoms: C_10  and  C_12
REMARK    3  A    between atoms: C_17  and  O_18
REMARK    4  A    between atoms: O_20  and  C_26
REMARK    5  A    between atoms: C_22  and  O_27
REMARK    6  A    between atoms: C_23  and  O_29
REMARK    7  A    between atoms: C_24  and  O_31
REMARK    8  A    between atoms: C_25  and  C_33
REMARK    9  A    between atoms: C_33  and  O_34
REMARK                            x       y       z     vdW  Elec       q    Type
REMARK                         _______ _______ _______ _____ _____    ______ ____
ROOT
ATOM      1  O   UNL     1      32.997 -21.388 -19.268  0.00  0.00    -0.450 OA
ATOM      2  O   UNL     1      36.698 -19.789 -19.897  0.00  0.00    -0.286 OA
ATOM      3  C   UNL     1      34.816 -23.054 -16.587  0.00  0.00    +0.144 C 
ATOM      4  C   UNL     1      33.786 -22.653 -17.437  0.00  0.00    +0.075 C 
ATOM      5  C   UNL     1      36.105 -22.549 -16.762  0.00  0.00    +0.037 C 
ATOM      6  C   UNL     1      34.048 -21.746 -18.464  0.00  0.00    +0.151 C 
ATOM      7  C   UNL     1      35.337 -21.240 -18.639  0.00  0.00    +0.074 C 
ATOM      8  C   UNL     1      36.370 -21.641 -17.788  0.00  0.00    +0.009 C 
ATOM      9  C   UNL     1      35.589 -20.279 -19.728  0.00  0.00    +0.202 C 
ATOM     10  C   UNL     1      34.425 -19.933 -20.589  0.00  0.00    +0.077 C 
ATOM     11  C   UNL     1      33.249 -20.507 -20.292  0.00  0.00    +0.183 C 
ENDROOT
BRANCH  10  12
ATOM     12  C   UNL     1      34.548 -19.016 -21.734  0.00  0.00    +0.006 C 
ATOM     13  C   UNL     1      35.166 -17.774 -21.574  0.00  0.00    +0.003 C 
ATOM     14  C   UNL     1      34.047 -19.386 -22.985  0.00  0.00    +0.003 C 
ATOM     15  C   UNL     1      35.282 -16.906 -22.660  0.00  0.00    +0.037 C 
ATOM     16  C   UNL     1      34.163 -18.517 -24.070  0.00  0.00    +0.037 C 
ATOM     17  C   UNL     1      34.780 -17.277 -23.908  0.00  0.00    +0.134 C 
BRANCH  17  18
ATOM     18  O   UNL     1      34.893 -16.429 -24.966  0.00  0.00    -0.506 OA
ATOM     19  H   UNL     1      35.714 -16.342 -25.410  0.00  0.00    +0.292 HD
ENDBRANCH  17  18
ENDBRANCH  10  12
BRANCH   3  20
ATOM     20  O   UNL     1      34.564 -23.942 -15.584  0.00  0.00    -0.450 OA
BRANCH  20  26
ATOM     21  O   UNL     1      36.011 -25.758 -15.353  0.00  0.00    -0.316 OA
ATOM     22  C   UNL     1      36.460 -25.158 -12.580  0.00  0.00    +0.173 C 
ATOM     23  C   UNL     1      36.878 -26.487 -13.209  0.00  0.00    +0.169 C 
ATOM     24  C   UNL     1      35.353 -24.486 -13.392  0.00  0.00    +0.210 C 
ATOM     25  C   UNL     1      37.156 -26.316 -14.705  0.00  0.00    +0.177 C 
ATOM     26  C   UNL     1      35.699 -24.450 -14.881  0.00  0.00    +0.318 C 
BRANCH  22  27
ATOM     27  O   UNL     1      35.985 -25.424 -11.260  0.00  0.00    -0.379 OA
ATOM     28  H   UNL     1      35.391 -26.191 -11.277  0.00  0.00    +0.211 HD
ENDBRANCH  22  27
BRANCH  23  29
ATOM     29  O   UNL     1      38.055 -26.965 -12.563  0.00  0.00    -0.379 OA
ATOM     30  H   UNL     1      37.917 -26.972 -11.604  0.00  0.00    +0.211 HD
ENDBRANCH  23  29
BRANCH  24  31
ATOM     31  O   UNL     1      35.183 -23.142 -12.941  0.00  0.00    -0.377 OA
ATOM     32  H   UNL     1      35.519 -22.530 -13.614  0.00  0.00    +0.211 HD
ENDBRANCH  24  31
BRANCH  25  33
ATOM     33  C   UNL     1      37.461 -27.650 -15.379  0.00  0.00    +0.169 C 
BRANCH  33  34
ATOM     34  O   UNL     1      36.788 -27.691 -16.624  0.00  0.00    -0.379 OA
ATOM     35  H   UNL     1      35.876 -27.383 -16.507  0.00  0.00    +0.211 HD
ENDBRANCH  33  34
ENDBRANCH  25  33
ENDBRANCH  20  26
ENDBRANCH   3  20
TORSDOF 9
ENDMDL
MODEL 4
REMARK VINA RESULT:     -11.1      1.456      2.436
REMARK  Name = 107971
REMARK  9 active torsions:
REMARK  status: ('A' for Active; 'I' for Inactive)
REMARK    1  A    between atoms: C_3  and  O_20
REMARK    2  A    between atoms: C_10  and  C_12
REMARK    3  A    between atoms: C_17  and  O_18
REMARK    4  A    between atoms: O_20  and  C_26
REMARK    5  A    between atoms: C_22  and  O_27
REMARK    6  A    between atoms: C_23  and  O_29
REMARK    7  A    between atoms: C_24  and  O_31
REMARK    8  A    between atoms: C_25  and  C_33
REMARK    9  A    between atoms: C_33  and  O_34
REMARK                            x       y       z     vdW  Elec       q    Type
REMARK                         _______ _______ _______ _____ _____    ______ ____
ROOT
ATOM      1  O   UNL     1      33.089 -21.387 -19.269  0.00  0.00    -0.450 OA
ATOM      2  O   UNL     1      36.758 -19.736 -19.947  0.00  0.00    -0.286 OA
ATOM      3  C   UNL     1      34.967 -23.030 -16.615  0.00  0.00    +0.144 C 
ATOM      4  C   UNL     1      33.921 -22.643 -17.451  0.00  0.00    +0.075 C 
ATOM      5  C   UNL     1      36.247 -22.507 -16.807  0.00  0.00    +0.037 C 
ATOM      6  C   UNL     1      34.156 -21.730 -18.480  0.00  0.00    +0.151 C 
ATOM      7  C   UNL     1      35.434 -21.207 -18.672  0.00  0.00    +0.074 C 
ATOM      8  C   UNL     1      36.485 -21.594 -17.835  0.00  0.00    +0.009 C 
ATOM      9  C   UNL     1      35.659 -20.242 -19.763  0.00  0.00    +0.202 C 
ATOM     10  C   UNL     1      34.478 -19.911 -20.608  0.00  0.00    +0.077 C 
ATOM     11  C   UNL     1      33.315 -20.501 -20.296  0.00  0.00    +0.183 C 
ENDROOT
BRANCH  10  12
ATOM     12  C   UNL     1      34.573 -18.991 -21.754  0.00  0.00    +0.006 C 
ATOM     13  C   UNL     1      34.061 -19.366 -22.998  0.00  0.00    +0.003 C 
ATOM     14  C   UNL     1      35.175 -17.740 -21.599  0.00  0.00    +0.003 C 
ATOM     15  C   UNL     1      34.152 -18.494 -24.083  0.00  0.00    +0.037 C 
ATOM     16  C   UNL     1      35.266 -16.869 -22.684  0.00  0.00    +0.037 C 
ATOM     17  C   UNL     1      34.754 -17.245 -23.927  0.00  0.00    +0.134 C 
BRANCH  17  18
ATOM     18  O   UNL     1      34.842 -16.395 -24.985  0.00  0.00    -0.506 OA
ATOM     19  H   UNL     1      34.130 -16.325 -25.590  0.00  0.00    +0.292 HD
ENDBRANCH  17  18
ENDBRANCH  10  12
BRANCH   3  20
ATOM     20  O   UNL     1      34.741 -23.923 -15.610  0.00  0.00    -0.450 OA
BRANCH  20  26
ATOM     21  O   UNL     1      36.707 -24.631 -14.572  0.00  0.00    -0.316 OA
ATOM     22  C   UNL     1      35.570 -24.245 -11.963  0.00  0.00    +0.173 C 
ATOM     23  C   UNL     1      36.869 -25.019 -12.184  0.00  0.00    +0.169 C 
ATOM     24  C   UNL     1      34.724 -24.208 -13.235  0.00  0.00    +0.210 C 
ATOM     25  C   UNL     1      37.583 -24.531 -13.447  0.00  0.00    +0.177 C 
ATOM     26  C   UNL     1      35.559 -23.795 -14.447  0.00  0.00    +0.318 C 
BRANCH  22  27
ATOM     27  O   UNL     1      34.838 -24.898 -10.924  0.00  0.00    -0.379 OA
ATOM     28  H   UNL     1      34.055 -25.328 -11.301  0.00  0.00    +0.211 HD
ENDBRANCH  22  27
BRANCH  23  29
ATOM     29  O   UNL     1      37.725 -24.834 -11.059  0.00  0.00    -0.379 OA
ATOM     30  H   UNL     1      38.006 -25.699 -10.722  0.00  0.00    +0.211 HD
ENDBRANCH  23  29
BRANCH  24  31
ATOM     31  O   UNL     1      33.668 -23.261 -13.076  0.00  0.00    -0.377 OA
ATOM     32  H   UNL     1      33.174 -23.185 -13.907  0.00  0.00    +0.211 HD
ENDBRANCH  24  31
BRANCH  25  33
ATOM     33  C   UNL     1      38.822 -25.367 -13.753  0.00  0.00    +0.169 C 
BRANCH  33  34
ATOM     34  O   UNL     1      39.918 -24.825 -13.039  0.00  0.00    -0.379 OA
ATOM     35  H   UNL     1      40.182 -23.983 -13.442  0.00  0.00    +0.211 HD
ENDBRANCH  33  34
ENDBRANCH  25  33
ENDBRANCH  20  26
ENDBRANCH   3  20
TORSDOF 9
ENDMDL
MODEL 5
REMARK VINA RESULT:     -10.8      2.081      2.894
REMARK  Name = 107971
REMARK  9 active torsions:
REMARK  status: ('A' for Active; 'I' for Inactive)
REMARK    1  A    between atoms: C_3  and  O_20
REMARK    2  A    between atoms: C_10  and  C_12
REMARK    3  A    between atoms: C_17  and  O_18
REMARK    4  A    between atoms: O_20  and  C_26
REMARK    5  A    between atoms: C_22  and  O_27
REMARK    6  A    between atoms: C_23  and  O_29
REMARK    7  A    between atoms: C_24  and  O_31
REMARK    8  A    between atoms: C_25  and  C_33
REMARK    9  A    between atoms: C_33  and  O_34
REMARK                            x       y       z     vdW  Elec       q    Type
REMARK                         _______ _______ _______ _____ _____    ______ ____
ROOT
ATOM      1  O   UNL     1      36.632 -20.447 -19.566  0.00  0.00    -0.450 OA
ATOM      2  O   UNL     1      32.781 -19.965 -20.824  0.00  0.00    -0.286 OA
ATOM      3  C   UNL     1      34.987 -22.799 -17.323  0.00  0.00    +0.144 C 
ATOM      4  C   UNL     1      35.973 -22.046 -17.959  0.00  0.00    +0.075 C 
ATOM      5  C   UNL     1      33.651 -22.668 -17.704  0.00  0.00    +0.037 C 
ATOM      6  C   UNL     1      35.620 -21.160 -18.978  0.00  0.00    +0.151 C 
ATOM      7  C   UNL     1      34.285 -21.029 -19.358  0.00  0.00    +0.074 C 
ATOM      8  C   UNL     1      33.295 -21.782 -18.722  0.00  0.00    +0.009 C 
ATOM      9  C   UNL     1      33.936 -20.089 -20.440  0.00  0.00    +0.202 C 
ATOM     10  C   UNL     1      35.062 -19.320 -21.038  0.00  0.00    +0.077 C 
ATOM     11  C   UNL     1      36.292 -19.559 -20.559  0.00  0.00    +0.183 C 
ENDROOT
BRANCH  10  12
ATOM     12  C   UNL     1      34.848 -18.322 -22.099  0.00  0.00    +0.006 C 
ATOM     13  C   UNL     1      35.176 -16.982 -21.878  0.00  0.00    +0.003 C 
ATOM     14  C   UNL     1      34.315 -18.712 -23.330  0.00  0.00    +0.003 C 
ATOM     15  C   UNL     1      34.973 -16.038 -22.884  0.00  0.00    +0.037 C 
ATOM     16  C   UNL     1      34.110 -17.767 -24.335  0.00  0.00    +0.037 C 
ATOM     17  C   UNL     1      34.439 -16.429 -24.112  0.00  0.00    +0.134 C 
BRANCH  17  18
ATOM     18  O   UNL     1      34.240 -15.507 -25.093  0.00  0.00    -0.506 OA
ATOM     19  H   UNL     1      34.932 -14.922 -25.332  0.00  0.00    +0.292 HD
ENDBRANCH  17  18
ENDBRANCH  10  12
BRANCH   3  20
ATOM     20  O   UNL     1      35.328 -23.665 -16.327  0.00  0.00    -0.450 OA
BRANCH  20  26
ATOM     21  O   UNL     1      36.212 -23.406 -14.183  0.00  0.00    -0.316 OA
ATOM     22  C   UNL     1      33.637 -23.815 -12.978  0.00  0.00    +0.173 C 
ATOM     23  C   UNL     1      34.934 -23.842 -12.170  0.00  0.00    +0.169 C 
ATOM     24  C   UNL     1      33.901 -24.099 -14.457  0.00  0.00    +0.210 C 
ATOM     25  C   UNL     1      36.007 -22.977 -12.836  0.00  0.00    +0.177 C 
ATOM     26  C   UNL     1      35.049 -23.243 -14.991  0.00  0.00    +0.318 C 
BRANCH  22  27
ATOM     27  O   UNL     1      32.766 -24.816 -12.450  0.00  0.00    -0.379 OA
ATOM     28  H   UNL     1      32.230 -25.191 -13.167  0.00  0.00    +0.211 HD
ENDBRANCH  22  27
BRANCH  23  29
ATOM     29  O   UNL     1      34.681 -23.350 -10.856  0.00  0.00    -0.379 OA
ATOM     30  H   UNL     1      34.525 -24.096 -10.256  0.00  0.00    +0.211 HD
ENDBRANCH  23  29
BRANCH  24  31
ATOM     31  O   UNL     1      32.729 -23.797 -15.213  0.00  0.00    -0.377 OA
ATOM     32  H   UNL     1      32.006 -23.563 -14.610  0.00  0.00    +0.211 HD
ENDBRANCH  24  31
BRANCH  25  33
ATOM     33  C   UNL     1      37.346 -23.081 -12.111  0.00  0.00    +0.169 C 
BRANCH  33  34
ATOM     34  O   UNL     1      37.319 -22.216 -10.990  0.00  0.00    -0.379 OA
ATOM     35  H   UNL     1      37.867 -22.588 -10.282  0.00  0.00    +0.211 HD
ENDBRANCH  33  34
ENDBRANCH  25  33
ENDBRANCH  20  26
ENDBRANCH   3  20
TORSDOF 9
ENDMDL
MODEL 6
REMARK VINA RESULT:     -10.7      1.843      3.264
REMARK  Name = 107971
REMARK  9 active torsions:
REMARK  status: ('A' for Active; 'I' for Inactive)
REMARK    1  A    between atoms: C_3  and  O_20
REMARK    2  A    between atoms: C_10  and  C_12
REMARK    3  A    between atoms: C_17  and  O_18
REMARK    4  A    between atoms: O_20  and  C_26
REMARK    5  A    between atoms: C_22  and  O_27
REMARK    6  A    between atoms: C_23  and  O_29
REMARK    7  A    between atoms: C_24  and  O_31
REMARK    8  A    between atoms: C_25  and  C_33
REMARK    9  A    between atoms: C_33  and  O_34
REMARK                            x       y       z     vdW  Elec       q    Type
REMARK                         _______ _______ _______ _____ _____    ______ ____
ROOT
ATOM      1  O   UNL     1      36.796 -20.104 -19.467  0.00  0.00    -0.450 OA
ATOM      2  O   UNL     1      32.974 -20.097 -20.896  0.00  0.00    -0.286 OA
ATOM      3  C   UNL     1      35.309 -22.508 -17.170  0.00  0.00    +0.144 C 
ATOM      4  C   UNL     1      36.238 -21.686 -17.806  0.00  0.00    +0.075 C 
ATOM      5  C   UNL     1      33.984 -22.538 -17.608  0.00  0.00    +0.037 C 
ATOM      6  C   UNL     1      35.839 -20.892 -18.882  0.00  0.00    +0.151 C 
ATOM      7  C   UNL     1      34.516 -20.922 -19.320  0.00  0.00    +0.074 C 
ATOM      8  C   UNL     1      33.583 -21.746 -18.684  0.00  0.00    +0.009 C 
ATOM      9  C   UNL     1      34.118 -20.078 -20.461  0.00  0.00    +0.202 C 
ATOM     10  C   UNL     1      35.183 -19.223 -21.055  0.00  0.00    +0.077 C 
ATOM     11  C   UNL     1      36.409 -19.306 -20.517  0.00  0.00    +0.183 C 
ENDROOT
BRANCH  10  12
ATOM     12  C   UNL     1      34.912 -18.305 -22.174  0.00  0.00    +0.006 C 
ATOM     13  C   UNL     1      35.235 -16.951 -22.065  0.00  0.00    +0.003 C 
ATOM     14  C   UNL     1      34.330 -18.787 -23.349  0.00  0.00    +0.003 C 
ATOM     15  C   UNL     1      34.978 -16.083 -23.125  0.00  0.00    +0.037 C 
ATOM     16  C   UNL     1      34.072 -17.918 -24.409  0.00  0.00    +0.037 C 
ATOM     17  C   UNL     1      34.396 -16.565 -24.298  0.00  0.00    +0.134 C 
BRANCH  17  18
ATOM     18  O   UNL     1      34.145 -15.717 -25.332  0.00  0.00    -0.506 OA
ATOM     19  H   UNL     1      34.250 -14.794 -25.216  0.00  0.00    +0.292 HD
ENDBRANCH  17  18
ENDBRANCH  10  12
BRANCH   3  20
ATOM     20  O   UNL     1      35.694 -23.284 -16.117  0.00  0.00    -0.450 OA
BRANCH  20  26
ATOM     21  O   UNL     1      33.547 -23.014 -15.245  0.00  0.00    -0.316 OA
ATOM     22  C   UNL     1      34.113 -24.800 -13.068  0.00  0.00    +0.173 C 
ATOM     23  C   UNL     1      32.882 -23.895 -13.086  0.00  0.00    +0.169 C 
ATOM     24  C   UNL     1      35.208 -24.263 -13.989  0.00  0.00    +0.210 C 
ATOM     25  C   UNL     1      32.455 -23.588 -14.524  0.00  0.00    +0.177 C 
ATOM     26  C   UNL     1      34.651 -23.907 -15.367  0.00  0.00    +0.318 C 
BRANCH  22  27
ATOM     27  O   UNL     1      34.604 -24.852 -11.727  0.00  0.00    -0.379 OA
ATOM     28  H   UNL     1      35.438 -24.360 -11.668  0.00  0.00    +0.211 HD
ENDBRANCH  22  27
BRANCH  23  29
ATOM     29  O   UNL     1      31.810 -24.543 -12.405  0.00  0.00    -0.379 OA
ATOM     30  H   UNL     1      31.917 -24.425 -11.448  0.00  0.00    +0.211 HD
ENDBRANCH  23  29
BRANCH  24  31
ATOM     31  O   UNL     1      36.216 -25.259 -14.158  0.00  0.00    -0.377 OA
ATOM     32  H   UNL     1      36.091 -25.705 -15.010  0.00  0.00    +0.211 HD
ENDBRANCH  24  31
BRANCH  25  33
ATOM     33  C   UNL     1      31.299 -22.593 -14.569  0.00  0.00    +0.169 C 
BRANCH  33  34
ATOM     34  O   UNL     1      30.088 -23.300 -14.375  0.00  0.00    -0.379 OA
ATOM     35  H   UNL     1      29.344 -22.679 -14.398  0.00  0.00    +0.211 HD
ENDBRANCH  33  34
ENDBRANCH  25  33
ENDBRANCH  20  26
ENDBRANCH   3  20
TORSDOF 9
ENDMDL
MODEL 7
REMARK VINA RESULT:      -9.8      2.369      4.074
REMARK  Name = 107971
REMARK  9 active torsions:
REMARK  status: ('A' for Active; 'I' for Inactive)
REMARK    1  A    between atoms: C_3  and  O_20
REMARK    2  A    between atoms: C_10  and  C_12
REMARK    3  A    between atoms: C_17  and  O_18
REMARK    4  A    between atoms: O_20  and  C_26
REMARK    5  A    between atoms: C_22  and  O_27
REMARK    6  A    between atoms: C_23  and  O_29
REMARK    7  A    between atoms: C_24  and  O_31
REMARK    8  A    between atoms: C_25  and  C_33
REMARK    9  A    between atoms: C_33  and  O_34
REMARK                            x       y       z     vdW  Elec       q    Type
REMARK                         _______ _______ _______ _____ _____    ______ ____
ROOT
ATOM      1  O   UNL     1      33.358 -21.306 -19.413  0.00  0.00    -0.450 OA
ATOM      2  O   UNL     1      36.922 -19.431 -20.066  0.00  0.00    -0.286 OA
ATOM      3  C   UNL     1      35.327 -22.859 -16.771  0.00  0.00    +0.144 C 
ATOM      4  C   UNL     1      34.260 -22.527 -17.605  0.00  0.00    +0.075 C 
ATOM      5  C   UNL     1      36.573 -22.258 -16.954  0.00  0.00    +0.037 C 
ATOM      6  C   UNL     1      34.442 -21.592 -18.624  0.00  0.00    +0.151 C 
ATOM      7  C   UNL     1      35.687 -20.992 -18.808  0.00  0.00    +0.074 C 
ATOM      8  C   UNL     1      36.757 -21.323 -17.973  0.00  0.00    +0.009 C 
ATOM      9  C   UNL     1      35.854 -20.003 -19.889  0.00  0.00    +0.202 C 
ATOM     10  C   UNL     1      34.657 -19.736 -20.734  0.00  0.00    +0.077 C 
ATOM     11  C   UNL     1      33.531 -20.398 -20.430  0.00  0.00    +0.183 C 
ENDROOT
BRANCH  10  12
ATOM     12  C   UNL     1      34.699 -18.801 -21.870  0.00  0.00    +0.006 C 
ATOM     13  C   UNL     1      35.235 -17.522 -21.707  0.00  0.00    +0.003 C 
ATOM     14  C   UNL     1      34.201 -19.191 -23.116  0.00  0.00    +0.003 C 
ATOM     15  C   UNL     1      35.274 -16.637 -22.784  0.00  0.00    +0.037 C 
ATOM     16  C   UNL     1      34.239 -18.304 -24.192  0.00  0.00    +0.037 C 
ATOM     17  C   UNL     1      34.775 -17.027 -24.027  0.00  0.00    +0.134 C 
BRANCH  17  18
ATOM     18  O   UNL     1      34.813 -16.163 -25.077  0.00  0.00    -0.506 OA
ATOM     19  H   UNL     1      34.168 -15.487 -25.150  0.00  0.00    +0.292 HD
ENDBRANCH  17  18
ENDBRANCH  10  12
BRANCH   3  20
ATOM     20  O   UNL     1      35.154 -23.774 -15.774  0.00  0.00    -0.450 OA
BRANCH  20  26
ATOM     21  O   UNL     1      32.926 -23.140 -16.051  0.00  0.00    -0.316 OA
ATOM     22  C   UNL     1      32.376 -23.537 -13.260  0.00  0.00    +0.173 C 
ATOM     23  C   UNL     1      31.412 -22.797 -14.188  0.00  0.00    +0.169 C 
ATOM     24  C   UNL     1      33.799 -23.527 -13.819  0.00  0.00    +0.210 C 
ATOM     25  C   UNL     1      31.567 -23.284 -15.631  0.00  0.00    +0.177 C 
ATOM     26  C   UNL     1      33.822 -23.945 -15.289  0.00  0.00    +0.318 C 
BRANCH  22  27
ATOM     27  O   UNL     1      32.359 -22.880 -11.991  0.00  0.00    -0.379 OA
ATOM     28  H   UNL     1      31.754 -22.122 -12.027  0.00  0.00    +0.211 HD
ENDBRANCH  22  27
BRANCH  23  29
ATOM     29  O   UNL     1      30.073 -23.025 -13.755  0.00  0.00    -0.379 OA
ATOM     30  H   UNL     1      29.830 -22.359 -13.093  0.00  0.00    +0.211 HD
ENDBRANCH  23  29
BRANCH  24  31
ATOM     31  O   UNL     1      34.604 -24.446 -13.080  0.00  0.00    -0.377 OA
ATOM     32  H   UNL     1      34.097 -24.785 -12.326  0.00  0.00    +0.211 HD
ENDBRANCH  24  31
BRANCH  25  33
ATOM     33  C   UNL     1      30.699 -22.480 -16.594  0.00  0.00    +0.169 C 
BRANCH  33  34
ATOM     34  O   UNL     1      29.352 -22.881 -16.428  0.00  0.00    -0.379 OA
ATOM     35  H   UNL     1      28.959 -22.394 -15.687  0.00  0.00    +0.211 HD
ENDBRANCH  33  34
ENDBRANCH  25  33
ENDBRANCH  20  26
ENDBRANCH   3  20
TORSDOF 9
ENDMDL
MODEL 8
REMARK VINA RESULT:      -9.6      7.020     11.867
REMARK  Name = 107971
REMARK  9 active torsions:
REMARK  status: ('A' for Active; 'I' for Inactive)
REMARK    1  A    between atoms: C_3  and  O_20
REMARK    2  A    between atoms: C_10  and  C_12
REMARK    3  A    between atoms: C_17  and  O_18
REMARK    4  A    between atoms: O_20  and  C_26
REMARK    5  A    between atoms: C_22  and  O_27
REMARK    6  A    between atoms: C_23  and  O_29
REMARK    7  A    between atoms: C_24  and  O_31
REMARK    8  A    between atoms: C_25  and  C_33
REMARK    9  A    between atoms: C_33  and  O_34
REMARK                            x       y       z     vdW  Elec       q    Type
REMARK                         _______ _______ _______ _____ _____    ______ ____
ROOT
ATOM      1  O   UNL     1      33.880 -10.524 -24.173  0.00  0.00    -0.450 OA
ATOM      2  O   UNL     1      31.689 -10.574 -20.732  0.00  0.00    -0.286 OA
ATOM      3  C   UNL     1      34.049 -14.085 -23.427  0.00  0.00    +0.144 C 
ATOM      4  C   UNL     1      34.227 -12.857 -24.061  0.00  0.00    +0.075 C 
ATOM      5  C   UNL     1      33.318 -14.162 -22.240  0.00  0.00    +0.037 C 
ATOM      6  C   UNL     1      33.672 -11.703 -23.506  0.00  0.00    +0.151 C 
ATOM      7  C   UNL     1      32.942 -11.779 -22.320  0.00  0.00    +0.074 C 
ATOM      8  C   UNL     1      32.762 -13.009 -21.683  0.00  0.00    +0.009 C 
ATOM      9  C   UNL     1      32.362 -10.547 -21.754  0.00  0.00    +0.202 C 
ATOM     10  C   UNL     1      32.628  -9.286 -22.500  0.00  0.00    +0.077 C 
ATOM     11  C   UNL     1      33.352  -9.379 -23.625  0.00  0.00    +0.183 C 
ENDROOT
BRANCH  10  12
ATOM     12  C   UNL     1      32.140  -7.981 -22.024  0.00  0.00    +0.006 C 
ATOM     13  C   UNL     1      31.281  -7.221 -22.821  0.00  0.00    +0.003 C 
ATOM     14  C   UNL     1      32.533  -7.500 -20.773  0.00  0.00    +0.003 C 
ATOM     15  C   UNL     1      30.819  -5.985 -22.369  0.00  0.00    +0.037 C 
ATOM     16  C   UNL     1      32.072  -6.264 -20.322  0.00  0.00    +0.037 C 
ATOM     17  C   UNL     1      31.214  -5.506 -21.120  0.00  0.00    +0.134 C 
BRANCH  17  18
ATOM     18  O   UNL     1      30.763  -4.299 -20.680  0.00  0.00    -0.506 OA
ATOM     19  H   UNL     1      31.199  -3.513 -20.943  0.00  0.00    +0.292 HD
ENDBRANCH  17  18
ENDBRANCH  10  12
BRANCH   3  20
ATOM     20  O   UNL     1      34.590 -15.214 -23.965  0.00  0.00    -0.450 OA
BRANCH  20  26
ATOM     21  O   UNL     1      35.501 -16.655 -22.372  0.00  0.00    -0.316 OA
ATOM     22  C   UNL     1      34.194 -18.925 -23.551  0.00  0.00    +0.173 C 
ATOM     23  C   UNL     1      35.308 -19.068 -22.514  0.00  0.00    +0.169 C 
ATOM     24  C   UNL     1      34.259 -17.566 -24.249  0.00  0.00    +0.210 C 
ATOM     25  C   UNL     1      35.354 -17.845 -21.594  0.00  0.00    +0.177 C 
ATOM     26  C   UNL     1      34.392 -16.427 -23.238  0.00  0.00    +0.318 C 
BRANCH  22  27
ATOM     27  O   UNL     1      34.354 -19.964 -24.518  0.00  0.00    -0.379 OA
ATOM     28  H   UNL     1      34.013 -19.664 -25.375  0.00  0.00    +0.211 HD
ENDBRANCH  22  27
BRANCH  23  29
ATOM     29  O   UNL     1      35.077 -20.237 -21.732  0.00  0.00    -0.379 OA
ATOM     30  H   UNL     1      35.133 -21.021 -22.299  0.00  0.00    +0.211 HD
ENDBRANCH  23  29
BRANCH  24  31
ATOM     31  O   UNL     1      33.062 -17.361 -24.998  0.00  0.00    -0.377 OA
ATOM     32  H   UNL     1      33.272 -16.892 -25.821  0.00  0.00    +0.211 HD
ENDBRANCH  24  31
BRANCH  25  33
ATOM     33  C   UNL     1      36.531 -17.911 -20.626  0.00  0.00    +0.169 C 
BRANCH  33  34
ATOM     34  O   UNL     1      37.569 -18.661 -21.229  0.00  0.00    -0.379 OA
ATOM     35  H   UNL     1      37.890 -19.328 -20.604  0.00  0.00    +0.211 HD
ENDBRANCH  33  34
ENDBRANCH  25  33
ENDBRANCH  20  26
ENDBRANCH   3  20
TORSDOF 9
ENDMDL
MODEL 9
REMARK VINA RESULT:      -9.6      2.874      4.274
REMARK  Name = 107971
REMARK  9 active torsions:
REMARK  status: ('A' for Active; 'I' for Inactive)
REMARK    1  A    between atoms: C_3  and  O_20
REMARK    2  A    between atoms: C_10  and  C_12
REMARK    3  A    between atoms: C_17  and  O_18
REMARK    4  A    between atoms: O_20  and  C_26
REMARK    5  A    between atoms: C_22  and  O_27
REMARK    6  A    between atoms: C_23  and  O_29
REMARK    7  A    between atoms: C_24  and  O_31
REMARK    8  A    between atoms: C_25  and  C_33
REMARK    9  A    between atoms: C_33  and  O_34
REMARK                            x       y       z     vdW  Elec       q    Type
REMARK                         _______ _______ _______ _____ _____    ______ ____
ROOT
ATOM      1  O   UNL     1      35.768 -21.143 -18.963  0.00  0.00    -0.450 OA
ATOM      2  O   UNL     1      32.213 -20.047 -20.637  0.00  0.00    -0.286 OA
ATOM      3  C   UNL     1      33.499 -22.888 -16.709  0.00  0.00    +0.144 C 
ATOM      4  C   UNL     1      34.667 -22.411 -17.303  0.00  0.00    +0.075 C 
ATOM      5  C   UNL     1      32.254 -22.537 -17.232  0.00  0.00    +0.037 C 
ATOM      6  C   UNL     1      34.587 -21.581 -18.421  0.00  0.00    +0.151 C 
ATOM      7  C   UNL     1      33.343 -21.230 -18.944  0.00  0.00    +0.074 C 
ATOM      8  C   UNL     1      32.171 -21.707 -18.350  0.00  0.00    +0.009 C 
ATOM      9  C   UNL     1      33.283 -20.355 -20.129  0.00  0.00    +0.202 C 
ATOM     10  C   UNL     1      34.588 -19.886 -20.673  0.00  0.00    +0.077 C 
ATOM     11  C   UNL     1      35.699 -20.312 -20.055  0.00  0.00    +0.183 C 
ENDROOT
BRANCH  10  12
ATOM     12  C   UNL     1      34.669 -18.978 -21.829  0.00  0.00    +0.006 C 
ATOM     13  C   UNL     1      35.231 -17.708 -21.685  0.00  0.00    +0.003 C 
ATOM     14  C   UNL     1      34.184 -19.385 -23.074  0.00  0.00    +0.003 C 
ATOM     15  C   UNL     1      35.308 -16.849 -22.781  0.00  0.00    +0.037 C 
ATOM     16  C   UNL     1      34.260 -18.525 -24.170  0.00  0.00    +0.037 C 
ATOM     17  C   UNL     1      34.822 -17.256 -24.023  0.00  0.00    +0.134 C 
BRANCH  17  18
ATOM     18  O   UNL     1      34.897 -16.417 -25.092  0.00  0.00    -0.506 OA
ATOM     19  H   UNL     1      34.833 -15.491 -24.965  0.00  0.00    +0.292 HD
ENDBRANCH  17  18
ENDBRANCH  10  12
BRANCH   3  20
ATOM     20  O   UNL     1      33.573 -23.698 -15.615  0.00  0.00    -0.450 OA
BRANCH  20  26
ATOM     21  O   UNL     1      31.258 -23.786 -15.884  0.00  0.00    -0.316 OA
ATOM     22  C   UNL     1      30.912 -24.944 -13.278  0.00  0.00    +0.173 C 
ATOM     23  C   UNL     1      29.744 -24.377 -14.084  0.00  0.00    +0.169 C 
ATOM     24  C   UNL     1      32.242 -24.346 -13.736  0.00  0.00    +0.210 C 
ATOM     25  C   UNL     1      30.031 -24.456 -15.586  0.00  0.00    +0.177 C 
ATOM     26  C   UNL     1      32.382 -24.399 -15.257  0.00  0.00    +0.318 C 
BRANCH  22  27
ATOM     27  O   UNL     1      30.696 -24.625 -11.902  0.00  0.00    -0.379 OA
ATOM     28  H   UNL     1      30.873 -23.683 -11.757  0.00  0.00    +0.211 HD
ENDBRANCH  22  27
BRANCH  23  29
ATOM     29  O   UNL     1      28.564 -25.120 -13.791  0.00  0.00    -0.379 OA
ATOM     30  H   UNL     1      27.954 -24.569 -13.277  0.00  0.00    +0.211 HD
ENDBRANCH  23  29
BRANCH  24  31
ATOM     31  O   UNL     1      33.318 -25.088 -13.163  0.00  0.00    -0.377 OA
ATOM     32  H   UNL     1      34.041 -25.159 -13.806  0.00  0.00    +0.211 HD
ENDBRANCH  24  31
BRANCH  25  33
ATOM     33  C   UNL     1      28.931 -23.790 -16.407  0.00  0.00    +0.169 C 
BRANCH  33  34
ATOM     34  O   UNL     1      29.190 -22.399 -16.461  0.00  0.00    -0.379 OA
ATOM     35  H   UNL     1      30.142 -22.252 -16.571  0.00  0.00    +0.211 HD
ENDBRANCH  33  34
ENDBRANCH  25  33
ENDBRANCH  20  26
ENDBRANCH   3  20
TORSDOF 9
ENDMDL
