MODEL 1
REMARK VINA RESULT:     -11.3      0.000      0.000
REMARK  Name = 445770
REMARK  5 active torsions:
REMARK  status: ('A' for Active; 'I' for Inactive)
REMARK    1  A    between atoms: N_2  and  C_17
REMARK    2  A    between atoms: C_3  and  C_5
REMARK    3  A    between atoms: C_6  and  S_11
REMARK    4  A    between atoms: S_11  and  N_14
REMARK    5  A    between atoms: C_17  and  C_23
REMARK                            x       y       z     vdW  Elec       q    Type
REMARK                         _______ _______ _______ _____ _____    ______ ____
ROOT
ATOM      1  O   UNL     1      37.311 -18.668 -21.160  0.00  0.00    -0.270 OA
ATOM      2  N   UNL     1      35.222 -18.074 -21.968  0.00  0.00    -0.297 N 
ATOM      3  C   UNL     1      36.079 -18.831 -21.162  0.00  0.00    +0.246 C 
ATOM      4  H   UNL     1      34.255 -18.256 -21.920  0.00  0.00    +0.150 HD
ENDROOT
BRANCH   3   5
ATOM      5  C   UNL     1      35.468 -19.855 -20.328  0.00  0.00    +0.053 C 
ATOM      6  C   UNL     1      34.298 -21.819 -18.730  0.00  0.00    +0.122 C 
ATOM      7  C   UNL     1      34.082 -20.007 -20.314  0.00  0.00    +0.006 C 
ATOM      8  C   UNL     1      36.270 -20.684 -19.543  0.00  0.00    +0.006 C 
ATOM      9  C   UNL     1      33.497 -20.989 -19.514  0.00  0.00    +0.020 C 
ATOM     10  C   UNL     1      35.684 -21.667 -18.744  0.00  0.00    +0.020 C 
BRANCH   6  11
ATOM     11  S   UNL     1      33.566 -23.049 -17.730  0.00  0.00    +0.057 S 
ATOM     12  O   UNL     1      34.257 -23.076 -16.449  0.00  0.00    -0.153 OA
ATOM     13  O   UNL     1      33.449 -24.270 -18.515  0.00  0.00    -0.153 OA
BRANCH  11  14
ATOM     14  N   UNL     1      32.005 -22.393 -17.498  0.00  0.00    -0.203 NA
ATOM     15  H   UNL     1      31.305 -23.055 -17.830  0.00  0.00    +0.144 HD
ATOM     16  H   UNL     1      31.922 -21.520 -18.020  0.00  0.00    +0.144 HD
ENDBRANCH  11  14
ENDBRANCH   6  11
ENDBRANCH   3   5
BRANCH   2  17
ATOM     17  C   UNL     1      35.678 -17.037 -22.867  0.00  0.00    +0.121 C 
BRANCH  17  23
ATOM     18  F   UNL     1      34.536 -15.798 -25.133  0.00  0.00    -0.202 F 
ATOM     19  F   UNL     1      35.086 -15.769 -20.417  0.00  0.00    -0.202 F 
ATOM     20  F   UNL     1      33.540 -13.529 -20.257  0.00  0.00    -0.199 F 
ATOM     21  F   UNL     1      32.987 -13.560 -24.960  0.00  0.00    -0.199 F 
ATOM     22  F   UNL     1      32.488 -12.422 -22.524  0.00  0.00    -0.199 F 
ATOM     23  C   UNL     1      34.823 -15.801 -22.776  0.00  0.00    +0.057 A 
ATOM     24  C   UNL     1      34.295 -15.248 -23.935  0.00  0.00    +0.170 A 
ATOM     25  C   UNL     1      34.575 -15.233 -21.535  0.00  0.00    +0.170 A 
ATOM     26  C   UNL     1      33.784 -14.088 -21.449  0.00  0.00    +0.197 A 
ATOM     27  C   UNL     1      33.504 -14.103 -23.849  0.00  0.00    +0.197 A 
ATOM     28  C   UNL     1      33.247 -13.522 -22.607  0.00  0.00    +0.199 A 
ENDBRANCH  17  23
ENDBRANCH   2  17
TORSDOF 5
ENDMDL
MODEL 2
REMARK VINA RESULT:     -11.3      0.017      2.129
REMARK  Name = 445770
REMARK  5 active torsions:
REMARK  status: ('A' for Active; 'I' for Inactive)
REMARK    1  A    between atoms: N_2  and  C_17
REMARK    2  A    between atoms: C_3  and  C_5
REMARK    3  A    between atoms: C_6  and  S_11
REMARK    4  A    between atoms: S_11  and  N_14
REMARK    5  A    between atoms: C_17  and  C_23
REMARK                            x       y       z     vdW  Elec       q    Type
REMARK                         _______ _______ _______ _____ _____    ______ ____
ROOT
ATOM      1  O   UNL     1      37.301 -18.639 -21.134  0.00  0.00    -0.270 OA
ATOM      2  N   UNL     1      35.217 -18.090 -21.988  0.00  0.00    -0.297 N 
ATOM      3  C   UNL     1      36.072 -18.825 -21.158  0.00  0.00    +0.246 C 
ATOM      4  H   UNL     1      34.253 -18.289 -21.958  0.00  0.00    +0.150 HD
ENDROOT
BRANCH   3   5
ATOM      5  C   UNL     1      35.463 -19.852 -20.328  0.00  0.00    +0.053 C 
ATOM      6  C   UNL     1      34.296 -21.822 -18.735  0.00  0.00    +0.122 C 
ATOM      7  C   UNL     1      34.077 -20.006 -20.313  0.00  0.00    +0.006 C 
ATOM      8  C   UNL     1      36.266 -20.682 -19.546  0.00  0.00    +0.006 C 
ATOM      9  C   UNL     1      33.493 -20.991 -19.516  0.00  0.00    +0.020 C 
ATOM     10  C   UNL     1      35.682 -21.668 -18.750  0.00  0.00    +0.020 C 
BRANCH   6  11
ATOM     11  S   UNL     1      33.566 -23.056 -17.739  0.00  0.00    +0.057 S 
ATOM     12  O   UNL     1      34.252 -23.080 -16.454  0.00  0.00    -0.153 OA
ATOM     13  O   UNL     1      33.459 -24.277 -18.524  0.00  0.00    -0.153 OA
BRANCH  11  14
ATOM     14  N   UNL     1      32.001 -22.408 -17.513  0.00  0.00    -0.203 NA
ATOM     15  H   UNL     1      31.995 -21.814 -16.684  0.00  0.00    +0.144 HD
ATOM     16  H   UNL     1      31.332 -23.169 -17.391  0.00  0.00    +0.144 HD
ENDBRANCH  11  14
ENDBRANCH   6  11
ENDBRANCH   3   5
BRANCH   2  17
ATOM     17  C   UNL     1      35.673 -17.053 -22.887  0.00  0.00    +0.121 C 
BRANCH  17  23
ATOM     18  F   UNL     1      35.094 -15.785 -20.431  0.00  0.00    -0.202 F 
ATOM     19  F   UNL     1      34.529 -15.806 -25.145  0.00  0.00    -0.202 F 
ATOM     20  F   UNL     1      32.989 -13.563 -24.964  0.00  0.00    -0.199 F 
ATOM     21  F   UNL     1      33.556 -13.540 -20.262  0.00  0.00    -0.199 F 
ATOM     22  F   UNL     1      32.502 -12.426 -22.526  0.00  0.00    -0.199 F 
ATOM     23  C   UNL     1      34.824 -15.814 -22.789  0.00  0.00    +0.057 A 
ATOM     24  C   UNL     1      34.582 -15.246 -21.546  0.00  0.00    +0.170 A 
ATOM     25  C   UNL     1      34.295 -15.257 -23.945  0.00  0.00    +0.170 A 
ATOM     26  C   UNL     1      33.508 -14.108 -23.856  0.00  0.00    +0.197 A 
ATOM     27  C   UNL     1      33.795 -14.098 -21.457  0.00  0.00    +0.197 A 
ATOM     28  C   UNL     1      33.257 -13.529 -22.611  0.00  0.00    +0.199 A 
ENDBRANCH  17  23
ENDBRANCH   2  17
TORSDOF 5
ENDMDL
MODEL 3
REMARK VINA RESULT:     -10.5      4.272      6.462
REMARK  Name = 445770
REMARK  5 active torsions:
REMARK  status: ('A' for Active; 'I' for Inactive)
REMARK    1  A    between atoms: N_2  and  C_17
REMARK    2  A    between atoms: C_3  and  C_5
REMARK    3  A    between atoms: C_6  and  S_11
REMARK    4  A    between atoms: S_11  and  N_14
REMARK    5  A    between atoms: C_17  and  C_23
REMARK                            x       y       z     vdW  Elec       q    Type
REMARK                         _______ _______ _______ _____ _____    ______ ____
ROOT
ATOM      1  O   UNL     1      33.037 -13.490 -25.449  0.00  0.00    -0.270 OA
ATOM      2  N   UNL     1      33.851 -12.225 -23.685  0.00  0.00    -0.297 N 
ATOM      3  C   UNL     1      33.638 -13.432 -24.362  0.00  0.00    +0.246 C 
ATOM      4  H   UNL     1      34.334 -12.251 -22.827  0.00  0.00    +0.150 HD
ENDROOT
BRANCH   3   5
ATOM      5  C   UNL     1      34.130 -14.643 -23.724  0.00  0.00    +0.053 C 
ATOM      6  C   UNL     1      35.073 -16.965 -22.500  0.00  0.00    +0.122 C 
ATOM      7  C   UNL     1      34.464 -14.631 -22.370  0.00  0.00    +0.006 C 
ATOM      8  C   UNL     1      34.268 -15.815 -24.467  0.00  0.00    +0.006 C 
ATOM      9  C   UNL     1      34.936 -15.792 -21.758  0.00  0.00    +0.020 C 
ATOM     10  C   UNL     1      34.739 -16.977 -23.855  0.00  0.00    +0.020 C 
BRANCH   6  11
ATOM     11  S   UNL     1      35.662 -18.419 -21.735  0.00  0.00    +0.057 S 
ATOM     12  O   UNL     1      35.015 -19.565 -22.357  0.00  0.00    -0.153 OA
ATOM     13  O   UNL     1      35.586 -18.242 -20.291  0.00  0.00    -0.153 OA
BRANCH  11  14
ATOM     14  N   UNL     1      37.305 -18.393 -22.207  0.00  0.00    -0.203 NA
ATOM     15  H   UNL     1      37.603 -19.337 -22.451  0.00  0.00    +0.144 HD
ATOM     16  H   UNL     1      37.874 -18.045 -21.435  0.00  0.00    +0.144 HD
ENDBRANCH  11  14
ENDBRANCH   6  11
ENDBRANCH   3   5
BRANCH   2  17
ATOM     17  C   UNL     1      33.401 -10.942 -24.178  0.00  0.00    +0.121 C 
BRANCH  17  23
ATOM     18  F   UNL     1      34.447  -8.324 -24.004  0.00  0.00    -0.202 F 
ATOM     19  F   UNL     1      31.661 -11.648 -22.072  0.00  0.00    -0.202 F 
ATOM     20  F   UNL     1      31.045  -9.940 -20.038  0.00  0.00    -0.199 F 
ATOM     21  F   UNL     1      33.820  -6.623 -21.968  0.00  0.00    -0.199 F 
ATOM     22  F   UNL     1      32.120  -7.428 -19.982  0.00  0.00    -0.199 F 
ATOM     23  C   UNL     1      33.059 -10.000 -23.055  0.00  0.00    +0.057 A 
ATOM     24  C   UNL     1      33.612  -8.726 -23.037  0.00  0.00    +0.170 A 
ATOM     25  C   UNL     1      32.194 -10.418 -22.053  0.00  0.00    +0.170 A 
ATOM     26  C   UNL     1      31.876  -9.547 -21.012  0.00  0.00    +0.197 A 
ATOM     27  C   UNL     1      33.294  -7.855 -21.995  0.00  0.00    +0.197 A 
ATOM     28  C   UNL     1      32.426  -8.264 -20.982  0.00  0.00    +0.199 A 
ENDBRANCH  17  23
ENDBRANCH   2  17
TORSDOF 5
ENDMDL
MODEL 4
REMARK VINA RESULT:     -10.4      4.274      6.548
REMARK  Name = 445770
REMARK  5 active torsions:
REMARK  status: ('A' for Active; 'I' for Inactive)
REMARK    1  A    between atoms: N_2  and  C_17
REMARK    2  A    between atoms: C_3  and  C_5
REMARK    3  A    between atoms: C_6  and  S_11
REMARK    4  A    between atoms: S_11  and  N_14
REMARK    5  A    between atoms: C_17  and  C_23
REMARK                            x       y       z     vdW  Elec       q    Type
REMARK                         _______ _______ _______ _____ _____    ______ ____
ROOT
ATOM      1  O   UNL     1      33.054 -13.498 -25.452  0.00  0.00    -0.270 OA
ATOM      2  N   UNL     1      33.824 -12.248 -23.659  0.00  0.00    -0.297 N 
ATOM      3  C   UNL     1      33.636 -13.447 -24.355  0.00  0.00    +0.246 C 
ATOM      4  H   UNL     1      34.294 -12.280 -22.793  0.00  0.00    +0.150 HD
ENDROOT
BRANCH   3   5
ATOM      5  C   UNL     1      34.132 -14.661 -23.725  0.00  0.00    +0.053 C 
ATOM      6  C   UNL     1      35.082 -16.988 -22.516  0.00  0.00    +0.122 C 
ATOM      7  C   UNL     1      34.288 -15.824 -24.478  0.00  0.00    +0.006 C 
ATOM      8  C   UNL     1      34.450 -14.661 -22.366  0.00  0.00    +0.006 C 
ATOM      9  C   UNL     1      34.763 -16.988 -23.874  0.00  0.00    +0.020 C 
ATOM     10  C   UNL     1      34.926 -15.825 -21.762  0.00  0.00    +0.020 C 
BRANCH   6  11
ATOM     11  S   UNL     1      35.678 -18.445 -21.760  0.00  0.00    +0.057 S 
ATOM     12  O   UNL     1      35.067 -19.591 -22.417  0.00  0.00    -0.153 OA
ATOM     13  O   UNL     1      35.563 -18.293 -20.316  0.00  0.00    -0.153 OA
BRANCH  11  14
ATOM     14  N   UNL     1      37.331 -18.382 -22.190  0.00  0.00    -0.203 NA
ATOM     15  H   UNL     1      37.597 -17.416 -22.378  0.00  0.00    +0.144 HD
ATOM     16  H   UNL     1      37.486 -18.947 -23.025  0.00  0.00    +0.144 HD
ENDBRANCH  11  14
ENDBRANCH   6  11
ENDBRANCH   3   5
BRANCH   2  17
ATOM     17  C   UNL     1      33.368 -10.963 -24.141  0.00  0.00    +0.121 C 
BRANCH  17  23
ATOM     18  F   UNL     1      31.606 -11.676 -22.053  0.00  0.00    -0.202 F 
ATOM     19  F   UNL     1      34.431  -8.358 -23.937  0.00  0.00    -0.202 F 
ATOM     20  F   UNL     1      33.803  -6.670 -21.889  0.00  0.00    -0.199 F 
ATOM     21  F   UNL     1      30.988  -9.981 -20.009  0.00  0.00    -0.199 F 
ATOM     22  F   UNL     1      32.084  -7.477 -19.924  0.00  0.00    -0.199 F 
ATOM     23  C   UNL     1      33.024 -10.031 -23.011  0.00  0.00    +0.057 A 
ATOM     24  C   UNL     1      32.149 -10.451 -22.019  0.00  0.00    +0.170 A 
ATOM     25  C   UNL     1      33.587  -8.762 -22.978  0.00  0.00    +0.170 A 
ATOM     26  C   UNL     1      33.268  -7.897 -21.931  0.00  0.00    +0.197 A 
ATOM     27  C   UNL     1      31.830  -9.585 -20.973  0.00  0.00    +0.197 A 
ATOM     28  C   UNL     1      32.389  -8.308 -20.928  0.00  0.00    +0.199 A 
ENDBRANCH  17  23
ENDBRANCH   2  17
TORSDOF 5
ENDMDL
MODEL 5
REMARK VINA RESULT:      -9.9      5.072      8.385
REMARK  Name = 445770
REMARK  5 active torsions:
REMARK  status: ('A' for Active; 'I' for Inactive)
REMARK    1  A    between atoms: N_2  and  C_17
REMARK    2  A    between atoms: C_3  and  C_5
REMARK    3  A    between atoms: C_6  and  S_11
REMARK    4  A    between atoms: S_11  and  N_14
REMARK    5  A    between atoms: C_17  and  C_23
REMARK                            x       y       z     vdW  Elec       q    Type
REMARK                         _______ _______ _______ _____ _____    ______ ____
ROOT
ATOM      1  O   UNL     1      34.177 -17.421 -24.753  0.00  0.00    -0.270 OA
ATOM      2  N   UNL     1      35.528 -17.243 -22.878  0.00  0.00    -0.297 N 
ATOM      3  C   UNL     1      34.652 -16.725 -23.839  0.00  0.00    +0.246 C 
ATOM      4  H   UNL     1      35.868 -16.636 -22.181  0.00  0.00    +0.150 HD
ENDROOT
BRANCH   3   5
ATOM      5  C   UNL     1      34.332 -15.310 -23.745  0.00  0.00    +0.053 C 
ATOM      6  C   UNL     1      33.717 -12.595 -23.565  0.00  0.00    +0.122 C 
ATOM      7  C   UNL     1      34.543 -14.625 -22.548  0.00  0.00    +0.006 C 
ATOM      8  C   UNL     1      33.812 -14.638 -24.852  0.00  0.00    +0.006 C 
ATOM      9  C   UNL     1      34.235 -13.267 -22.459  0.00  0.00    +0.020 C 
ATOM     10  C   UNL     1      33.505 -13.280 -24.762  0.00  0.00    +0.020 C 
BRANCH   6  11
ATOM     11  S   UNL     1      33.333 -10.895 -23.453  0.00  0.00    +0.057 S 
ATOM     12  O   UNL     1      32.561 -10.674 -22.239  0.00  0.00    -0.153 OA
ATOM     13  O   UNL     1      32.802 -10.458 -24.737  0.00  0.00    -0.153 OA
BRANCH  11  14
ATOM     14  N   UNL     1      34.890 -10.223 -23.244  0.00  0.00    -0.203 NA
ATOM     15  H   UNL     1      34.940  -9.325 -23.725  0.00  0.00    +0.144 HD
ATOM     16  H   UNL     1      35.589 -10.856 -23.634  0.00  0.00    +0.144 HD
ENDBRANCH  11  14
ENDBRANCH   6  11
ENDBRANCH   3   5
BRANCH   2  17
ATOM     17  C   UNL     1      35.961 -18.623 -22.852  0.00  0.00    +0.121 C 
BRANCH  17  23
ATOM     18  F   UNL     1      33.227 -19.293 -22.620  0.00  0.00    -0.202 F 
ATOM     19  F   UNL     1      37.557 -19.455 -20.679  0.00  0.00    -0.202 F 
ATOM     20  F   UNL     1      36.537 -20.793 -18.533  0.00  0.00    -0.199 F 
ATOM     21  F   UNL     1      32.219 -20.635 -20.472  0.00  0.00    -0.199 F 
ATOM     22  F   UNL     1      33.871 -21.386 -18.426  0.00  0.00    -0.199 F 
ATOM     23  C   UNL     1      35.400 -19.363 -21.667  0.00  0.00    +0.057 A 
ATOM     24  C   UNL     1      34.044 -19.658 -21.623  0.00  0.00    +0.170 A 
ATOM     25  C   UNL     1      36.248 -19.741 -20.635  0.00  0.00    +0.170 A 
ATOM     26  C   UNL     1      35.730 -20.426 -19.536  0.00  0.00    +0.197 A 
ATOM     27  C   UNL     1      33.526 -20.343 -20.524  0.00  0.00    +0.197 A 
ATOM     28  C   UNL     1      34.368 -20.728 -19.481  0.00  0.00    +0.199 A 
ENDBRANCH  17  23
ENDBRANCH   2  17
TORSDOF 5
ENDMDL
MODEL 6
REMARK VINA RESULT:      -9.9      5.071      8.519
REMARK  Name = 445770
REMARK  5 active torsions:
REMARK  status: ('A' for Active; 'I' for Inactive)
REMARK    1  A    between atoms: N_2  and  C_17
REMARK    2  A    between atoms: C_3  and  C_5
REMARK    3  A    between atoms: C_6  and  S_11
REMARK    4  A    between atoms: S_11  and  N_14
REMARK    5  A    between atoms: C_17  and  C_23
REMARK                            x       y       z     vdW  Elec       q    Type
REMARK                         _______ _______ _______ _____ _____    ______ ____
ROOT
ATOM      1  O   UNL     1      34.146 -17.448 -24.726  0.00  0.00    -0.270 OA
ATOM      2  N   UNL     1      35.542 -17.260 -22.885  0.00  0.00    -0.297 N 
ATOM      3  C   UNL     1      34.644 -16.747 -23.828  0.00  0.00    +0.246 C 
ATOM      4  H   UNL     1      35.899 -16.648 -22.200  0.00  0.00    +0.150 HD
ENDROOT
BRANCH   3   5
ATOM      5  C   UNL     1      34.328 -15.330 -23.736  0.00  0.00    +0.053 C 
ATOM      6  C   UNL     1      33.721 -12.613 -23.560  0.00  0.00    +0.122 C 
ATOM      7  C   UNL     1      34.548 -14.642 -22.542  0.00  0.00    +0.006 C 
ATOM      8  C   UNL     1      33.804 -14.660 -24.842  0.00  0.00    +0.006 C 
ATOM      9  C   UNL     1      34.244 -13.284 -22.455  0.00  0.00    +0.020 C 
ATOM     10  C   UNL     1      33.501 -13.300 -24.754  0.00  0.00    +0.020 C 
BRANCH   6  11
ATOM     11  S   UNL     1      33.343 -10.912 -23.451  0.00  0.00    +0.057 S 
ATOM     12  O   UNL     1      32.578 -10.685 -22.232  0.00  0.00    -0.153 OA
ATOM     13  O   UNL     1      32.806 -10.477 -24.733  0.00  0.00    -0.153 OA
BRANCH  11  14
ATOM     14  N   UNL     1      34.903 -10.244 -23.253  0.00  0.00    -0.203 NA
ATOM     15  H   UNL     1      35.276  -9.975 -24.163  0.00  0.00    +0.144 HD
ATOM     16  H   UNL     1      35.517 -10.936 -22.824  0.00  0.00    +0.144 HD
ENDBRANCH  11  14
ENDBRANCH   6  11
ENDBRANCH   3   5
BRANCH   2  17
ATOM     17  C   UNL     1      35.973 -18.640 -22.859  0.00  0.00    +0.121 C 
BRANCH  17  23
ATOM     18  F   UNL     1      37.587 -19.439 -20.684  0.00  0.00    -0.202 F 
ATOM     19  F   UNL     1      33.249 -19.334 -22.611  0.00  0.00    -0.202 F 
ATOM     20  F   UNL     1      32.263 -20.668 -20.448  0.00  0.00    -0.199 F 
ATOM     21  F   UNL     1      36.589 -20.769 -18.524  0.00  0.00    -0.199 F 
ATOM     22  F   UNL     1      33.927 -21.386 -18.402  0.00  0.00    -0.199 F 
ATOM     23  C   UNL     1      35.426 -19.375 -21.665  0.00  0.00    +0.057 A 
ATOM     24  C   UNL     1      36.281 -19.736 -20.632  0.00  0.00    +0.170 A 
ATOM     25  C   UNL     1      34.074 -19.682 -21.613  0.00  0.00    +0.170 A 
ATOM     26  C   UNL     1      33.565 -20.364 -20.508  0.00  0.00    +0.197 A 
ATOM     27  C   UNL     1      35.773 -20.418 -19.527  0.00  0.00    +0.197 A 
ATOM     28  C   UNL     1      34.415 -20.732 -19.464  0.00  0.00    +0.199 A 
ENDBRANCH  17  23
ENDBRANCH   2  17
TORSDOF 5
ENDMDL
MODEL 7
REMARK VINA RESULT:      -9.8      6.260     10.122
REMARK  Name = 445770
REMARK  5 active torsions:
REMARK  status: ('A' for Active; 'I' for Inactive)
REMARK    1  A    between atoms: N_2  and  C_17
REMARK    2  A    between atoms: C_3  and  C_5
REMARK    3  A    between atoms: C_6  and  S_11
REMARK    4  A    between atoms: S_11  and  N_14
REMARK    5  A    between atoms: C_17  and  C_23
REMARK                            x       y       z     vdW  Elec       q    Type
REMARK                         _______ _______ _______ _____ _____    ______ ____
ROOT
ATOM      1  O   UNL     1      33.484 -23.897 -18.337  0.00  0.00    -0.270 OA
ATOM      2  N   UNL     1      34.111 -22.628 -16.501  0.00  0.00    -0.297 N 
ATOM      3  C   UNL     1      33.965 -22.847 -17.875  0.00  0.00    +0.246 C 
ATOM      4  H   UNL     1      34.501 -21.773 -16.203  0.00  0.00    +0.150 HD
ENDROOT
BRANCH   3   5
ATOM      5  C   UNL     1      34.429 -21.793 -18.765  0.00  0.00    +0.053 C 
ATOM      6  C   UNL     1      35.320 -19.774 -20.470  0.00  0.00    +0.122 C 
ATOM      7  C   UNL     1      33.508 -21.031 -19.483  0.00  0.00    +0.006 C 
ATOM      8  C   UNL     1      35.796 -21.547 -18.899  0.00  0.00    +0.006 C 
ATOM      9  C   UNL     1      33.954 -20.021 -20.335  0.00  0.00    +0.020 C 
ATOM     10  C   UNL     1      36.241 -20.536 -19.751  0.00  0.00    +0.020 C 
BRANCH   6  11
ATOM     11  S   UNL     1      35.877 -18.509 -21.536  0.00  0.00    +0.057 S 
ATOM     12  O   UNL     1      35.436 -17.227 -21.004  0.00  0.00    -0.153 OA
ATOM     13  O   UNL     1      35.540 -18.878 -22.903  0.00  0.00    -0.153 OA
BRANCH  11  14
ATOM     14  N   UNL     1      37.569 -18.634 -21.333  0.00  0.00    -0.203 NA
ATOM     15  H   UNL     1      37.925 -17.780 -20.904  0.00  0.00    +0.144 HD
ATOM     16  H   UNL     1      38.012 -18.768 -22.242  0.00  0.00    +0.144 HD
ENDBRANCH  11  14
ENDBRANCH   6  11
ENDBRANCH   3   5
BRANCH   2  17
ATOM     17  C   UNL     1      33.720 -23.588 -15.492  0.00  0.00    +0.121 C 
BRANCH  17  23
ATOM     18  F   UNL     1      36.457 -23.209 -16.081  0.00  0.00    -0.202 F 
ATOM     19  F   UNL     1      33.198 -24.421 -12.848  0.00  0.00    -0.202 F 
ATOM     20  F   UNL     1      35.176 -24.828 -11.016  0.00  0.00    -0.199 F 
ATOM     21  F   UNL     1      38.426 -23.615 -14.240  0.00  0.00    -0.199 F 
ATOM     22  F   UNL     1      37.790 -24.425 -11.707  0.00  0.00    -0.199 F 
ATOM     23  C   UNL     1      34.811 -23.812 -14.479  0.00  0.00    +0.057 A 
ATOM     24  C   UNL     1      36.135 -23.605 -14.842  0.00  0.00    +0.170 A 
ATOM     25  C   UNL     1      34.477 -24.222 -13.196  0.00  0.00    +0.170 A 
ATOM     26  C   UNL     1      35.486 -24.430 -12.256  0.00  0.00    +0.197 A 
ATOM     27  C   UNL     1      37.144 -23.813 -13.902  0.00  0.00    +0.197 A 
ATOM     28  C   UNL     1      36.821 -24.225 -12.609  0.00  0.00    +0.199 A 
ENDBRANCH  17  23
ENDBRANCH   2  17
TORSDOF 5
ENDMDL
MODEL 8
REMARK VINA RESULT:      -9.8      6.259     10.253
REMARK  Name = 445770
REMARK  5 active torsions:
REMARK  status: ('A' for Active; 'I' for Inactive)
REMARK    1  A    between atoms: N_2  and  C_17
REMARK    2  A    between atoms: C_3  and  C_5
REMARK    3  A    between atoms: C_6  and  S_11
REMARK    4  A    between atoms: S_11  and  N_14
REMARK    5  A    between atoms: C_17  and  C_23
REMARK                            x       y       z     vdW  Elec       q    Type
REMARK                         _______ _______ _______ _____ _____    ______ ____
ROOT
ATOM      1  O   UNL     1      33.487 -23.895 -18.332  0.00  0.00    -0.270 OA
ATOM      2  N   UNL     1      34.114 -22.626 -16.497  0.00  0.00    -0.297 N 
ATOM      3  C   UNL     1      33.968 -22.846 -17.871  0.00  0.00    +0.246 C 
ATOM      4  H   UNL     1      34.504 -21.772 -16.199  0.00  0.00    +0.150 HD
ENDROOT
BRANCH   3   5
ATOM      5  C   UNL     1      34.432 -21.793 -18.761  0.00  0.00    +0.053 C 
ATOM      6  C   UNL     1      35.323 -19.773 -20.466  0.00  0.00    +0.122 C 
ATOM      7  C   UNL     1      33.511 -21.030 -19.479  0.00  0.00    +0.006 C 
ATOM      8  C   UNL     1      35.799 -21.547 -18.895  0.00  0.00    +0.006 C 
ATOM      9  C   UNL     1      33.957 -20.021 -20.332  0.00  0.00    +0.020 C 
ATOM     10  C   UNL     1      36.244 -20.536 -19.748  0.00  0.00    +0.020 C 
BRANCH   6  11
ATOM     11  S   UNL     1      35.881 -18.509 -21.533  0.00  0.00    +0.057 S 
ATOM     12  O   UNL     1      35.440 -17.227 -21.001  0.00  0.00    -0.153 OA
ATOM     13  O   UNL     1      35.544 -18.879 -22.900  0.00  0.00    -0.153 OA
BRANCH  11  14
ATOM     14  N   UNL     1      37.573 -18.635 -21.330  0.00  0.00    -0.203 NA
ATOM     15  H   UNL     1      37.781 -18.895 -20.366  0.00  0.00    +0.144 HD
ATOM     16  H   UNL     1      38.008 -17.737 -21.542  0.00  0.00    +0.144 HD
ENDBRANCH  11  14
ENDBRANCH   6  11
ENDBRANCH   3   5
BRANCH   2  17
ATOM     17  C   UNL     1      33.723 -23.586 -15.488  0.00  0.00    +0.121 C 
BRANCH  17  23
ATOM     18  F   UNL     1      33.200 -24.420 -12.841  0.00  0.00    -0.202 F 
ATOM     19  F   UNL     1      36.456 -23.198 -16.074  0.00  0.00    -0.202 F 
ATOM     20  F   UNL     1      38.425 -23.595 -14.230  0.00  0.00    -0.199 F 
ATOM     21  F   UNL     1      35.178 -24.818 -11.007  0.00  0.00    -0.199 F 
ATOM     22  F   UNL     1      37.792 -24.405 -11.698  0.00  0.00    -0.199 F 
ATOM     23  C   UNL     1      34.812 -23.806 -14.472  0.00  0.00    +0.057 A 
ATOM     24  C   UNL     1      34.478 -24.217 -13.188  0.00  0.00    +0.170 A 
ATOM     25  C   UNL     1      36.135 -23.595 -14.834  0.00  0.00    +0.170 A 
ATOM     26  C   UNL     1      37.145 -23.798 -13.894  0.00  0.00    +0.197 A 
ATOM     27  C   UNL     1      35.488 -24.420 -12.249  0.00  0.00    +0.197 A 
ATOM     28  C   UNL     1      36.822 -24.211 -12.600  0.00  0.00    +0.199 A 
ENDBRANCH  17  23
ENDBRANCH   2  17
TORSDOF 5
ENDMDL
MODEL 9
REMARK VINA RESULT:      -9.8      6.453     10.415
REMARK  Name = 445770
REMARK  5 active torsions:
REMARK  status: ('A' for Active; 'I' for Inactive)
REMARK    1  A    between atoms: N_2  and  C_17
REMARK    2  A    between atoms: C_3  and  C_5
REMARK    3  A    between atoms: C_6  and  S_11
REMARK    4  A    between atoms: S_11  and  N_14
REMARK    5  A    between atoms: C_17  and  C_23
REMARK                            x       y       z     vdW  Elec       q    Type
REMARK                         _______ _______ _______ _____ _____    ______ ____
ROOT
ATOM      1  O   UNL     1      33.403 -23.809 -18.127  0.00  0.00    -0.270 OA
ATOM      2  N   UNL     1      34.724 -22.894 -16.456  0.00  0.00    -0.297 N 
ATOM      3  C   UNL     1      34.182 -22.918 -17.746  0.00  0.00    +0.246 C 
ATOM      4  H   UNL     1      35.336 -22.159 -16.221  0.00  0.00    +0.150 HD
ENDROOT
BRANCH   3   5
ATOM      5  C   UNL     1      34.591 -21.857 -18.654  0.00  0.00    +0.053 C 
ATOM      6  C   UNL     1      35.375 -19.823 -20.394  0.00  0.00    +0.122 C 
ATOM      7  C   UNL     1      33.632 -21.157 -19.385  0.00  0.00    +0.006 C 
ATOM      8  C   UNL     1      35.943 -21.542 -18.793  0.00  0.00    +0.006 C 
ATOM      9  C   UNL     1      34.024 -20.140 -20.256  0.00  0.00    +0.020 C 
ATOM     10  C   UNL     1      36.335 -20.524 -19.663  0.00  0.00    +0.020 C 
BRANCH   6  11
ATOM     11  S   UNL     1      35.867 -18.550 -21.482  0.00  0.00    +0.057 S 
ATOM     12  O   UNL     1      35.394 -17.279 -20.951  0.00  0.00    -0.153 OA
ATOM     13  O   UNL     1      35.513 -18.942 -22.839  0.00  0.00    -0.153 OA
BRANCH  11  14
ATOM     14  N   UNL     1      37.566 -18.617 -21.316  0.00  0.00    -0.203 NA
ATOM     15  H   UNL     1      38.004 -18.161 -22.116  0.00  0.00    +0.144 HD
ATOM     16  H   UNL     1      37.865 -19.591 -21.273  0.00  0.00    +0.144 HD
ENDBRANCH  11  14
ENDBRANCH   6  11
ENDBRANCH   3   5
BRANCH   2  17
ATOM     17  C   UNL     1      34.434 -23.890 -15.449  0.00  0.00    +0.121 C 
BRANCH  17  23
ATOM     18  F   UNL     1      35.595 -21.938 -13.770  0.00  0.00    -0.202 F 
ATOM     19  F   UNL     1      35.699 -26.411 -15.360  0.00  0.00    -0.202 F 
ATOM     20  F   UNL     1      37.865 -26.914 -13.782  0.00  0.00    -0.199 F 
ATOM     21  F   UNL     1      37.758 -22.454 -12.194  0.00  0.00    -0.199 F 
ATOM     22  F   UNL     1      38.897 -24.940 -12.198  0.00  0.00    -0.199 F 
ATOM     23  C   UNL     1      35.629 -24.170 -14.578  0.00  0.00    +0.057 A 
ATOM     24  C   UNL     1      36.145 -23.160 -13.777  0.00  0.00    +0.170 A 
ATOM     25  C   UNL     1      36.198 -25.436 -14.587  0.00  0.00    +0.170 A 
ATOM     26  C   UNL     1      37.306 -25.697 -13.780  0.00  0.00    +0.197 A 
ATOM     27  C   UNL     1      37.253 -23.421 -12.972  0.00  0.00    +0.197 A 
ATOM     28  C   UNL     1      37.834 -24.689 -12.972  0.00  0.00    +0.199 A 
ENDBRANCH  17  23
ENDBRANCH   2  17
TORSDOF 5
ENDMDL
