MODEL 1
REMARK VINA RESULT:     -12.0      0.000      0.000
REMARK  Name = 448384
REMARK  11 active torsions:
REMARK  status: ('A' for Active; 'I' for Inactive)
REMARK    1  A    between atoms: C_1  and  C_3
REMARK    2  A    between atoms: C_1  and  C_6
REMARK    3  A    between atoms: C_1  and  C_19
REMARK    4  A    between atoms: C_3  and  O_4
REMARK    5  A    between atoms: C_6  and  C_7
REMARK    6  A    between atoms: C_7  and  N_10
REMARK    7  A    between atoms: C_19  and  C_21
REMARK    8  A    between atoms: C_21  and  C_22
REMARK    9  A    between atoms: C_25  and  C_28
REMARK   10  A    between atoms: C_33  and  O_34
REMARK   11  A    between atoms: O_34  and  C_35
REMARK                            x       y       z     vdW  Elec       q    Type
REMARK                         _______ _______ _______ _____ _____    ______ ____
ROOT
ATOM      1  C   UNL     1      32.381 -22.799 -15.783  0.00  0.00    +0.108 C 
ENDROOT
BRANCH   1   3
ATOM      2  O   UNL     1      30.376 -24.167 -15.611  0.00  0.00    -0.250 OA
ATOM      3  C   UNL     1      30.927 -23.165 -16.048  0.00  0.00    +0.314 C 
BRANCH   3   4
ATOM      4  O   UNL     1      30.288 -22.254 -16.824  0.00  0.00    -0.480 OA
ATOM      5  H   UNL     1      29.636 -22.536 -17.434  0.00  0.00    +0.295 HD
ENDBRANCH   3   4
ENDBRANCH   1   3
BRANCH   1   6
ATOM      6  C   UNL     1      32.779 -23.209 -14.350  0.00  0.00    +0.034 C 
BRANCH   6   7
ATOM      7  C   UNL     1      33.303 -24.642 -14.240  0.00  0.00    +0.102 C 
BRANCH   7  10
ATOM      8  O   UNL     1      35.646 -26.002 -15.481  0.00  0.00    -0.269 OA
ATOM      9  O   UNL     1      34.503 -23.481 -11.766  0.00  0.00    -0.269 OA
ATOM     10  N   UNL     1      34.657 -24.715 -13.771  0.00  0.00    -0.223 N 
ATOM     11  C   UNL     1      35.677 -25.379 -14.436  0.00  0.00    +0.255 C 
ATOM     12  C   UNL     1      35.109 -24.130 -12.597  0.00  0.00    +0.255 C 
ATOM     13  C   UNL     1      36.880 -25.195 -13.624  0.00  0.00    +0.058 C 
ATOM     14  C   UNL     1      36.537 -24.439 -12.512  0.00  0.00    +0.058 C 
ATOM     15  C   UNL     1      38.167 -25.646 -13.831  0.00  0.00    +0.005 C 
ATOM     16  C   UNL     1      37.462 -24.096 -11.550  0.00  0.00    +0.005 C 
ATOM     17  C   UNL     1      39.122 -25.310 -12.868  0.00  0.00    +0.000 C 
ATOM     18  C   UNL     1      38.773 -24.542 -11.738  0.00  0.00    +0.000 C 
ENDBRANCH   7  10
ENDBRANCH   6   7
ENDBRANCH   1   6
BRANCH   1  19
ATOM     19  C   UNL     1      33.264 -23.527 -16.815  0.00  0.00    +0.080 C 
BRANCH  19  21
ATOM     20  O   UNL     1      35.581 -22.958 -16.427  0.00  0.00    -0.291 OA
ATOM     21  C   UNL     1      34.570 -22.795 -17.105  0.00  0.00    +0.174 C 
BRANCH  21  22
ATOM     22  C   UNL     1      34.613 -21.838 -18.250  0.00  0.00    +0.035 C 
ATOM     23  C   UNL     1      35.840 -21.407 -18.754  0.00  0.00    +0.003 C 
ATOM     24  C   UNL     1      33.424 -21.376 -18.816  0.00  0.00    +0.003 C 
ATOM     25  C   UNL     1      34.689 -20.051 -20.390  0.00  0.00    +0.000 C 
ATOM     26  C   UNL     1      35.878 -20.513 -19.824  0.00  0.00    +0.000 C 
ATOM     27  C   UNL     1      33.463 -20.482 -19.886  0.00  0.00    +0.000 C 
BRANCH  25  28
ATOM     28  C   UNL     1      34.728 -19.122 -21.499  0.00  0.00    +0.000 C 
ATOM     29  C   UNL     1      35.354 -17.884 -21.349  0.00  0.00    +0.003 C 
ATOM     30  C   UNL     1      34.140 -19.464 -22.717  0.00  0.00    +0.003 C 
ATOM     31  C   UNL     1      35.390 -16.988 -22.418  0.00  0.00    +0.037 C 
ATOM     32  C   UNL     1      34.177 -18.568 -23.784  0.00  0.00    +0.037 C 
ATOM     33  C   UNL     1      34.801 -17.329 -23.635  0.00  0.00    +0.139 C 
BRANCH  33  34
ATOM     34  O   UNL     1      34.839 -16.455 -24.678  0.00  0.00    -0.475 OA
BRANCH  34  35
ATOM     35  C   UNL     1      33.839 -15.438 -24.710  0.00  0.00    +0.206 C 
ATOM     36  C   UNL     1      34.092 -14.462 -23.580  0.00  0.00    +0.051 C 
ENDBRANCH  34  35
ENDBRANCH  33  34
ENDBRANCH  25  28
ENDBRANCH  21  22
ENDBRANCH  19  21
ENDBRANCH   1  19
TORSDOF 11
ENDMDL
MODEL 2
REMARK VINA RESULT:     -11.9      4.089      8.075
REMARK  Name = 448384
REMARK  11 active torsions:
REMARK  status: ('A' for Active; 'I' for Inactive)
REMARK    1  A    between atoms: C_1  and  C_3
REMARK    2  A    between atoms: C_1  and  C_6
REMARK    3  A    between atoms: C_1  and  C_19
REMARK    4  A    between atoms: C_3  and  O_4
REMARK    5  A    between atoms: C_6  and  C_7
REMARK    6  A    between atoms: C_7  and  N_10
REMARK    7  A    between atoms: C_19  and  C_21
REMARK    8  A    between atoms: C_21  and  C_22
REMARK    9  A    between atoms: C_25  and  C_28
REMARK   10  A    between atoms: C_33  and  O_34
REMARK   11  A    between atoms: O_34  and  C_35
REMARK                            x       y       z     vdW  Elec       q    Type
REMARK                         _______ _______ _______ _____ _____    ______ ____
ROOT
ATOM      1  C   UNL     1      35.770 -18.496 -21.373  0.00  0.00    +0.108 C 
ENDROOT
BRANCH   1   3
ATOM      2  O   UNL     1      37.492 -18.678 -19.663  0.00  0.00    -0.250 OA
ATOM      3  C   UNL     1      37.196 -18.607 -20.849  0.00  0.00    +0.314 C 
BRANCH   3   4
ATOM      4  O   UNL     1      38.121 -18.627 -21.840  0.00  0.00    -0.480 OA
ATOM      5  H   UNL     1      37.868 -18.433 -22.721  0.00  0.00    +0.295 HD
ENDBRANCH   3   4
ENDBRANCH   1   3
BRANCH   1   6
ATOM      6  C   UNL     1      34.837 -19.432 -20.578  0.00  0.00    +0.034 C 
BRANCH   6   7
ATOM      7  C   UNL     1      35.413 -20.830 -20.347  0.00  0.00    +0.102 C 
BRANCH   7  10
ATOM      8  O   UNL     1      36.884 -21.633 -17.882  0.00  0.00    -0.269 OA
ATOM      9  O   UNL     1      32.627 -21.687 -19.710  0.00  0.00    -0.269 OA
ATOM     10  N   UNL     1      34.910 -21.461 -19.161  0.00  0.00    -0.223 N 
ATOM     11  C   UNL     1      35.691 -21.791 -18.063  0.00  0.00    +0.255 C 
ATOM     12  C   UNL     1      33.583 -21.816 -18.969  0.00  0.00    +0.255 C 
ATOM     13  C   UNL     1      34.785 -22.398 -17.087  0.00  0.00    +0.058 C 
ATOM     14  C   UNL     1      33.511 -22.413 -17.635  0.00  0.00    +0.058 C 
ATOM     15  C   UNL     1      35.044 -22.898 -15.827  0.00  0.00    +0.005 C 
ATOM     16  C   UNL     1      32.429 -22.929 -16.953  0.00  0.00    +0.005 C 
ATOM     17  C   UNL     1      33.963 -23.425 -15.117  0.00  0.00    +0.000 C 
ATOM     18  C   UNL     1      32.668 -23.442 -15.674  0.00  0.00    +0.000 C 
ENDBRANCH   7  10
ENDBRANCH   6   7
ENDBRANCH   1   6
BRANCH   1  19
ATOM     19  C   UNL     1      35.310 -17.032 -21.231  0.00  0.00    +0.080 C 
BRANCH  19  21
ATOM     20  O   UNL     1      35.163 -16.946 -23.642  0.00  0.00    -0.291 OA
ATOM     21  C   UNL     1      34.975 -16.379 -22.568  0.00  0.00    +0.174 C 
BRANCH  21  22
ATOM     22  C   UNL     1      34.409 -14.999 -22.566  0.00  0.00    +0.035 C 
ATOM     23  C   UNL     1      34.216 -14.325 -21.360  0.00  0.00    +0.003 C 
ATOM     24  C   UNL     1      34.073 -14.382 -23.771  0.00  0.00    +0.003 C 
ATOM     25  C   UNL     1      33.351 -12.418 -22.565  0.00  0.00    +0.000 C 
ATOM     26  C   UNL     1      33.687 -13.035 -21.359  0.00  0.00    +0.000 C 
ATOM     27  C   UNL     1      33.544 -13.091 -23.771  0.00  0.00    +0.000 C 
BRANCH  25  28
ATOM     28  C   UNL     1      32.802 -11.079 -22.564  0.00  0.00    +0.000 C 
ATOM     29  C   UNL     1      31.762 -10.754 -21.693  0.00  0.00    +0.003 C 
ATOM     30  C   UNL     1      33.309 -10.116 -23.436  0.00  0.00    +0.003 C 
ATOM     31  C   UNL     1      31.230  -9.464 -21.693  0.00  0.00    +0.037 C 
ATOM     32  C   UNL     1      32.777  -8.827 -23.436  0.00  0.00    +0.037 C 
ATOM     33  C   UNL     1      31.737  -8.501 -22.565  0.00  0.00    +0.139 C 
BRANCH  33  34
ATOM     34  O   UNL     1      31.219  -7.242 -22.563  0.00  0.00    -0.475 OA
BRANCH  34  35
ATOM     35  C   UNL     1      32.105  -6.175 -22.227  0.00  0.00    +0.206 C 
ATOM     36  C   UNL     1      31.994  -5.892 -20.743  0.00  0.00    +0.051 C 
ENDBRANCH  34  35
ENDBRANCH  33  34
ENDBRANCH  25  28
ENDBRANCH  21  22
ENDBRANCH  19  21
ENDBRANCH   1  19
TORSDOF 11
ENDMDL
MODEL 3
REMARK VINA RESULT:     -11.9      1.930      3.386
REMARK  Name = 448384
REMARK  11 active torsions:
REMARK  status: ('A' for Active; 'I' for Inactive)
REMARK    1  A    between atoms: C_1  and  C_3
REMARK    2  A    between atoms: C_1  and  C_6
REMARK    3  A    between atoms: C_1  and  C_19
REMARK    4  A    between atoms: C_3  and  O_4
REMARK    5  A    between atoms: C_6  and  C_7
REMARK    6  A    between atoms: C_7  and  N_10
REMARK    7  A    between atoms: C_19  and  C_21
REMARK    8  A    between atoms: C_21  and  C_22
REMARK    9  A    between atoms: C_25  and  C_28
REMARK   10  A    between atoms: C_33  and  O_34
REMARK   11  A    between atoms: O_34  and  C_35
REMARK                            x       y       z     vdW  Elec       q    Type
REMARK                         _______ _______ _______ _____ _____    ______ ____
ROOT
ATOM      1  C   UNL     1      36.243 -23.143 -15.241  0.00  0.00    +0.108 C 
ENDROOT
BRANCH   1   3
ATOM      2  O   UNL     1      37.450 -21.164 -15.985  0.00  0.00    -0.250 OA
ATOM      3  C   UNL     1      37.463 -22.357 -15.704  0.00  0.00    +0.314 C 
BRANCH   3   4
ATOM      4  O   UNL     1      38.585 -23.116 -15.769  0.00  0.00    -0.480 OA
ATOM      5  H   UNL     1      38.579 -23.918 -16.252  0.00  0.00    +0.295 HD
ENDBRANCH   3   4
ENDBRANCH   1   3
BRANCH   1   6
ATOM      6  C   UNL     1      36.259 -23.292 -13.706  0.00  0.00    +0.034 C 
BRANCH   6   7
ATOM      7  C   UNL     1      36.187 -24.742 -13.225  0.00  0.00    +0.102 C 
BRANCH   7  10
ATOM      8  O   UNL     1      35.903 -26.846 -15.317  0.00  0.00    -0.269 OA
ATOM      9  O   UNL     1      39.113 -24.842 -12.643  0.00  0.00    -0.269 OA
ATOM     10  N   UNL     1      37.197 -25.582 -13.804  0.00  0.00    -0.223 N 
ATOM     11  C   UNL     1      36.951 -26.534 -14.782  0.00  0.00    +0.255 C 
ATOM     12  C   UNL     1      38.539 -25.540 -13.457  0.00  0.00    +0.255 C 
ATOM     13  C   UNL     1      38.244 -27.145 -15.090  0.00  0.00    +0.058 C 
ATOM     14  C   UNL     1      39.205 -26.543 -14.289  0.00  0.00    +0.058 C 
ATOM     15  C   UNL     1      38.564 -28.140 -15.990  0.00  0.00    +0.005 C 
ATOM     16  C   UNL     1      40.534 -26.907 -14.346  0.00  0.00    +0.005 C 
ATOM     17  C   UNL     1      39.905 -28.525 -16.065  0.00  0.00    +0.000 C 
ATOM     18  C   UNL     1      40.881 -27.915 -15.250  0.00  0.00    +0.000 C 
ENDBRANCH   7  10
ENDBRANCH   6   7
ENDBRANCH   1   6
BRANCH   1  19
ATOM     19  C   UNL     1      34.977 -22.390 -15.694  0.00  0.00    +0.080 C 
BRANCH  19  21
ATOM     20  O   UNL     1      34.011 -23.972 -17.245  0.00  0.00    -0.291 OA
ATOM     21  C   UNL     1      34.467 -22.847 -17.057  0.00  0.00    +0.174 C 
BRANCH  21  22
ATOM     22  C   UNL     1      34.537 -21.893 -18.202  0.00  0.00    +0.035 C 
ATOM     23  C   UNL     1      33.363 -21.389 -18.764  0.00  0.00    +0.003 C 
ATOM     24  C   UNL     1      35.777 -21.503 -18.709  0.00  0.00    +0.003 C 
ATOM     25  C   UNL     1      34.670 -20.108 -20.341  0.00  0.00    +0.000 C 
ATOM     26  C   UNL     1      33.430 -20.497 -19.834  0.00  0.00    +0.000 C 
ATOM     27  C   UNL     1      35.843 -20.611 -19.779  0.00  0.00    +0.000 C 
BRANCH  25  28
ATOM     28  C   UNL     1      34.740 -19.182 -21.452  0.00  0.00    +0.000 C 
ATOM     29  C   UNL     1      35.453 -17.990 -21.321  0.00  0.00    +0.003 C 
ATOM     30  C   UNL     1      34.093 -19.481 -22.651  0.00  0.00    +0.003 C 
ATOM     31  C   UNL     1      35.519 -17.097 -22.390  0.00  0.00    +0.037 C 
ATOM     32  C   UNL     1      34.159 -18.587 -23.720  0.00  0.00    +0.037 C 
ATOM     33  C   UNL     1      34.872 -17.395 -23.589  0.00  0.00    +0.139 C 
BRANCH  33  34
ATOM     34  O   UNL     1      34.940 -16.524 -24.633  0.00  0.00    -0.475 OA
BRANCH  34  35
ATOM     35  C   UNL     1      33.870 -15.589 -24.769  0.00  0.00    +0.206 C 
ATOM     36  C   UNL     1      33.990 -14.542 -23.682  0.00  0.00    +0.051 C 
ENDBRANCH  34  35
ENDBRANCH  33  34
ENDBRANCH  25  28
ENDBRANCH  21  22
ENDBRANCH  19  21
ENDBRANCH   1  19
TORSDOF 11
ENDMDL
MODEL 4
REMARK VINA RESULT:     -11.8      4.090      8.068
REMARK  Name = 448384
REMARK  11 active torsions:
REMARK  status: ('A' for Active; 'I' for Inactive)
REMARK    1  A    between atoms: C_1  and  C_3
REMARK    2  A    between atoms: C_1  and  C_6
REMARK    3  A    between atoms: C_1  and  C_19
REMARK    4  A    between atoms: C_3  and  O_4
REMARK    5  A    between atoms: C_6  and  C_7
REMARK    6  A    between atoms: C_7  and  N_10
REMARK    7  A    between atoms: C_19  and  C_21
REMARK    8  A    between atoms: C_21  and  C_22
REMARK    9  A    between atoms: C_25  and  C_28
REMARK   10  A    between atoms: C_33  and  O_34
REMARK   11  A    between atoms: O_34  and  C_35
REMARK                            x       y       z     vdW  Elec       q    Type
REMARK                         _______ _______ _______ _____ _____    ______ ____
ROOT
ATOM      1  C   UNL     1      35.747 -18.505 -21.391  0.00  0.00    +0.108 C 
ENDROOT
BRANCH   1   3
ATOM      2  O   UNL     1      37.468 -18.655 -19.676  0.00  0.00    -0.250 OA
ATOM      3  C   UNL     1      37.172 -18.605 -20.864  0.00  0.00    +0.314 C 
BRANCH   3   4
ATOM      4  O   UNL     1      38.098 -18.639 -21.854  0.00  0.00    -0.480 OA
ATOM      5  H   UNL     1      38.112 -17.967 -22.506  0.00  0.00    +0.295 HD
ENDBRANCH   3   4
ENDBRANCH   1   3
BRANCH   1   6
ATOM      6  C   UNL     1      34.819 -19.445 -20.593  0.00  0.00    +0.034 C 
BRANCH   6   7
ATOM      7  C   UNL     1      35.416 -20.828 -20.331  0.00  0.00    +0.102 C 
BRANCH   7  10
ATOM      8  O   UNL     1      32.613 -21.623 -19.702  0.00  0.00    -0.269 OA
ATOM      9  O   UNL     1      36.864 -21.662 -17.858  0.00  0.00    -0.269 OA
ATOM     10  N   UNL     1      34.899 -21.453 -19.147  0.00  0.00    -0.223 N 
ATOM     11  C   UNL     1      33.565 -21.784 -18.961  0.00  0.00    +0.255 C 
ATOM     12  C   UNL     1      35.671 -21.804 -18.049  0.00  0.00    +0.255 C 
ATOM     13  C   UNL     1      33.481 -22.405 -17.639  0.00  0.00    +0.058 C 
ATOM     14  C   UNL     1      34.755 -22.416 -17.088  0.00  0.00    +0.058 C 
ATOM     15  C   UNL     1      32.390 -22.916 -16.966  0.00  0.00    +0.005 C 
ATOM     16  C   UNL     1      35.003 -22.940 -15.836  0.00  0.00    +0.005 C 
ATOM     17  C   UNL     1      32.619 -23.453 -15.697  0.00  0.00    +0.000 C 
ATOM     18  C   UNL     1      33.913 -23.464 -15.136  0.00  0.00    +0.000 C 
ENDBRANCH   7  10
ENDBRANCH   6   7
ENDBRANCH   1   6
BRANCH   1  19
ATOM     19  C   UNL     1      35.277 -17.044 -21.254  0.00  0.00    +0.080 C 
BRANCH  19  21
ATOM     20  O   UNL     1      35.127 -16.970 -23.665  0.00  0.00    -0.291 OA
ATOM     21  C   UNL     1      34.944 -16.396 -22.594  0.00  0.00    +0.174 C 
BRANCH  21  22
ATOM     22  C   UNL     1      34.386 -15.013 -22.600  0.00  0.00    +0.035 C 
ATOM     23  C   UNL     1      34.043 -14.402 -23.806  0.00  0.00    +0.003 C 
ATOM     24  C   UNL     1      34.206 -14.330 -21.397  0.00  0.00    +0.003 C 
ATOM     25  C   UNL     1      33.341 -12.426 -22.607  0.00  0.00    +0.000 C 
ATOM     26  C   UNL     1      33.521 -13.109 -23.810  0.00  0.00    +0.000 C 
ATOM     27  C   UNL     1      33.684 -13.036 -21.400  0.00  0.00    +0.000 C 
BRANCH  25  28
ATOM     28  C   UNL     1      32.801 -11.084 -22.610  0.00  0.00    +0.000 C 
ATOM     29  C   UNL     1      31.780 -10.742 -21.721  0.00  0.00    +0.003 C 
ATOM     30  C   UNL     1      33.297 -10.133 -23.502  0.00  0.00    +0.003 C 
ATOM     31  C   UNL     1      31.257  -9.449 -21.725  0.00  0.00    +0.037 C 
ATOM     32  C   UNL     1      32.773  -8.841 -23.505  0.00  0.00    +0.037 C 
ATOM     33  C   UNL     1      31.753  -8.499 -22.617  0.00  0.00    +0.139 C 
BRANCH  33  34
ATOM     34  O   UNL     1      31.244  -7.236 -22.618  0.00  0.00    -0.475 OA
BRANCH  34  35
ATOM     35  C   UNL     1      32.022  -6.222 -23.252  0.00  0.00    +0.206 C 
ATOM     36  C   UNL     1      32.423  -5.190 -22.219  0.00  0.00    +0.051 C 
ENDBRANCH  34  35
ENDBRANCH  33  34
ENDBRANCH  25  28
ENDBRANCH  21  22
ENDBRANCH  19  21
ENDBRANCH   1  19
TORSDOF 11
ENDMDL
MODEL 5
REMARK VINA RESULT:     -11.7      1.388      2.314
REMARK  Name = 448384
REMARK  11 active torsions:
REMARK  status: ('A' for Active; 'I' for Inactive)
REMARK    1  A    between atoms: C_1  and  C_3
REMARK    2  A    between atoms: C_1  and  C_6
REMARK    3  A    between atoms: C_1  and  C_19
REMARK    4  A    between atoms: C_3  and  O_4
REMARK    5  A    between atoms: C_6  and  C_7
REMARK    6  A    between atoms: C_7  and  N_10
REMARK    7  A    between atoms: C_19  and  C_21
REMARK    8  A    between atoms: C_21  and  C_22
REMARK    9  A    between atoms: C_25  and  C_28
REMARK   10  A    between atoms: C_33  and  O_34
REMARK   11  A    between atoms: O_34  and  C_35
REMARK                            x       y       z     vdW  Elec       q    Type
REMARK                         _______ _______ _______ _____ _____    ______ ____
ROOT
ATOM      1  C   UNL     1      33.125 -22.754 -14.607  0.00  0.00    +0.108 C 
ENDROOT
BRANCH   1   3
ATOM      2  O   UNL     1      32.062 -24.809 -13.851  0.00  0.00    -0.250 OA
ATOM      3  C   UNL     1      32.420 -23.663 -13.609  0.00  0.00    +0.314 C 
BRANCH   3   4
ATOM      4  O   UNL     1      32.229 -23.073 -12.402  0.00  0.00    -0.480 OA
ATOM      5  H   UNL     1      31.401 -23.146 -11.972  0.00  0.00    +0.295 HD
ENDBRANCH   3   4
ENDBRANCH   1   3
BRANCH   1   6
ATOM      6  C   UNL     1      34.601 -23.177 -14.760  0.00  0.00    +0.034 C 
BRANCH   6   7
ATOM      7  C   UNL     1      35.197 -23.807 -13.501  0.00  0.00    +0.102 C 
BRANCH   7  10
ATOM      8  O   UNL     1      37.980 -23.223 -12.608  0.00  0.00    -0.269 OA
ATOM      9  O   UNL     1      35.565 -26.324 -15.062  0.00  0.00    -0.269 OA
ATOM     10  N   UNL     1      36.400 -24.547 -13.753  0.00  0.00    -0.223 N 
ATOM     11  C   UNL     1      37.653 -24.182 -13.283  0.00  0.00    +0.255 C 
ATOM     12  C   UNL     1      36.455 -25.717 -14.497  0.00  0.00    +0.255 C 
ATOM     13  C   UNL     1      38.581 -25.208 -13.758  0.00  0.00    +0.058 C 
ATOM     14  C   UNL     1      37.857 -26.137 -14.492  0.00  0.00    +0.058 C 
ATOM     15  C   UNL     1      39.943 -25.328 -13.570  0.00  0.00    +0.005 C 
ATOM     16  C   UNL     1      38.456 -27.232 -15.077  0.00  0.00    +0.005 C 
ATOM     17  C   UNL     1      40.571 -26.431 -14.154  0.00  0.00    +0.000 C 
ATOM     18  C   UNL     1      39.835 -27.374 -14.901  0.00  0.00    +0.000 C 
ENDBRANCH   7  10
ENDBRANCH   6   7
ENDBRANCH   1   6
BRANCH   1  19
ATOM     19  C   UNL     1      32.394 -22.856 -15.960  0.00  0.00    +0.080 C 
BRANCH  19  21
ATOM     20  O   UNL     1      33.816 -24.372 -17.193  0.00  0.00    -0.291 OA
ATOM     21  C   UNL     1      33.317 -23.252 -17.108  0.00  0.00    +0.174 C 
BRANCH  21  22
ATOM     22  C   UNL     1      33.630 -22.237 -18.156  0.00  0.00    +0.035 C 
ATOM     23  C   UNL     1      34.955 -21.995 -18.520  0.00  0.00    +0.003 C 
ATOM     24  C   UNL     1      32.597 -21.531 -18.771  0.00  0.00    +0.003 C 
ATOM     25  C   UNL     1      34.213 -20.340 -20.115  0.00  0.00    +0.000 C 
ATOM     26  C   UNL     1      35.246 -21.047 -19.499  0.00  0.00    +0.000 C 
ATOM     27  C   UNL     1      32.888 -20.581 -19.751  0.00  0.00    +0.000 C 
BRANCH  25  28
ATOM     28  C   UNL     1      34.514 -19.354 -21.131  0.00  0.00    +0.000 C 
ATOM     29  C   UNL     1      35.325 -18.261 -20.822  0.00  0.00    +0.003 C 
ATOM     30  C   UNL     1      33.993 -19.495 -22.417  0.00  0.00    +0.003 C 
ATOM     31  C   UNL     1      35.615 -17.310 -21.800  0.00  0.00    +0.037 C 
ATOM     32  C   UNL     1      34.283 -18.543 -23.395  0.00  0.00    +0.037 C 
ATOM     33  C   UNL     1      35.093 -17.451 -23.086  0.00  0.00    +0.139 C 
BRANCH  33  34
ATOM     34  O   UNL     1      35.379 -16.523 -24.041  0.00  0.00    -0.475 OA
BRANCH  34  35
ATOM     35  C   UNL     1      34.334 -15.621 -24.403  0.00  0.00    +0.206 C 
ATOM     36  C   UNL     1      34.123 -14.633 -23.275  0.00  0.00    +0.051 C 
ENDBRANCH  34  35
ENDBRANCH  33  34
ENDBRANCH  25  28
ENDBRANCH  21  22
ENDBRANCH  19  21
ENDBRANCH   1  19
TORSDOF 11
ENDMDL
MODEL 6
REMARK VINA RESULT:     -11.7      3.620     11.421
REMARK  Name = 448384
REMARK  11 active torsions:
REMARK  status: ('A' for Active; 'I' for Inactive)
REMARK    1  A    between atoms: C_1  and  C_3
REMARK    2  A    between atoms: C_1  and  C_6
REMARK    3  A    between atoms: C_1  and  C_19
REMARK    4  A    between atoms: C_3  and  O_4
REMARK    5  A    between atoms: C_6  and  C_7
REMARK    6  A    between atoms: C_7  and  N_10
REMARK    7  A    between atoms: C_19  and  C_21
REMARK    8  A    between atoms: C_21  and  C_22
REMARK    9  A    between atoms: C_25  and  C_28
REMARK   10  A    between atoms: C_33  and  O_34
REMARK   11  A    between atoms: O_34  and  C_35
REMARK                            x       y       z     vdW  Elec       q    Type
REMARK                         _______ _______ _______ _____ _____    ______ ____
ROOT
ATOM      1  C   UNL     1      34.930 -17.796 -23.509  0.00  0.00    +0.108 C 
ENDROOT
BRANCH   1   3
ATOM      2  O   UNL     1      32.969 -18.502 -24.767  0.00  0.00    -0.250 OA
ATOM      3  C   UNL     1      33.813 -17.645 -24.533  0.00  0.00    +0.314 C 
BRANCH   3   4
ATOM      4  O   UNL     1      33.838 -16.446 -25.167  0.00  0.00    -0.480 OA
ATOM      5  H   UNL     1      33.164 -16.227 -25.780  0.00  0.00    +0.295 HD
ENDBRANCH   3   4
ENDBRANCH   1   3
BRANCH   1   6
ATOM      6  C   UNL     1      34.749 -16.771 -22.370  0.00  0.00    +0.034 C 
BRANCH   6   7
ATOM      7  C   UNL     1      35.219 -15.361 -22.727  0.00  0.00    +0.102 C 
BRANCH   7  10
ATOM      8  O   UNL     1      33.778 -13.298 -24.324  0.00  0.00    -0.269 OA
ATOM      9  O   UNL     1      34.321 -14.731 -19.952  0.00  0.00    -0.269 OA
ATOM     10  N   UNL     1      34.323 -14.334 -22.277  0.00  0.00    -0.223 N 
ATOM     11  C   UNL     1      33.701 -13.421 -23.116  0.00  0.00    +0.255 C 
ATOM     12  C   UNL     1      33.970 -14.132 -20.951  0.00  0.00    +0.255 C 
ATOM     13  C   UNL     1      32.877 -12.574 -22.255  0.00  0.00    +0.058 C 
ATOM     14  C   UNL     1      33.040 -13.004 -20.945  0.00  0.00    +0.058 C 
ATOM     15  C   UNL     1      32.053 -11.515 -22.578  0.00  0.00    +0.005 C 
ATOM     16  C   UNL     1      32.388 -12.398 -19.892  0.00  0.00    +0.005 C 
ATOM     17  C   UNL     1      31.383 -10.885 -21.526  0.00  0.00    +0.000 C 
ATOM     18  C   UNL     1      31.549 -11.322 -20.195  0.00  0.00    +0.000 C 
ENDBRANCH   7  10
ENDBRANCH   6   7
ENDBRANCH   1   6
BRANCH   1  19
ATOM     19  C   UNL     1      34.889 -19.232 -22.951  0.00  0.00    +0.080 C 
BRANCH  19  21
ATOM     20  O   UNL     1      36.833 -18.930 -21.546  0.00  0.00    -0.291 OA
ATOM     21  C   UNL     1      35.704 -19.398 -21.672  0.00  0.00    +0.174 C 
BRANCH  21  22
ATOM     22  C   UNL     1      35.108 -20.167 -20.541  0.00  0.00    +0.035 C 
ATOM     23  C   UNL     1      33.723 -20.208 -20.377  0.00  0.00    +0.003 C 
ATOM     24  C   UNL     1      35.936 -20.847 -19.647  0.00  0.00    +0.003 C 
ATOM     25  C   UNL     1      33.995 -21.606 -18.426  0.00  0.00    +0.000 C 
ATOM     26  C   UNL     1      33.167 -20.927 -19.320  0.00  0.00    +0.000 C 
ATOM     27  C   UNL     1      35.380 -21.566 -18.589  0.00  0.00    +0.000 C 
BRANCH  25  28
ATOM     28  C   UNL     1      33.419 -22.352 -17.328  0.00  0.00    +0.000 C 
ATOM     29  C   UNL     1      32.032 -22.434 -17.194  0.00  0.00    +0.003 C 
ATOM     30  C   UNL     1      34.248 -22.986 -16.403  0.00  0.00    +0.003 C 
ATOM     31  C   UNL     1      31.476 -23.151 -16.135  0.00  0.00    +0.037 C 
ATOM     32  C   UNL     1      33.691 -23.703 -15.344  0.00  0.00    +0.037 C 
ATOM     33  C   UNL     1      32.305 -23.785 -15.210  0.00  0.00    +0.139 C 
BRANCH  33  34
ATOM     34  O   UNL     1      31.761 -24.486 -14.178  0.00  0.00    -0.475 OA
BRANCH  34  35
ATOM     35  C   UNL     1      30.387 -24.241 -13.879  0.00  0.00    +0.206 C 
ATOM     36  C   UNL     1      29.579 -25.471 -14.233  0.00  0.00    +0.051 C 
ENDBRANCH  34  35
ENDBRANCH  33  34
ENDBRANCH  25  28
ENDBRANCH  21  22
ENDBRANCH  19  21
ENDBRANCH   1  19
TORSDOF 11
ENDMDL
MODEL 7
REMARK VINA RESULT:     -11.6      1.860      2.927
REMARK  Name = 448384
REMARK  11 active torsions:
REMARK  status: ('A' for Active; 'I' for Inactive)
REMARK    1  A    between atoms: C_1  and  C_3
REMARK    2  A    between atoms: C_1  and  C_6
REMARK    3  A    between atoms: C_1  and  C_19
REMARK    4  A    between atoms: C_3  and  O_4
REMARK    5  A    between atoms: C_6  and  C_7
REMARK    6  A    between atoms: C_7  and  N_10
REMARK    7  A    between atoms: C_19  and  C_21
REMARK    8  A    between atoms: C_21  and  C_22
REMARK    9  A    between atoms: C_25  and  C_28
REMARK   10  A    between atoms: C_33  and  O_34
REMARK   11  A    between atoms: O_34  and  C_35
REMARK                            x       y       z     vdW  Elec       q    Type
REMARK                         _______ _______ _______ _____ _____    ______ ____
ROOT
ATOM      1  C   UNL     1      34.749 -23.154 -14.492  0.00  0.00    +0.108 C 
ENDROOT
BRANCH   1   3
ATOM      2  O   UNL     1      33.387 -23.558 -12.516  0.00  0.00    -0.250 OA
ATOM      3  C   UNL     1      33.829 -23.960 -13.585  0.00  0.00    +0.314 C 
BRANCH   3   4
ATOM      4  O   UNL     1      33.535 -25.185 -14.088  0.00  0.00    -0.480 OA
ATOM      5  H   UNL     1      33.005 -25.261 -14.856  0.00  0.00    +0.295 HD
ENDBRANCH   3   4
ENDBRANCH   1   3
BRANCH   1   6
ATOM      6  C   UNL     1      36.194 -23.198 -13.956  0.00  0.00    +0.034 C 
BRANCH   6   7
ATOM      7  C   UNL     1      36.490 -24.411 -13.073  0.00  0.00    +0.102 C 
BRANCH   7  10
ATOM      8  O   UNL     1      35.891 -26.568 -15.040  0.00  0.00    -0.269 OA
ATOM      9  O   UNL     1      39.434 -24.721 -12.694  0.00  0.00    -0.269 OA
ATOM     10  N   UNL     1      37.386 -25.351 -13.682  0.00  0.00    -0.223 N 
ATOM     11  C   UNL     1      36.997 -26.320 -14.595  0.00  0.00    +0.255 C 
ATOM     12  C   UNL     1      38.750 -25.403 -13.433  0.00  0.00    +0.255 C 
ATOM     13  C   UNL     1      38.213 -27.043 -14.965  0.00  0.00    +0.058 C 
ATOM     14  C   UNL     1      39.273 -26.489 -14.262  0.00  0.00    +0.058 C 
ATOM     15  C   UNL     1      38.388 -28.097 -15.838  0.00  0.00    +0.005 C 
ATOM     16  C   UNL     1      40.562 -26.959 -14.396  0.00  0.00    +0.005 C 
ATOM     17  C   UNL     1      39.686 -28.590 -15.990  0.00  0.00    +0.000 C 
ATOM     18  C   UNL     1      40.764 -28.027 -15.275  0.00  0.00    +0.000 C 
ENDBRANCH   7  10
ENDBRANCH   6   7
ENDBRANCH   1   6
BRANCH   1  19
ATOM     19  C   UNL     1      34.683 -23.752 -15.911  0.00  0.00    +0.080 C 
BRANCH  19  21
ATOM     20  O   UNL     1      32.348 -23.570 -16.510  0.00  0.00    -0.291 OA
ATOM     21  C   UNL     1      33.507 -23.225 -16.727  0.00  0.00    +0.174 C 
BRANCH  21  22
ATOM     22  C   UNL     1      33.781 -22.264 -17.834  0.00  0.00    +0.035 C 
ATOM     23  C   UNL     1      32.724 -21.630 -18.488  0.00  0.00    +0.003 C 
ATOM     24  C   UNL     1      35.096 -21.998 -18.216  0.00  0.00    +0.003 C 
ATOM     25  C   UNL     1      34.296 -20.466 -19.904  0.00  0.00    +0.000 C 
ATOM     26  C   UNL     1      32.981 -20.732 -19.522  0.00  0.00    +0.000 C 
ATOM     27  C   UNL     1      35.354 -21.099 -19.252  0.00  0.00    +0.000 C 
BRANCH  25  28
ATOM     28  C   UNL     1      34.564 -19.534 -20.979  0.00  0.00    +0.000 C 
ATOM     29  C   UNL     1      35.448 -18.473 -20.776  0.00  0.00    +0.003 C 
ATOM     30  C   UNL     1      33.938 -19.695 -22.215  0.00  0.00    +0.003 C 
ATOM     31  C   UNL     1      35.705 -17.573 -21.810  0.00  0.00    +0.037 C 
ATOM     32  C   UNL     1      34.196 -18.795 -23.249  0.00  0.00    +0.037 C 
ATOM     33  C   UNL     1      35.079 -17.734 -23.047  0.00  0.00    +0.139 C 
BRANCH  33  34
ATOM     34  O   UNL     1      35.333 -16.857 -24.056  0.00  0.00    -0.475 OA
BRANCH  34  35
ATOM     35  C   UNL     1      34.296 -15.935 -24.392  0.00  0.00    +0.206 C 
ATOM     36  C   UNL     1      34.299 -14.804 -23.385  0.00  0.00    +0.051 C 
ENDBRANCH  34  35
ENDBRANCH  33  34
ENDBRANCH  25  28
ENDBRANCH  21  22
ENDBRANCH  19  21
ENDBRANCH   1  19
TORSDOF 11
ENDMDL
MODEL 8
REMARK VINA RESULT:     -11.6      3.628     11.540
REMARK  Name = 448384
REMARK  11 active torsions:
REMARK  status: ('A' for Active; 'I' for Inactive)
REMARK    1  A    between atoms: C_1  and  C_3
REMARK    2  A    between atoms: C_1  and  C_6
REMARK    3  A    between atoms: C_1  and  C_19
REMARK    4  A    between atoms: C_3  and  O_4
REMARK    5  A    between atoms: C_6  and  C_7
REMARK    6  A    between atoms: C_7  and  N_10
REMARK    7  A    between atoms: C_19  and  C_21
REMARK    8  A    between atoms: C_21  and  C_22
REMARK    9  A    between atoms: C_25  and  C_28
REMARK   10  A    between atoms: C_33  and  O_34
REMARK   11  A    between atoms: O_34  and  C_35
REMARK                            x       y       z     vdW  Elec       q    Type
REMARK                         _______ _______ _______ _____ _____    ______ ____
ROOT
ATOM      1  C   UNL     1      34.947 -17.678 -23.443  0.00  0.00    +0.108 C 
ENDROOT
BRANCH   1   3
ATOM      2  O   UNL     1      33.832 -16.342 -25.145  0.00  0.00    -0.250 OA
ATOM      3  C   UNL     1      33.912 -17.394 -24.523  0.00  0.00    +0.314 C 
BRANCH   3   4
ATOM      4  O   UNL     1      33.075 -18.440 -24.739  0.00  0.00    -0.480 OA
ATOM      5  H   UNL     1      33.397 -19.318 -24.675  0.00  0.00    +0.295 HD
ENDBRANCH   3   4
ENDBRANCH   1   3
BRANCH   1   6
ATOM      6  C   UNL     1      34.928 -16.558 -22.383  0.00  0.00    +0.034 C 
BRANCH   6   7
ATOM      7  C   UNL     1      35.182 -15.162 -22.953  0.00  0.00    +0.102 C 
BRANCH   7  10
ATOM      8  O   UNL     1      34.187 -14.791 -20.168  0.00  0.00    -0.269 OA
ATOM      9  O   UNL     1      33.815 -12.937 -24.398  0.00  0.00    -0.269 OA
ATOM     10  N   UNL     1      34.282 -14.169 -22.440  0.00  0.00    -0.223 N 
ATOM     11  C   UNL     1      33.885 -14.087 -21.114  0.00  0.00    +0.255 C 
ATOM     12  C   UNL     1      33.703 -13.170 -23.209  0.00  0.00    +0.255 C 
ATOM     13  C   UNL     1      32.986 -12.936 -21.028  0.00  0.00    +0.058 C 
ATOM     14  C   UNL     1      32.876 -12.382 -22.296  0.00  0.00    +0.058 C 
ATOM     15  C   UNL     1      32.316 -12.413 -19.942  0.00  0.00    +0.005 C 
ATOM     16  C   UNL     1      32.091 -11.275 -22.542  0.00  0.00    +0.005 C 
ATOM     17  C   UNL     1      31.515 -11.291 -20.168  0.00  0.00    +0.000 C 
ATOM     18  C   UNL     1      31.402 -10.728 -21.456  0.00  0.00    +0.000 C 
ENDBRANCH   7  10
ENDBRANCH   6   7
ENDBRANCH   1   6
BRANCH   1  19
ATOM     19  C   UNL     1      34.616 -19.037 -22.795  0.00  0.00    +0.080 C 
BRANCH  19  21
ATOM     20  O   UNL     1      36.705 -19.027 -21.579  0.00  0.00    -0.291 OA
ATOM     21  C   UNL     1      35.527 -19.375 -21.619  0.00  0.00    +0.174 C 
BRANCH  21  22
ATOM     22  C   UNL     1      34.967 -20.166 -20.486  0.00  0.00    +0.035 C 
ATOM     23  C   UNL     1      35.817 -20.899 -19.657  0.00  0.00    +0.003 C 
ATOM     24  C   UNL     1      33.591 -20.173 -20.255  0.00  0.00    +0.003 C 
ATOM     25  C   UNL     1      33.916 -21.645 -18.367  0.00  0.00    +0.000 C 
ATOM     26  C   UNL     1      35.292 -21.638 -18.598  0.00  0.00    +0.000 C 
ATOM     27  C   UNL     1      33.066 -20.913 -19.195  0.00  0.00    +0.000 C 
BRANCH  25  28
ATOM     28  C   UNL     1      33.371 -22.413 -17.268  0.00  0.00    +0.000 C 
ATOM     29  C   UNL     1      34.228 -23.031 -16.357  0.00  0.00    +0.003 C 
ATOM     30  C   UNL     1      31.989 -22.537 -17.121  0.00  0.00    +0.003 C 
ATOM     31  C   UNL     1      33.703 -23.773 -15.299  0.00  0.00    +0.037 C 
ATOM     32  C   UNL     1      31.465 -23.279 -16.063  0.00  0.00    +0.037 C 
ATOM     33  C   UNL     1      32.321 -23.897 -15.152  0.00  0.00    +0.139 C 
BRANCH  33  34
ATOM     34  O   UNL     1      31.810 -24.620 -14.118  0.00  0.00    -0.475 OA
BRANCH  34  35
ATOM     35  C   UNL     1      30.472 -24.324 -13.718  0.00  0.00    +0.206 C 
ATOM     36  C   UNL     1      29.556 -25.423 -14.213  0.00  0.00    +0.051 C 
ENDBRANCH  34  35
ENDBRANCH  33  34
ENDBRANCH  25  28
ENDBRANCH  21  22
ENDBRANCH  19  21
ENDBRANCH   1  19
TORSDOF 11
ENDMDL
MODEL 9
REMARK VINA RESULT:     -11.5      4.908     12.961
REMARK  Name = 448384
REMARK  11 active torsions:
REMARK  status: ('A' for Active; 'I' for Inactive)
REMARK    1  A    between atoms: C_1  and  C_3
REMARK    2  A    between atoms: C_1  and  C_6
REMARK    3  A    between atoms: C_1  and  C_19
REMARK    4  A    between atoms: C_3  and  O_4
REMARK    5  A    between atoms: C_6  and  C_7
REMARK    6  A    between atoms: C_7  and  N_10
REMARK    7  A    between atoms: C_19  and  C_21
REMARK    8  A    between atoms: C_21  and  C_22
REMARK    9  A    between atoms: C_25  and  C_28
REMARK   10  A    between atoms: C_33  and  O_34
REMARK   11  A    between atoms: O_34  and  C_35
REMARK                            x       y       z     vdW  Elec       q    Type
REMARK                         _______ _______ _______ _____ _____    ______ ____
ROOT
ATOM      1  C   UNL     1      34.248 -13.516 -23.604  0.00  0.00    +0.108 C 
ENDROOT
BRANCH   1   3
ATOM      2  O   UNL     1      33.314 -12.717 -25.705  0.00  0.00    -0.250 OA
ATOM      3  C   UNL     1      34.007 -12.505 -24.718  0.00  0.00    +0.314 C 
BRANCH   3   4
ATOM      4  O   UNL     1      34.641 -11.325 -24.504  0.00  0.00    -0.480 OA
ATOM      5  H   UNL     1      34.184 -10.518 -24.638  0.00  0.00    +0.295 HD
ENDBRANCH   3   4
ENDBRANCH   1   3
BRANCH   1   6
ATOM      6  C   UNL     1      33.653 -12.998 -22.279  0.00  0.00    +0.034 C 
BRANCH   6   7
ATOM      7  C   UNL     1      32.304 -12.295 -22.439  0.00  0.00    +0.102 C 
BRANCH   7  10
ATOM      8  O   UNL     1      32.659  -9.653 -23.771  0.00  0.00    -0.269 OA
ATOM      9  O   UNL     1      31.886 -11.501 -19.593  0.00  0.00    -0.269 OA
ATOM     10  N   UNL     1      32.277 -10.982 -21.861  0.00  0.00    -0.223 N 
ATOM     11  C   UNL     1      32.452  -9.810 -22.582  0.00  0.00    +0.255 C 
ATOM     12  C   UNL     1      32.069 -10.727 -20.514  0.00  0.00    +0.255 C 
ATOM     13  C   UNL     1      32.339  -8.718 -21.616  0.00  0.00    +0.058 C 
ATOM     14  C   UNL     1      32.107  -9.272 -20.365  0.00  0.00    +0.058 C 
ATOM     15  C   UNL     1      32.430  -7.354 -21.804  0.00  0.00    +0.005 C 
ATOM     16  C   UNL     1      31.955  -8.492 -19.238  0.00  0.00    +0.005 C 
ATOM     17  C   UNL     1      32.279  -6.544 -20.676  0.00  0.00    +0.000 C 
ATOM     18  C   UNL     1      32.044  -7.107 -19.405  0.00  0.00    +0.000 C 
ENDBRANCH   7  10
ENDBRANCH   6   7
ENDBRANCH   1   6
BRANCH   1  19
ATOM     19  C   UNL     1      33.588 -14.850 -24.004  0.00  0.00    +0.080 C 
BRANCH  19  21
ATOM     20  O   UNL     1      35.357 -16.049 -25.132  0.00  0.00    -0.291 OA
ATOM     21  C   UNL     1      34.592 -15.986 -24.173  0.00  0.00    +0.174 C 
BRANCH  21  22
ATOM     22  C   UNL     1      34.635 -17.060 -23.139  0.00  0.00    +0.035 C 
ATOM     23  C   UNL     1      34.233 -18.357 -23.462  0.00  0.00    +0.003 C 
ATOM     24  C   UNL     1      35.077 -16.768 -21.849  0.00  0.00    +0.003 C 
ATOM     25  C   UNL     1      34.716 -19.068 -21.205  0.00  0.00    +0.000 C 
ATOM     26  C   UNL     1      34.273 -19.360 -22.495  0.00  0.00    +0.000 C 
ATOM     27  C   UNL     1      35.117 -17.772 -20.881  0.00  0.00    +0.000 C 
BRANCH  25  28
ATOM     28  C   UNL     1      34.757 -20.109 -20.200  0.00  0.00    +0.000 C 
ATOM     29  C   UNL     1      33.568 -20.661 -19.720  0.00  0.00    +0.003 C 
ATOM     30  C   UNL     1      35.983 -20.559 -19.710  0.00  0.00    +0.003 C 
ATOM     31  C   UNL     1      33.607 -21.663 -18.751  0.00  0.00    +0.037 C 
ATOM     32  C   UNL     1      36.021 -21.560 -18.741  0.00  0.00    +0.037 C 
ATOM     33  C   UNL     1      34.833 -22.112 -18.261  0.00  0.00    +0.139 C 
BRANCH  33  34
ATOM     34  O   UNL     1      34.870 -23.092 -17.316  0.00  0.00    -0.475 OA
BRANCH  34  35
ATOM     35  C   UNL     1      33.850 -23.071 -16.318  0.00  0.00    +0.206 C 
ATOM     36  C   UNL     1      34.498 -22.952 -14.954  0.00  0.00    +0.051 C 
ENDBRANCH  34  35
ENDBRANCH  33  34
ENDBRANCH  25  28
ENDBRANCH  21  22
ENDBRANCH  19  21
ENDBRANCH   1  19
TORSDOF 11
ENDMDL
