MODEL 1
REMARK VINA RESULT:     -12.9      0.000      0.000
REMARK  Name = 67335295
REMARK  6 active torsions:
REMARK  status: ('A' for Active; 'I' for Inactive)
REMARK    1  A    between atoms: N_2  and  C_14
REMARK    2  A    between atoms: C_7  and  O_20
REMARK    3  A    between atoms: O_20  and  C_21
REMARK    4  A    between atoms: C_21  and  C_23
REMARK    5  A    between atoms: C_22  and  C_28
REMARK    6  A    between atoms: C_28  and  N_30
REMARK                            x       y       z     vdW  Elec       q    Type
REMARK                         _______ _______ _______ _____ _____    ______ ____
ROOT
ATOM      1  O   UNL     1      34.905 -24.665 -11.330  0.00  0.00    -0.270 OA
ATOM      2  N   UNL     1      35.835 -24.769 -13.500  0.00  0.00    -0.265 N 
ATOM      3  C   UNL     1      35.406 -24.430 -14.851  0.00  0.00    +0.124 C 
ATOM      4  C   UNL     1      34.029 -23.909 -14.616  0.00  0.00    +0.036 C 
ATOM      5  C   UNL     1      34.869 -24.502 -12.536  0.00  0.00    +0.249 C 
ATOM      6  C   UNL     1      33.716 -23.953 -13.257  0.00  0.00    +0.054 C 
ATOM      7  C   UNL     1      33.109 -23.428 -15.529  0.00  0.00    +0.137 C 
ATOM      8  C   UNL     1      32.500 -23.528 -12.758  0.00  0.00    +0.004 C 
ATOM      9  C   UNL     1      31.870 -22.993 -15.050  0.00  0.00    +0.037 C 
ATOM     10  C   UNL     1      31.568 -23.042 -13.676  0.00  0.00    +0.003 C 
ENDROOT
BRANCH   2  14
ATOM     11  O   UNL     1      37.966 -23.075 -13.484  0.00  0.00    -0.273 OA
ATOM     12  O   UNL     1      40.965 -26.490 -14.221  0.00  0.00    -0.275 OA
ATOM     13  N   UNL     1      39.428 -24.809 -13.875  0.00  0.00    -0.254 N 
ATOM     14  C   UNL     1      37.127 -25.323 -13.194  0.00  0.00    +0.153 C 
ATOM     15  C   UNL     1      37.360 -26.624 -13.947  0.00  0.00    +0.039 C 
ATOM     16  C   UNL     1      38.744 -27.154 -13.620  0.00  0.00    +0.088 C 
ATOM     17  C   UNL     1      38.176 -24.286 -13.550  0.00  0.00    +0.246 C 
ATOM     18  C   UNL     1      39.816 -26.143 -13.953  0.00  0.00    +0.228 C 
ATOM     19  H   UNL     1      40.128 -24.146 -14.075  0.00  0.00    +0.158 HD
ENDBRANCH   2  14
BRANCH   7  20
ATOM     20  O   UNL     1      33.391 -23.379 -16.857  0.00  0.00    -0.471 OA
BRANCH  20  21
ATOM     21  C   UNL     1      32.533 -22.584 -17.676  0.00  0.00    +0.232 C 
BRANCH  21  23
ATOM     22  C   UNL     1      34.934 -20.175 -20.293  0.00  0.00    -0.043 C 
ATOM     23  C   UNL     1      33.373 -21.740 -18.590  0.00  0.00    +0.021 C 
ATOM     24  C   UNL     1      33.542 -20.069 -20.327  0.00  0.00    -0.007 C 
ATOM     25  C   UNL     1      35.544 -21.064 -19.408  0.00  0.00    -0.007 C 
ATOM     26  C   UNL     1      32.762 -20.851 -19.475  0.00  0.00    -0.001 C 
ATOM     27  C   UNL     1      34.763 -21.846 -18.556  0.00  0.00    -0.001 C 
BRANCH  22  28
ATOM     28  C   UNL     1      35.767 -19.339 -21.204  0.00  0.00    -0.050 C 
BRANCH  28  30
ATOM     29  O   UNL     1      34.552 -17.293 -24.662  0.00  0.00    -0.358 OA
ATOM     30  N   UNL     1      34.958 -18.577 -22.154  0.00  0.00    +0.393 N 
ATOM     31  C   UNL     1      35.601 -17.295 -22.474  0.00  0.00    -0.044 C 
ATOM     32  C   UNL     1      34.734 -19.349 -23.385  0.00  0.00    -0.044 C 
ATOM     33  C   UNL     1      33.900 -18.529 -24.365  0.00  0.00    +0.119 C 
ATOM     34  C   UNL     1      34.745 -16.524 -23.476  0.00  0.00    +0.119 C 
ATOM     35  H   UNL     1      34.056 -18.390 -21.717  0.00  0.00    -0.079 HD
ENDBRANCH  28  30
ENDBRANCH  22  28
ENDBRANCH  21  23
ENDBRANCH  20  21
ENDBRANCH   7  20
TORSDOF 6
ENDMDL
MODEL 2
REMARK VINA RESULT:     -12.2      1.392      2.101
REMARK  Name = 67335295
REMARK  6 active torsions:
REMARK  status: ('A' for Active; 'I' for Inactive)
REMARK    1  A    between atoms: N_2  and  C_14
REMARK    2  A    between atoms: C_7  and  O_20
REMARK    3  A    between atoms: O_20  and  C_21
REMARK    4  A    between atoms: C_21  and  C_23
REMARK    5  A    between atoms: C_22  and  C_28
REMARK    6  A    between atoms: C_28  and  N_30
REMARK                            x       y       z     vdW  Elec       q    Type
REMARK                         _______ _______ _______ _____ _____    ______ ____
ROOT
ATOM      1  O   UNL     1      32.144 -25.321 -12.371  0.00  0.00    -0.270 OA
ATOM      2  N   UNL     1      33.619 -24.408 -13.975  0.00  0.00    -0.265 N 
ATOM      3  C   UNL     1      33.498 -23.624 -15.198  0.00  0.00    +0.124 C 
ATOM      4  C   UNL     1      32.022 -23.450 -15.308  0.00  0.00    +0.036 C 
ATOM      5  C   UNL     1      32.394 -24.696 -13.386  0.00  0.00    +0.249 C 
ATOM      6  C   UNL     1      31.375 -24.081 -14.244  0.00  0.00    +0.054 C 
ATOM      7  C   UNL     1      31.290 -22.786 -16.274  0.00  0.00    +0.137 C 
ATOM      8  C   UNL     1      30.002 -24.077 -14.097  0.00  0.00    +0.004 C 
ATOM      9  C   UNL     1      29.897 -22.767 -16.150  0.00  0.00    +0.037 C 
ATOM     10  C   UNL     1      29.259 -23.407 -15.070  0.00  0.00    +0.003 C 
ENDROOT
BRANCH   2  14
ATOM     11  O   UNL     1      34.387 -23.374 -11.576  0.00  0.00    -0.273 OA
ATOM     12  O   UNL     1      38.839 -24.225 -12.385  0.00  0.00    -0.275 OA
ATOM     13  N   UNL     1      36.602 -23.796 -12.030  0.00  0.00    -0.254 N 
ATOM     14  C   UNL     1      34.880 -24.841 -13.433  0.00  0.00    +0.153 C 
ATOM     15  C   UNL     1      35.967 -24.839 -14.498  0.00  0.00    +0.039 C 
ATOM     16  C   UNL     1      37.282 -25.269 -13.874  0.00  0.00    +0.088 C 
ATOM     17  C   UNL     1      35.236 -23.916 -12.283  0.00  0.00    +0.246 C 
ATOM     18  C   UNL     1      37.664 -24.376 -12.718  0.00  0.00    +0.228 C 
ATOM     19  H   UNL     1      36.847 -23.227 -11.265  0.00  0.00    +0.158 HD
ENDBRANCH   2  14
BRANCH   7  20
ATOM     20  O   UNL     1      31.897 -22.167 -17.319  0.00  0.00    -0.471 OA
BRANCH  20  21
ATOM     21  C   UNL     1      33.060 -22.794 -17.862  0.00  0.00    +0.232 C 
BRANCH  21  23
ATOM     22  C   UNL     1      35.110 -19.999 -20.392  0.00  0.00    -0.043 C 
ATOM     23  C   UNL     1      33.777 -21.815 -18.745  0.00  0.00    +0.021 C 
ATOM     24  C   UNL     1      33.714 -20.008 -20.348  0.00  0.00    -0.007 C 
ATOM     25  C   UNL     1      35.837 -20.897 -19.612  0.00  0.00    -0.007 C 
ATOM     26  C   UNL     1      33.048 -20.916 -19.525  0.00  0.00    -0.001 C 
ATOM     27  C   UNL     1      35.171 -21.805 -18.788  0.00  0.00    -0.001 C 
BRANCH  22  28
ATOM     28  C   UNL     1      35.820 -19.028 -21.272  0.00  0.00    -0.050 C 
BRANCH  28  30
ATOM     29  O   UNL     1      34.347 -17.321 -24.813  0.00  0.00    -0.358 OA
ATOM     30  N   UNL     1      34.926 -18.399 -22.242  0.00  0.00    +0.393 N 
ATOM     31  C   UNL     1      35.451 -17.093 -22.664  0.00  0.00    -0.044 C 
ATOM     32  C   UNL     1      34.733 -19.266 -23.413  0.00  0.00    -0.044 C 
ATOM     33  C   UNL     1      33.807 -18.583 -24.416  0.00  0.00    +0.119 C 
ATOM     34  C   UNL     1      34.508 -16.461 -23.684  0.00  0.00    +0.119 C 
ATOM     35  H   UNL     1      34.023 -18.257 -21.789  0.00  0.00    -0.079 HD
ENDBRANCH  28  30
ENDBRANCH  22  28
ENDBRANCH  21  23
ENDBRANCH  20  21
ENDBRANCH   7  20
TORSDOF 6
ENDMDL
MODEL 3
REMARK VINA RESULT:     -11.9      3.452     12.252
REMARK  Name = 67335295
REMARK  6 active torsions:
REMARK  status: ('A' for Active; 'I' for Inactive)
REMARK    1  A    between atoms: N_2  and  C_14
REMARK    2  A    between atoms: C_7  and  O_20
REMARK    3  A    between atoms: O_20  and  C_21
REMARK    4  A    between atoms: C_21  and  C_23
REMARK    5  A    between atoms: C_22  and  C_28
REMARK    6  A    between atoms: C_28  and  N_30
REMARK                            x       y       z     vdW  Elec       q    Type
REMARK                         _______ _______ _______ _____ _____    ______ ____
ROOT
ATOM      1  O   UNL     1      33.409 -14.405 -25.043  0.00  0.00    -0.270 OA
ATOM      2  N   UNL     1      34.264 -14.281 -22.843  0.00  0.00    -0.265 N 
ATOM      3  C   UNL     1      34.808 -15.216 -21.866  0.00  0.00    +0.124 C 
ATOM      4  C   UNL     1      34.730 -16.511 -22.602  0.00  0.00    +0.036 C 
ATOM      5  C   UNL     1      33.890 -14.890 -24.036  0.00  0.00    +0.249 C 
ATOM      6  C   UNL     1      34.190 -16.318 -23.874  0.00  0.00    +0.054 C 
ATOM      7  C   UNL     1      35.105 -17.775 -22.187  0.00  0.00    +0.137 C 
ATOM      8  C   UNL     1      34.005 -17.352 -24.771  0.00  0.00    +0.004 C 
ATOM      9  C   UNL     1      34.927 -18.840 -23.076  0.00  0.00    +0.037 C 
ATOM     10  C   UNL     1      34.382 -18.630 -24.357  0.00  0.00    +0.003 C 
ENDROOT
BRANCH   2  14
ATOM     11  O   UNL     1      32.431 -13.488 -20.993  0.00  0.00    -0.273 OA
ATOM     12  O   UNL     1      32.076  -9.279 -22.824  0.00  0.00    -0.275 OA
ATOM     13  N   UNL     1      32.268 -11.404 -21.953  0.00  0.00    -0.254 N 
ATOM     14  C   UNL     1      34.127 -12.869 -22.599  0.00  0.00    +0.153 C 
ATOM     15  C   UNL     1      34.087 -12.087 -23.903  0.00  0.00    +0.039 C 
ATOM     16  C   UNL     1      33.910 -10.610 -23.598  0.00  0.00    +0.088 C 
ATOM     17  C   UNL     1      32.861 -12.656 -21.790  0.00  0.00    +0.246 C 
ATOM     18  C   UNL     1      32.663 -10.360 -22.784  0.00  0.00    +0.228 C 
ATOM     19  H   UNL     1      31.464 -11.238 -21.408  0.00  0.00    +0.158 HD
ENDBRANCH   2  14
BRANCH   7  20
ATOM     20  O   UNL     1      35.629 -17.987 -20.953  0.00  0.00    -0.471 OA
BRANCH  20  21
ATOM     21  C   UNL     1      36.393 -19.179 -20.765  0.00  0.00    +0.232 C 
BRANCH  21  23
ATOM     22  C   UNL     1      34.028 -22.037 -18.608  0.00  0.00    -0.043 C 
ATOM     23  C   UNL     1      35.566 -20.177 -20.009  0.00  0.00    +0.021 C 
ATOM     24  C   UNL     1      35.419 -22.045 -18.484  0.00  0.00    -0.007 C 
ATOM     25  C   UNL     1      33.408 -21.099 -19.433  0.00  0.00    -0.007 C 
ATOM     26  C   UNL     1      36.187 -21.115 -19.184  0.00  0.00    -0.001 C 
ATOM     27  C   UNL     1      34.177 -20.169 -20.133  0.00  0.00    -0.001 C 
BRANCH  22  28
ATOM     28  C   UNL     1      33.208 -23.031 -17.859  0.00  0.00    -0.050 C 
BRANCH  28  30
ATOM     29  O   UNL     1      32.827 -23.562 -13.713  0.00  0.00    -0.358 OA
ATOM     30  N   UNL     1      33.187 -22.765 -16.422  0.00  0.00    +0.393 N 
ATOM     31  C   UNL     1      31.850 -23.015 -15.866  0.00  0.00    -0.044 C 
ATOM     32  C   UNL     1      34.185 -23.588 -15.725  0.00  0.00    -0.044 C 
ATOM     33  C   UNL     1      34.135 -23.303 -14.226  0.00  0.00    +0.119 C 
ATOM     34  C   UNL     1      31.856 -22.743 -14.364  0.00  0.00    +0.119 C 
ATOM     35  H   UNL     1      33.419 -21.782 -16.282  0.00  0.00    -0.079 HD
ENDBRANCH  28  30
ENDBRANCH  22  28
ENDBRANCH  21  23
ENDBRANCH  20  21
ENDBRANCH   7  20
TORSDOF 6
ENDMDL
MODEL 4
REMARK VINA RESULT:     -11.8      8.033     15.718
REMARK  Name = 67335295
REMARK  6 active torsions:
REMARK  status: ('A' for Active; 'I' for Inactive)
REMARK    1  A    between atoms: N_2  and  C_14
REMARK    2  A    between atoms: C_7  and  O_20
REMARK    3  A    between atoms: O_20  and  C_21
REMARK    4  A    between atoms: C_21  and  C_23
REMARK    5  A    between atoms: C_22  and  C_28
REMARK    6  A    between atoms: C_28  and  N_30
REMARK                            x       y       z     vdW  Elec       q    Type
REMARK                         _______ _______ _______ _____ _____    ______ ____
ROOT
ATOM      1  O   UNL     1      32.540  -6.230 -20.082  0.00  0.00    -0.270 OA
ATOM      2  N   UNL     1      32.846  -7.224 -22.204  0.00  0.00    -0.265 N 
ATOM      3  C   UNL     1      32.749  -8.565 -22.767  0.00  0.00    +0.124 C 
ATOM      4  C   UNL     1      32.354  -9.371 -21.576  0.00  0.00    +0.036 C 
ATOM      5  C   UNL     1      32.553  -7.178 -20.845  0.00  0.00    +0.249 C 
ATOM      6  C   UNL     1      32.240  -8.556 -20.450  0.00  0.00    +0.054 C 
ATOM      7  C   UNL     1      32.110 -10.729 -21.483  0.00  0.00    +0.137 C 
ATOM      8  C   UNL     1      31.886  -9.044 -19.208  0.00  0.00    +0.004 C 
ATOM      9  C   UNL     1      31.750 -11.249 -20.236  0.00  0.00    +0.037 C 
ATOM     10  C   UNL     1      31.638 -10.414 -19.108  0.00  0.00    +0.003 C 
ENDROOT
BRANCH   2  14
ATOM     11  O   UNL     1      30.832  -5.639 -23.123  0.00  0.00    -0.273 OA
ATOM     12  O   UNL     1      33.432  -3.927 -26.515  0.00  0.00    -0.275 OA
ATOM     13  N   UNL     1      32.159  -4.826 -24.818  0.00  0.00    -0.254 N 
ATOM     14  C   UNL     1      33.206  -6.064 -22.976  0.00  0.00    +0.153 C 
ATOM     15  C   UNL     1      34.268  -6.402 -24.012  0.00  0.00    +0.039 C 
ATOM     16  C   UNL     1      34.592  -5.160 -24.822  0.00  0.00    +0.088 C 
ATOM     17  C   UNL     1      31.946  -5.530 -23.633  0.00  0.00    +0.246 C 
ATOM     18  C   UNL     1      33.358  -4.593 -25.484  0.00  0.00    +0.228 C 
ATOM     19  H   UNL     1      31.354  -4.444 -25.237  0.00  0.00    +0.158 HD
ENDBRANCH   2  14
BRANCH   7  20
ATOM     20  O   UNL     1      32.217 -11.542 -22.564  0.00  0.00    -0.471 OA
BRANCH  20  21
ATOM     21  C   UNL     1      33.514 -11.687 -23.146  0.00  0.00    +0.232 C 
BRANCH  21  23
ATOM     22  C   UNL     1      34.473 -15.860 -23.423  0.00  0.00    -0.043 C 
ATOM     23  C   UNL     1      33.847 -13.147 -23.242  0.00  0.00    +0.021 C 
ATOM     24  C   UNL     1      34.719 -15.164 -22.238  0.00  0.00    -0.007 C 
ATOM     25  C   UNL     1      33.915 -15.199 -24.516  0.00  0.00    -0.007 C 
ATOM     26  C   UNL     1      34.407 -13.808 -22.148  0.00  0.00    -0.001 C 
ATOM     27  C   UNL     1      33.601 -13.842 -24.425  0.00  0.00    -0.001 C 
BRANCH  22  28
ATOM     28  C   UNL     1      34.808 -17.310 -23.518  0.00  0.00    -0.050 C 
BRANCH  28  30
ATOM     29  O   UNL     1      36.005 -20.013 -20.538  0.00  0.00    -0.358 OA
ATOM     30  N   UNL     1      35.069 -17.908 -22.209  0.00  0.00    +0.393 N 
ATOM     31  C   UNL     1      34.309 -19.155 -22.046  0.00  0.00    -0.044 C 
ATOM     32  C   UNL     1      36.505 -18.165 -22.030  0.00  0.00    -0.044 C 
ATOM     33  C   UNL     1      36.750 -18.801 -20.664  0.00  0.00    +0.119 C 
ATOM     34  C   UNL     1      34.606 -19.766 -20.680  0.00  0.00    +0.119 C 
ATOM     35  H   UNL     1      34.765 -17.245 -21.497  0.00  0.00    -0.079 HD
ENDBRANCH  28  30
ENDBRANCH  22  28
ENDBRANCH  21  23
ENDBRANCH  20  21
ENDBRANCH   7  20
TORSDOF 6
ENDMDL
MODEL 5
REMARK VINA RESULT:     -11.4      2.649      5.509
REMARK  Name = 67335295
REMARK  6 active torsions:
REMARK  status: ('A' for Active; 'I' for Inactive)
REMARK    1  A    between atoms: N_2  and  C_14
REMARK    2  A    between atoms: C_7  and  O_20
REMARK    3  A    between atoms: O_20  and  C_21
REMARK    4  A    between atoms: C_21  and  C_23
REMARK    5  A    between atoms: C_22  and  C_28
REMARK    6  A    between atoms: C_28  and  N_30
REMARK                            x       y       z     vdW  Elec       q    Type
REMARK                         _______ _______ _______ _____ _____    ______ ____
ROOT
ATOM      1  O   UNL     1      31.841 -24.077 -12.373  0.00  0.00    -0.270 OA
ATOM      2  N   UNL     1      31.808 -23.438 -14.648  0.00  0.00    -0.265 N 
ATOM      3  C   UNL     1      32.797 -23.146 -15.679  0.00  0.00    +0.124 C 
ATOM      4  C   UNL     1      34.077 -23.347 -14.944  0.00  0.00    +0.036 C 
ATOM      5  C   UNL     1      32.375 -23.779 -13.426  0.00  0.00    +0.249 C 
ATOM      6  C   UNL     1      33.829 -23.718 -13.622  0.00  0.00    +0.054 C 
ATOM      7  C   UNL     1      35.376 -23.215 -15.399  0.00  0.00    +0.137 C 
ATOM      8  C   UNL     1      34.839 -23.969 -12.714  0.00  0.00    +0.004 C 
ATOM      9  C   UNL     1      36.418 -23.463 -14.500  0.00  0.00    +0.037 C 
ATOM     10  C   UNL     1      36.151 -23.837 -13.169  0.00  0.00    +0.003 C 
ENDROOT
BRANCH   2  14
ATOM     11  O   UNL     1      30.456 -25.796 -14.816  0.00  0.00    -0.273 OA
ATOM     12  O   UNL     1      27.010 -23.903 -17.211  0.00  0.00    -0.275 OA
ATOM     13  N   UNL     1      28.766 -24.814 -16.030  0.00  0.00    -0.254 N 
ATOM     14  C   UNL     1      30.387 -23.380 -14.873  0.00  0.00    +0.153 C 
ATOM     15  C   UNL     1      30.044 -22.376 -15.963  0.00  0.00    +0.039 C 
ATOM     16  C   UNL     1      28.542 -22.374 -16.188  0.00  0.00    +0.088 C 
ATOM     17  C   UNL     1      29.916 -24.775 -15.242  0.00  0.00    +0.246 C 
ATOM     18  C   UNL     1      28.035 -23.750 -16.548  0.00  0.00    +0.228 C 
ATOM     19  H   UNL     1      28.429 -25.713 -16.248  0.00  0.00    +0.158 HD
ENDBRANCH   2  14
BRANCH   7  20
ATOM     20  O   UNL     1      35.642 -22.853 -16.680  0.00  0.00    -0.471 OA
BRANCH  20  21
ATOM     21  C   UNL     1      34.525 -22.581 -17.527  0.00  0.00    +0.232 C 
BRANCH  21  23
ATOM     22  C   UNL     1      35.701 -19.757 -20.536  0.00  0.00    -0.043 C 
ATOM     23  C   UNL     1      34.936 -21.592 -18.577  0.00  0.00    +0.021 C 
ATOM     24  C   UNL     1      34.353 -20.082 -20.372  0.00  0.00    -0.007 C 
ATOM     25  C   UNL     1      36.665 -20.350 -19.721  0.00  0.00    -0.007 C 
ATOM     26  C   UNL     1      33.971 -21.000 -19.393  0.00  0.00    -0.001 C 
ATOM     27  C   UNL     1      36.282 -21.267 -18.741  0.00  0.00    -0.001 C 
BRANCH  22  28
ATOM     28  C   UNL     1      36.108 -18.777 -21.583  0.00  0.00    -0.050 C 
BRANCH  28  30
ATOM     29  O   UNL     1      33.843 -17.550 -24.897  0.00  0.00    -0.358 OA
ATOM     30  N   UNL     1      34.984 -18.353 -22.415  0.00  0.00    +0.393 N 
ATOM     31  C   UNL     1      35.225 -17.016 -22.975  0.00  0.00    -0.044 C 
ATOM     32  C   UNL     1      34.745 -19.317 -23.499  0.00  0.00    -0.044 C 
ATOM     33  C   UNL     1      33.577 -18.848 -24.362  0.00  0.00    +0.119 C 
ATOM     34  C   UNL     1      34.045 -16.601 -23.849  0.00  0.00    +0.119 C 
ATOM     35  H   UNL     1      34.154 -18.315 -21.824  0.00  0.00    -0.079 HD
ENDBRANCH  28  30
ENDBRANCH  22  28
ENDBRANCH  21  23
ENDBRANCH  20  21
ENDBRANCH   7  20
TORSDOF 6
ENDMDL
MODEL 6
REMARK VINA RESULT:     -10.9      9.017     16.733
REMARK  Name = 67335295
REMARK  6 active torsions:
REMARK  status: ('A' for Active; 'I' for Inactive)
REMARK    1  A    between atoms: N_2  and  C_14
REMARK    2  A    between atoms: C_7  and  O_20
REMARK    3  A    between atoms: O_20  and  C_21
REMARK    4  A    between atoms: C_21  and  C_23
REMARK    5  A    between atoms: C_22  and  C_28
REMARK    6  A    between atoms: C_28  and  N_30
REMARK                            x       y       z     vdW  Elec       q    Type
REMARK                         _______ _______ _______ _____ _____    ______ ____
ROOT
ATOM      1  O   UNL     1      32.591  -4.582 -21.681  0.00  0.00    -0.270 OA
ATOM      2  N   UNL     1      32.334  -6.278 -23.306  0.00  0.00    -0.265 N 
ATOM      3  C   UNL     1      32.113  -7.719 -23.304  0.00  0.00    +0.124 C 
ATOM      4  C   UNL     1      32.066  -8.022 -21.845  0.00  0.00    +0.036 C 
ATOM      5  C   UNL     1      32.416  -5.735 -22.029  0.00  0.00    +0.249 C 
ATOM      6  C   UNL     1      32.244  -6.857 -21.098  0.00  0.00    +0.054 C 
ATOM      7  C   UNL     1      31.879  -9.236 -21.211  0.00  0.00    +0.137 C 
ATOM      8  C   UNL     1      32.243  -6.848 -19.717  0.00  0.00    +0.004 C 
ATOM      9  C   UNL     1      31.874  -9.255 -19.813  0.00  0.00    +0.037 C 
ATOM     10  C   UNL     1      32.055  -8.071 -19.073  0.00  0.00    +0.003 C 
ENDROOT
BRANCH   2  14
ATOM     11  O   UNL     1      34.843  -5.734 -24.214  0.00  0.00    -0.273 OA
ATOM     12  O   UNL     1      33.427  -2.033 -26.561  0.00  0.00    -0.275 OA
ATOM     13  N   UNL     1      34.097  -3.879 -25.354  0.00  0.00    -0.254 N 
ATOM     14  C   UNL     1      32.455  -5.496 -24.508  0.00  0.00    +0.153 C 
ATOM     15  C   UNL     1      31.520  -4.297 -24.480  0.00  0.00    +0.039 C 
ATOM     16  C   UNL     1      31.705  -3.485 -25.749  0.00  0.00    +0.088 C 
ATOM     17  C   UNL     1      33.904  -5.060 -24.638  0.00  0.00    +0.246 C 
ATOM     18  C   UNL     1      33.139  -3.042 -25.918  0.00  0.00    +0.228 C 
ATOM     19  H   UNL     1      35.034  -3.603 -25.477  0.00  0.00    +0.158 HD
ENDBRANCH   2  14
BRANCH   7  20
ATOM     20  O   UNL     1      31.706 -10.383 -21.917  0.00  0.00    -0.471 OA
BRANCH  20  21
ATOM     21  C   UNL     1      31.499 -11.583 -21.171  0.00  0.00    +0.232 C 
BRANCH  21  23
ATOM     22  C   UNL     1      34.300 -14.555 -22.489  0.00  0.00    -0.043 C 
ATOM     23  C   UNL     1      32.480 -12.621 -21.632  0.00  0.00    +0.021 C 
ATOM     24  C   UNL     1      33.642 -13.753 -23.423  0.00  0.00    -0.007 C 
ATOM     25  C   UNL     1      34.047 -14.390 -21.128  0.00  0.00    -0.007 C 
ATOM     26  C   UNL     1      32.732 -12.786 -22.994  0.00  0.00    -0.001 C 
ATOM     27  C   UNL     1      33.138 -13.422 -20.699  0.00  0.00    -0.001 C 
BRANCH  22  28
ATOM     28  C   UNL     1      35.271 -15.589 -22.948  0.00  0.00    -0.050 C 
BRANCH  28  30
ATOM     29  O   UNL     1      34.705 -19.683 -23.681  0.00  0.00    -0.358 OA
ATOM     30  N   UNL     1      34.696 -16.932 -22.947  0.00  0.00    +0.393 N 
ATOM     31  C   UNL     1      34.376 -17.364 -24.314  0.00  0.00    -0.044 C 
ATOM     32  C   UNL     1      35.614 -17.892 -22.318  0.00  0.00    -0.044 C 
ATOM     33  C   UNL     1      34.998 -19.289 -22.340  0.00  0.00    +0.119 C 
ATOM     34  C   UNL     1      33.788 -18.772 -24.288  0.00  0.00    +0.119 C 
ATOM     35  H   UNL     1      33.833 -16.903 -22.404  0.00  0.00    -0.079 HD
ENDBRANCH  28  30
ENDBRANCH  22  28
ENDBRANCH  21  23
ENDBRANCH  20  21
ENDBRANCH   7  20
TORSDOF 6
ENDMDL
MODEL 7
REMARK VINA RESULT:     -10.8      7.075     14.972
REMARK  Name = 67335295
REMARK  6 active torsions:
REMARK  status: ('A' for Active; 'I' for Inactive)
REMARK    1  A    between atoms: N_2  and  C_14
REMARK    2  A    between atoms: C_7  and  O_20
REMARK    3  A    between atoms: O_20  and  C_21
REMARK    4  A    between atoms: C_21  and  C_23
REMARK    5  A    between atoms: C_22  and  C_28
REMARK    6  A    between atoms: C_28  and  N_30
REMARK                            x       y       z     vdW  Elec       q    Type
REMARK                         _______ _______ _______ _____ _____    ______ ____
ROOT
ATOM      1  O   UNL     1      31.320  -8.147 -21.270  0.00  0.00    -0.270 OA
ATOM      2  N   UNL     1      32.685  -8.733 -23.108  0.00  0.00    -0.265 N 
ATOM      3  C   UNL     1      33.323  -9.945 -23.607  0.00  0.00    +0.124 C 
ATOM      4  C   UNL     1      32.908 -10.953 -22.590  0.00  0.00    +0.036 C 
ATOM      5  C   UNL     1      31.963  -8.936 -21.938  0.00  0.00    +0.249 C 
ATOM      6  C   UNL     1      32.110 -10.359 -21.611  0.00  0.00    +0.054 C 
ATOM      7  C   UNL     1      33.207 -12.301 -22.524  0.00  0.00    +0.137 C 
ATOM      8  C   UNL     1      31.586 -11.065 -20.547  0.00  0.00    +0.004 C 
ATOM      9  C   UNL     1      32.689 -13.039 -21.455  0.00  0.00    +0.037 C 
ATOM     10  C   UNL     1      31.885 -12.426 -20.475  0.00  0.00    +0.003 C 
ENDROOT
BRANCH   2  14
ATOM     11  O   UNL     1      34.633  -7.033 -22.254  0.00  0.00    -0.273 OA
ATOM     12  O   UNL     1      32.413  -3.332 -23.859  0.00  0.00    -0.275 OA
ATOM     13  N   UNL     1      33.480  -5.208 -23.051  0.00  0.00    -0.254 N 
ATOM     14  C   UNL     1      32.791  -7.455 -23.761  0.00  0.00    +0.153 C 
ATOM     15  C   UNL     1      31.424  -6.811 -23.936  0.00  0.00    +0.039 C 
ATOM     16  C   UNL     1      31.587  -5.455 -24.597  0.00  0.00    +0.088 C 
ATOM     17  C   UNL     1      33.708  -6.579 -22.927  0.00  0.00    +0.246 C 
ATOM     18  C   UNL     1      32.503  -4.558 -23.799  0.00  0.00    +0.228 C 
ATOM     19  H   UNL     1      34.090  -4.626 -22.543  0.00  0.00    +0.158 HD
ENDBRANCH   2  14
BRANCH   7  20
ATOM     20  O   UNL     1      33.983 -12.899 -23.463  0.00  0.00    -0.471 OA
BRANCH  20  21
ATOM     21  C   UNL     1      33.439 -14.040 -24.128  0.00  0.00    +0.232 C 
BRANCH  21  23
ATOM     22  C   UNL     1      35.360 -17.578 -22.642  0.00  0.00    -0.043 C 
ATOM     23  C   UNL     1      34.113 -15.277 -23.609  0.00  0.00    +0.021 C 
ATOM     24  C   UNL     1      34.755 -17.588 -23.901  0.00  0.00    -0.007 C 
ATOM     25  C   UNL     1      35.340 -16.418 -21.869  0.00  0.00    -0.007 C 
ATOM     26  C   UNL     1      34.132 -16.437 -24.384  0.00  0.00    -0.001 C 
ATOM     27  C   UNL     1      34.717 -15.267 -22.352  0.00  0.00    -0.001 C 
BRANCH  22  28
ATOM     28  C   UNL     1      36.026 -18.809 -22.127  0.00  0.00    -0.050 C 
BRANCH  28  30
ATOM     29  O   UNL     1      34.107 -21.460 -19.498  0.00  0.00    -0.358 OA
ATOM     30  N   UNL     1      35.355 -19.350 -20.946  0.00  0.00    +0.393 N 
ATOM     31  C   UNL     1      34.005 -19.821 -21.284  0.00  0.00    -0.044 C 
ATOM     32  C   UNL     1      36.138 -20.446 -20.359  0.00  0.00    -0.044 C 
ATOM     33  C   UNL     1      35.413 -21.004 -19.137  0.00  0.00    +0.119 C 
ATOM     34  C   UNL     1      33.330 -20.393 -20.041  0.00  0.00    +0.119 C 
ATOM     35  H   UNL     1      35.276 -18.601 -20.259  0.00  0.00    -0.079 HD
ENDBRANCH  28  30
ENDBRANCH  22  28
ENDBRANCH  21  23
ENDBRANCH  20  21
ENDBRANCH   7  20
TORSDOF 6
ENDMDL
MODEL 8
REMARK VINA RESULT:     -10.7      5.632     10.403
REMARK  Name = 67335295
REMARK  6 active torsions:
REMARK  status: ('A' for Active; 'I' for Inactive)
REMARK    1  A    between atoms: N_2  and  C_14
REMARK    2  A    between atoms: C_7  and  O_20
REMARK    3  A    between atoms: O_20  and  C_21
REMARK    4  A    between atoms: C_21  and  C_23
REMARK    5  A    between atoms: C_22  and  C_28
REMARK    6  A    between atoms: C_28  and  N_30
REMARK                            x       y       z     vdW  Elec       q    Type
REMARK                         _______ _______ _______ _____ _____    ______ ____
ROOT
ATOM      1  O   UNL     1      34.826 -20.014 -23.753  0.00  0.00    -0.270 OA
ATOM      2  N   UNL     1      35.076 -19.083 -21.596  0.00  0.00    -0.265 N 
ATOM      3  C   UNL     1      35.076 -17.745 -21.015  0.00  0.00    +0.124 C 
ATOM      4  C   UNL     1      34.851 -16.889 -22.214  0.00  0.00    +0.036 C 
ATOM      5  C   UNL     1      34.880 -19.082 -22.972  0.00  0.00    +0.249 C 
ATOM      6  C   UNL     1      34.737 -17.674 -23.362  0.00  0.00    +0.054 C 
ATOM      7  C   UNL     1      34.753 -15.512 -22.298  0.00  0.00    +0.137 C 
ATOM      8  C   UNL     1      34.524 -17.137 -24.616  0.00  0.00    +0.004 C 
ATOM      9  C   UNL     1      34.539 -14.942 -23.557  0.00  0.00    +0.037 C 
ATOM     10  C   UNL     1      34.425 -15.748 -24.706  0.00  0.00    +0.003 C 
ENDROOT
BRANCH   2  14
ATOM     11  O   UNL     1      32.855 -20.296 -20.592  0.00  0.00    -0.273 OA
ATOM     12  O   UNL     1      35.242 -22.408 -17.269  0.00  0.00    -0.275 OA
ATOM     13  N   UNL     1      34.082 -21.314 -18.934  0.00  0.00    -0.254 N 
ATOM     14  C   UNL     1      35.261 -20.283 -20.823  0.00  0.00    +0.153 C 
ATOM     15  C   UNL     1      36.399 -20.125 -19.826  0.00  0.00    +0.039 C 
ATOM     16  C   UNL     1      36.536 -21.399 -19.013  0.00  0.00    +0.088 C 
ATOM     17  C   UNL     1      33.952 -20.591 -20.119  0.00  0.00    +0.246 C 
ATOM     18  C   UNL     1      35.247 -21.744 -18.305  0.00  0.00    +0.228 C 
ATOM     19  H   UNL     1      33.239 -21.552 -18.484  0.00  0.00    +0.158 HD
ENDBRANCH   2  14
BRANCH   7  20
ATOM     20  O   UNL     1      34.864 -14.727 -21.196  0.00  0.00    -0.471 OA
BRANCH  20  21
ATOM     21  C   UNL     1      33.675 -14.496 -20.438  0.00  0.00    +0.232 C 
BRANCH  21  23
ATOM     22  C   UNL     1      31.918 -10.785 -21.685  0.00  0.00    -0.043 C 
ATOM     23  C   UNL     1      33.062 -13.197 -20.873  0.00  0.00    +0.021 C 
ATOM     24  C   UNL     1      31.441 -11.436 -20.545  0.00  0.00    -0.007 C 
ATOM     25  C   UNL     1      32.966 -11.341 -22.417  0.00  0.00    -0.007 C 
ATOM     26  C   UNL     1      32.013 -12.642 -20.140  0.00  0.00    -0.001 C 
ATOM     27  C   UNL     1      33.539 -12.547 -22.011  0.00  0.00    -0.001 C 
BRANCH  22  28
ATOM     28  C   UNL     1      31.306  -9.496 -22.118  0.00  0.00    -0.050 C 
BRANCH  28  30
ATOM     29  O   UNL     1      32.388  -5.827 -20.391  0.00  0.00    -0.358 OA
ATOM     30  N   UNL     1      32.093  -8.338 -21.698  0.00  0.00    +0.393 N 
ATOM     31  C   UNL     1      31.549  -7.102 -22.277  0.00  0.00    -0.044 C 
ATOM     32  C   UNL     1      32.129  -8.235 -20.233  0.00  0.00    -0.044 C 
ATOM     33  C   UNL     1      32.944  -7.013 -19.819  0.00  0.00    +0.119 C 
ATOM     34  C   UNL     1      32.379  -5.907 -21.816  0.00  0.00    +0.119 C 
ATOM     35  H   UNL     1      33.045  -8.467 -22.040  0.00  0.00    -0.079 HD
ENDBRANCH  28  30
ENDBRANCH  22  28
ENDBRANCH  21  23
ENDBRANCH  20  21
ENDBRANCH   7  20
TORSDOF 6
ENDMDL
MODEL 9
REMARK VINA RESULT:     -10.7      2.541     10.537
REMARK  Name = 67335295
REMARK  6 active torsions:
REMARK  status: ('A' for Active; 'I' for Inactive)
REMARK    1  A    between atoms: N_2  and  C_14
REMARK    2  A    between atoms: C_7  and  O_20
REMARK    3  A    between atoms: O_20  and  C_21
REMARK    4  A    between atoms: C_21  and  C_23
REMARK    5  A    between atoms: C_22  and  C_28
REMARK    6  A    between atoms: C_28  and  N_30
REMARK                            x       y       z     vdW  Elec       q    Type
REMARK                         _______ _______ _______ _____ _____    ______ ____
ROOT
ATOM      1  O   UNL     1      32.591 -19.941 -21.129  0.00  0.00    -0.270 OA
ATOM      2  N   UNL     1      34.945 -19.905 -20.927  0.00  0.00    -0.265 N 
ATOM      3  C   UNL     1      35.937 -20.469 -20.020  0.00  0.00    +0.124 C 
ATOM      4  C   UNL     1      35.082 -21.214 -19.052  0.00  0.00    +0.036 C 
ATOM      5  C   UNL     1      33.640 -20.241 -20.589  0.00  0.00    +0.249 C 
ATOM      6  C   UNL     1      33.734 -21.079 -19.387  0.00  0.00    +0.054 C 
ATOM      7  C   UNL     1      35.456 -21.961 -17.951  0.00  0.00    +0.137 C 
ATOM      8  C   UNL     1      32.721 -21.669 -18.658  0.00  0.00    +0.004 C 
ATOM      9  C   UNL     1      34.450 -22.569 -17.195  0.00  0.00    +0.037 C 
ATOM     10  C   UNL     1      33.094 -22.425 -17.545  0.00  0.00    +0.003 C 
ENDROOT
BRANCH   2  14
ATOM     11  O   UNL     1      35.587 -17.301 -20.454  0.00  0.00    -0.273 OA
ATOM     12  O   UNL     1      34.513 -16.027 -24.746  0.00  0.00    -0.275 OA
ATOM     13  N   UNL     1      35.018 -16.704 -22.601  0.00  0.00    -0.254 N 
ATOM     14  C   UNL     1      35.283 -19.082 -22.059  0.00  0.00    +0.153 C 
ATOM     15  C   UNL     1      34.304 -19.293 -23.203  0.00  0.00    +0.039 C 
ATOM     16  C   UNL     1      34.678 -18.384 -24.360  0.00  0.00    +0.088 C 
ATOM     17  C   UNL     1      35.289 -17.636 -21.600  0.00  0.00    +0.246 C 
ATOM     18  C   UNL     1      34.705 -16.935 -23.937  0.00  0.00    +0.228 C 
ATOM     19  H   UNL     1      35.053 -15.759 -22.326  0.00  0.00    +0.158 HD
ENDBRANCH   2  14
BRANCH   7  20
ATOM     20  O   UNL     1      36.761 -22.105 -17.605  0.00  0.00    -0.471 OA
BRANCH  20  21
ATOM     21  C   UNL     1      37.174 -21.526 -16.366  0.00  0.00    +0.232 C 
BRANCH  21  23
ATOM     22  C   UNL     1      38.085 -24.672 -13.593  0.00  0.00    -0.043 C 
ATOM     23  C   UNL     1      37.494 -22.625 -15.395  0.00  0.00    +0.021 C 
ATOM     24  C   UNL     1      38.949 -24.407 -14.657  0.00  0.00    -0.007 C 
ATOM     25  C   UNL     1      36.926 -23.914 -13.431  0.00  0.00    -0.007 C 
ATOM     26  C   UNL     1      38.653 -23.384 -15.558  0.00  0.00    -0.001 C 
ATOM     27  C   UNL     1      36.630 -22.890 -14.332  0.00  0.00    -0.001 C 
BRANCH  22  28
ATOM     28  C   UNL     1      38.402 -25.767 -12.632  0.00  0.00    -0.050 C 
BRANCH  28  30
ATOM     29  O   UNL     1      38.418 -29.909 -13.311  0.00  0.00    -0.358 OA
ATOM     30  N   UNL     1      38.070 -27.087 -13.163  0.00  0.00    +0.393 N 
ATOM     31  C   UNL     1      39.231 -27.684 -13.838  0.00  0.00    -0.044 C 
ATOM     32  C   UNL     1      37.597 -27.977 -12.093  0.00  0.00    -0.044 C 
ATOM     33  C   UNL     1      37.270 -29.352 -12.669  0.00  0.00    +0.119 C 
ATOM     34  C   UNL     1      38.864 -29.065 -14.373  0.00  0.00    +0.119 C 
ATOM     35  H   UNL     1      37.320 -26.971 -13.845  0.00  0.00    -0.079 HD
ENDBRANCH  28  30
ENDBRANCH  22  28
ENDBRANCH  21  23
ENDBRANCH  20  21
ENDBRANCH   7  20
TORSDOF 6
ENDMDL
