MODEL 1
REMARK VINA RESULT:     -12.7      0.000      0.000
REMARK  Name = 21081761
REMARK  5 active torsions:
REMARK  status: ('A' for Active; 'I' for Inactive)
REMARK    1  A    between atoms: N_2  and  C_6
REMARK    2  A    between atoms: C_3  and  C_25
REMARK    3  A    between atoms: C_7  and  O_12
REMARK    4  A    between atoms: O_12  and  C_16
REMARK    5  A    between atoms: N_24  and  C_31
REMARK                            x       y       z     vdW  Elec       q    Type
REMARK                         _______ _______ _______ _____ _____    ______ ____
ROOT
ATOM      1  O   UNL     1      32.341 -13.521 -22.079  0.00  0.00    -0.270 OA
ATOM      2  N   UNL     1      34.491 -13.915 -22.967  0.00  0.00    -0.280 N 
ATOM      3  C   UNL     1      33.366 -13.155 -22.641  0.00  0.00    +0.254 C 
ATOM      4  H   UNL     1      35.221 -13.436 -23.423  0.00  0.00    +0.155 HD
ENDROOT
BRANCH   2   6
ATOM      5  F   UNL     1      34.589 -18.442 -24.506  0.00  0.00    -0.201 F 
ATOM      6  C   UNL     1      34.707 -15.272 -22.726  0.00  0.00    +0.053 C 
ATOM      7  C   UNL     1      35.136 -17.986 -22.243  0.00  0.00    +0.173 C 
ATOM      8  C   UNL     1      34.537 -16.200 -23.754  0.00  0.00    +0.047 C 
ATOM      9  C   UNL     1      35.092 -15.702 -21.456  0.00  0.00    +0.018 C 
ATOM     10  C   UNL     1      34.752 -17.557 -23.513  0.00  0.00    +0.176 C 
ATOM     11  C   UNL     1      35.306 -17.059 -21.214  0.00  0.00    +0.041 C 
BRANCH   7  12
ATOM     12  O   UNL     1      35.348 -19.331 -22.003  0.00  0.00    -0.451 OA
BRANCH  12  16
ATOM     13  N   UNL     1      35.024 -21.792 -18.064  0.00  0.00    -0.297 N 
ATOM     14  N   UNL     1      32.927 -21.165 -19.069  0.00  0.00    -0.229 NA
ATOM     15  C   UNL     1      35.146 -20.611 -19.955  0.00  0.00    +0.067 C 
ATOM     16  C   UNL     1      34.579 -19.929 -21.045  0.00  0.00    +0.150 C 
ATOM     17  C   UNL     1      34.273 -21.185 -19.036  0.00  0.00    +0.135 C 
ATOM     18  C   UNL     1      36.463 -20.893 -19.504  0.00  0.00    +0.022 C 
ATOM     19  C   UNL     1      36.357 -21.621 -18.339  0.00  0.00    +0.063 C 
ATOM     20  C   UNL     1      33.188 -19.877 -21.128  0.00  0.00    +0.058 C 
ATOM     21  C   UNL     1      32.437 -20.497 -20.139  0.00  0.00    +0.103 C 
ATOM     22  H   UNL     1      34.664 -22.277 -17.287  0.00  0.00    +0.154 HD
ENDBRANCH  12  16
ENDBRANCH   7  12
ENDBRANCH   2   6
BRANCH   3  25
ATOM     23  O   UNL     1      31.994 -10.926 -21.460  0.00  0.00    -0.269 OA
ATOM     24  N   UNL     1      33.050  -9.320 -22.837  0.00  0.00    -0.233 N 
ATOM     25  C   UNL     1      33.499 -11.753 -23.052  0.00  0.00    +0.108 C 
ATOM     26  C   UNL     1      32.784 -10.630 -22.357  0.00  0.00    +0.261 C 
ATOM     27  C   UNL     1      33.877  -9.143 -23.947  0.00  0.00    +0.072 C 
ATOM     28  C   UNL     1      34.286 -11.503 -24.106  0.00  0.00    +0.010 C 
ATOM     29  C   UNL     1      34.474 -10.162 -24.574  0.00  0.00    +0.017 C 
BRANCH  24  31
ATOM     30  F   UNL     1      30.707  -4.917 -20.336  0.00  0.00    -0.204 F 
ATOM     31  C   UNL     1      32.440  -8.175 -22.187  0.00  0.00    +0.059 C 
ATOM     32  C   UNL     1      32.834  -7.814 -20.899  0.00  0.00    +0.018 C 
ATOM     33  C   UNL     1      31.461  -7.436 -22.851  0.00  0.00    +0.018 C 
ATOM     34  C   UNL     1      32.249  -6.713 -20.274  0.00  0.00    +0.031 C 
ATOM     35  C   UNL     1      30.876  -6.335 -22.226  0.00  0.00    +0.031 C 
ATOM     36  C   UNL     1      31.270  -5.973 -20.937  0.00  0.00    +0.140 C 
ENDBRANCH  24  31
ENDBRANCH   3  25
TORSDOF 5
ENDMDL
MODEL 2
REMARK VINA RESULT:     -12.0      2.152      3.143
REMARK  Name = 21081761
REMARK  5 active torsions:
REMARK  status: ('A' for Active; 'I' for Inactive)
REMARK    1  A    between atoms: N_2  and  C_6
REMARK    2  A    between atoms: C_3  and  C_25
REMARK    3  A    between atoms: C_7  and  O_12
REMARK    4  A    between atoms: O_12  and  C_16
REMARK    5  A    between atoms: N_24  and  C_31
REMARK                            x       y       z     vdW  Elec       q    Type
REMARK                         _______ _______ _______ _____ _____    ______ ____
ROOT
ATOM      1  O   UNL     1      31.269 -12.516 -21.755  0.00  0.00    -0.270 OA
ATOM      2  N   UNL     1      33.616 -12.391 -21.957  0.00  0.00    -0.280 N 
ATOM      3  C   UNL     1      32.326 -11.898 -21.748  0.00  0.00    +0.254 C 
ATOM      4  H   UNL     1      34.345 -11.730 -21.912  0.00  0.00    +0.155 HD
ENDROOT
BRANCH   2   6
ATOM      5  F   UNL     1      34.216 -16.001 -25.036  0.00  0.00    -0.201 F 
ATOM      6  C   UNL     1      33.999 -13.706 -22.222  0.00  0.00    +0.053 C 
ATOM      7  C   UNL     1      34.761 -16.337 -22.751  0.00  0.00    +0.173 C 
ATOM      8  C   UNL     1      33.916 -14.209 -23.521  0.00  0.00    +0.047 C 
ATOM      9  C   UNL     1      34.464 -14.519 -21.188  0.00  0.00    +0.018 C 
ATOM     10  C   UNL     1      34.297 -15.525 -23.786  0.00  0.00    +0.176 C 
ATOM     11  C   UNL     1      34.844 -15.835 -21.452  0.00  0.00    +0.041 C 
BRANCH   7  12
ATOM     12  O   UNL     1      35.137 -17.641 -23.012  0.00  0.00    -0.451 OA
BRANCH  12  16
ATOM     13  N   UNL     1      34.372 -20.747 -19.630  0.00  0.00    -0.297 N 
ATOM     14  N   UNL     1      36.628 -19.919 -19.784  0.00  0.00    -0.229 NA
ATOM     15  C   UNL     1      34.772 -19.256 -21.242  0.00  0.00    +0.067 C 
ATOM     16  C   UNL     1      35.604 -18.385 -21.965  0.00  0.00    +0.150 C 
ATOM     17  C   UNL     1      35.347 -19.967 -20.194  0.00  0.00    +0.135 C 
ATOM     18  C   UNL     1      33.403 -19.633 -21.295  0.00  0.00    +0.022 C 
ATOM     19  C   UNL     1      33.186 -20.552 -20.291  0.00  0.00    +0.063 C 
ATOM     20  C   UNL     1      36.942 -18.297 -21.583  0.00  0.00    +0.058 C 
ATOM     21  C   UNL     1      37.383 -19.065 -20.514  0.00  0.00    +0.103 C 
ATOM     22  H   UNL     1      34.501 -21.356 -18.866  0.00  0.00    +0.154 HD
ENDBRANCH  12  16
ENDBRANCH   7  12
ENDBRANCH   2   6
BRANCH   3  25
ATOM     23  O   UNL     1      33.232  -9.870 -23.568  0.00  0.00    -0.269 OA
ATOM     24  N   UNL     1      32.644  -8.078 -22.141  0.00  0.00    -0.233 N 
ATOM     25  C   UNL     1      32.313 -10.453 -21.494  0.00  0.00    +0.108 C 
ATOM     26  C   UNL     1      32.760  -9.444 -22.513  0.00  0.00    +0.261 C 
ATOM     27  C   UNL     1      32.204  -7.745 -20.860  0.00  0.00    +0.072 C 
ATOM     28  C   UNL     1      31.894 -10.055 -20.287  0.00  0.00    +0.010 C 
ATOM     29  C   UNL     1      31.847  -8.662 -19.955  0.00  0.00    +0.017 C 
BRANCH  24  31
ATOM     30  F   UNL     1      34.033  -4.084 -25.779  0.00  0.00    -0.204 F 
ATOM     31  C   UNL     1      33.005  -7.040 -23.087  0.00  0.00    +0.059 C 
ATOM     32  C   UNL     1      34.343  -6.681 -23.251  0.00  0.00    +0.018 C 
ATOM     33  C   UNL     1      32.014  -6.400 -23.832  0.00  0.00    +0.018 C 
ATOM     34  C   UNL     1      34.690  -5.683 -24.161  0.00  0.00    +0.031 C 
ATOM     35  C   UNL     1      32.361  -5.402 -24.742  0.00  0.00    +0.031 C 
ATOM     36  C   UNL     1      33.699  -5.043 -24.907  0.00  0.00    +0.140 C 
ENDBRANCH  24  31
ENDBRANCH   3  25
TORSDOF 5
ENDMDL
MODEL 3
REMARK VINA RESULT:     -11.8      3.172      5.498
REMARK  Name = 21081761
REMARK  5 active torsions:
REMARK  status: ('A' for Active; 'I' for Inactive)
REMARK    1  A    between atoms: N_2  and  C_6
REMARK    2  A    between atoms: C_3  and  C_25
REMARK    3  A    between atoms: C_7  and  O_12
REMARK    4  A    between atoms: O_12  and  C_16
REMARK    5  A    between atoms: N_24  and  C_31
REMARK                            x       y       z     vdW  Elec       q    Type
REMARK                         _______ _______ _______ _____ _____    ______ ____
ROOT
ATOM      1  O   UNL     1      36.263 -17.515 -20.596  0.00  0.00    -0.270 OA
ATOM      2  N   UNL     1      34.375 -18.797 -21.195  0.00  0.00    -0.280 N 
ATOM      3  C   UNL     1      35.265 -17.723 -21.274  0.00  0.00    +0.254 C 
ATOM      4  H   UNL     1      33.624 -18.785 -21.832  0.00  0.00    +0.155 HD
ENDROOT
BRANCH   2   6
ATOM      5  F   UNL     1      36.874 -21.876 -18.522  0.00  0.00    -0.201 F 
ATOM      6  C   UNL     1      34.420 -19.884 -20.322  0.00  0.00    +0.053 C 
ATOM      7  C   UNL     1      34.509 -22.060 -18.579  0.00  0.00    +0.173 C 
ATOM      8  C   UNL     1      35.647 -20.348 -19.847  0.00  0.00    +0.047 C 
ATOM      9  C   UNL     1      33.237 -20.508 -19.924  0.00  0.00    +0.018 C 
ATOM     10  C   UNL     1      35.692 -21.436 -18.976  0.00  0.00    +0.176 C 
ATOM     11  C   UNL     1      33.282 -21.597 -19.054  0.00  0.00    +0.041 C 
BRANCH   7  12
ATOM     12  O   UNL     1      34.553 -23.139 -17.716  0.00  0.00    -0.451 OA
BRANCH  12  16
ATOM     13  N   UNL     1      33.855 -23.471 -13.125  0.00  0.00    -0.297 N 
ATOM     14  N   UNL     1      31.878 -23.098 -14.449  0.00  0.00    -0.229 NA
ATOM     15  C   UNL     1      34.157 -23.307 -15.332  0.00  0.00    +0.067 C 
ATOM     16  C   UNL     1      33.701 -23.128 -16.648  0.00  0.00    +0.150 C 
ATOM     17  C   UNL     1      33.206 -23.279 -14.316  0.00  0.00    +0.135 C 
ATOM     18  C   UNL     1      35.415 -23.526 -14.711  0.00  0.00    +0.022 C 
ATOM     19  C   UNL     1      35.199 -23.623 -13.354  0.00  0.00    +0.063 C 
ATOM     20  C   UNL     1      32.334 -22.936 -16.843  0.00  0.00    +0.058 C 
ATOM     21  C   UNL     1      31.496 -22.931 -15.737  0.00  0.00    +0.103 C 
ATOM     22  H   UNL     1      33.424 -23.497 -12.240  0.00  0.00    +0.154 HD
ENDBRANCH  12  16
ENDBRANCH   7  12
ENDBRANCH   2   6
BRANCH   3  25
ATOM     23  O   UNL     1      34.176 -15.102 -20.837  0.00  0.00    -0.269 OA
ATOM     24  N   UNL     1      34.103 -14.556 -23.137  0.00  0.00    -0.233 N 
ATOM     25  C   UNL     1      34.895 -16.765 -22.322  0.00  0.00    +0.108 C 
ATOM     26  C   UNL     1      34.372 -15.389 -22.018  0.00  0.00    +0.261 C 
ATOM     27  C   UNL     1      34.259 -15.060 -24.429  0.00  0.00    +0.072 C 
ATOM     28  C   UNL     1      35.026 -17.173 -23.589  0.00  0.00    +0.010 C 
ATOM     29  C   UNL     1      34.690 -16.301 -24.675  0.00  0.00    +0.017 C 
BRANCH  24  31
ATOM     30  F   UNL     1      32.344  -9.322 -22.341  0.00  0.00    -0.204 F 
ATOM     31  C   UNL     1      33.646 -13.196 -22.930  0.00  0.00    +0.059 C 
ATOM     32  C   UNL     1      34.180 -12.157 -23.693  0.00  0.00    +0.018 C 
ATOM     33  C   UNL     1      32.672 -12.926 -21.968  0.00  0.00    +0.018 C 
ATOM     34  C   UNL     1      33.740 -10.849 -23.494  0.00  0.00    +0.031 C 
ATOM     35  C   UNL     1      32.232 -11.618 -21.769  0.00  0.00    +0.031 C 
ATOM     36  C   UNL     1      32.766 -10.579 -22.533  0.00  0.00    +0.140 C 
ENDBRANCH  24  31
ENDBRANCH   3  25
TORSDOF 5
ENDMDL
MODEL 4
REMARK VINA RESULT:     -11.7      2.635     11.412
REMARK  Name = 21081761
REMARK  5 active torsions:
REMARK  status: ('A' for Active; 'I' for Inactive)
REMARK    1  A    between atoms: N_2  and  C_6
REMARK    2  A    between atoms: C_3  and  C_25
REMARK    3  A    between atoms: C_7  and  O_12
REMARK    4  A    between atoms: O_12  and  C_16
REMARK    5  A    between atoms: N_24  and  C_31
REMARK                            x       y       z     vdW  Elec       q    Type
REMARK                         _______ _______ _______ _____ _____    ______ ____
ROOT
ATOM      1  O   UNL     1      34.874 -13.906 -21.045  0.00  0.00    -0.270 OA
ATOM      2  N   UNL     1      33.934 -13.603 -23.187  0.00  0.00    -0.280 N 
ATOM      3  C   UNL     1      34.511 -14.322 -22.138  0.00  0.00    +0.254 C 
ATOM      4  H   UNL     1      33.710 -14.120 -23.995  0.00  0.00    +0.155 HD
ENDROOT
BRANCH   2   6
ATOM      5  F   UNL     1      34.838  -9.204 -24.831  0.00  0.00    -0.201 F 
ATOM      6  C   UNL     1      33.636 -12.241 -23.230  0.00  0.00    +0.053 C 
ATOM      7  C   UNL     1      33.041  -9.517 -23.314  0.00  0.00    +0.173 C 
ATOM      8  C   UNL     1      34.399 -11.383 -24.023  0.00  0.00    +0.047 C 
ATOM      9  C   UNL     1      32.574 -11.735 -22.480  0.00  0.00    +0.018 C 
ATOM     10  C   UNL     1      34.102 -10.021 -24.065  0.00  0.00    +0.176 C 
ATOM     11  C   UNL     1      32.277 -10.373 -22.521  0.00  0.00    +0.041 C 
BRANCH   7  12
ATOM     12  O   UNL     1      32.746  -8.167 -23.355  0.00  0.00    -0.451 OA
BRANCH  12  16
ATOM     13  N   UNL     1      31.339  -4.420 -20.975  0.00  0.00    -0.297 N 
ATOM     14  N   UNL     1      32.224  -6.221 -19.643  0.00  0.00    -0.229 NA
ATOM     15  C   UNL     1      32.023  -6.232 -22.087  0.00  0.00    +0.067 C 
ATOM     16  C   UNL     1      32.570  -7.523 -22.162  0.00  0.00    +0.150 C 
ATOM     17  C   UNL     1      31.887  -5.667 -20.823  0.00  0.00    +0.135 C 
ATOM     18  C   UNL     1      31.536  -5.277 -23.019  0.00  0.00    +0.022 C 
ATOM     19  C   UNL     1      31.122  -4.173 -22.307  0.00  0.00    +0.063 C 
ATOM     20  C   UNL     1      32.937  -8.145 -20.969  0.00  0.00    +0.058 C 
ATOM     21  C   UNL     1      32.746  -7.463 -19.775  0.00  0.00    +0.103 C 
ATOM     22  H   UNL     1      31.133  -3.796 -20.242  0.00  0.00    +0.154 HD
ENDBRANCH  12  16
ENDBRANCH   7  12
ENDBRANCH   2   6
BRANCH   3  25
ATOM     23  O   UNL     1      35.003 -16.416 -20.237  0.00  0.00    -0.269 OA
ATOM     24  N   UNL     1      34.974 -18.137 -21.859  0.00  0.00    -0.233 N 
ATOM     25  C   UNL     1      34.673 -15.745 -22.456  0.00  0.00    +0.108 C 
ATOM     26  C   UNL     1      34.883 -16.795 -21.403  0.00  0.00    +0.261 C 
ATOM     27  C   UNL     1      34.941 -18.406 -23.228  0.00  0.00    +0.072 C 
ATOM     28  C   UNL     1      34.644 -16.083 -23.751  0.00  0.00    +0.010 C 
ATOM     29  C   UNL     1      34.791 -17.451 -24.151  0.00  0.00    +0.017 C 
BRANCH  24  31
ATOM     30  F   UNL     1      35.550 -22.289 -18.179  0.00  0.00    -0.204 F 
ATOM     31  C   UNL     1      35.124 -19.216 -20.902  0.00  0.00    +0.059 C 
ATOM     32  C   UNL     1      34.000 -19.912 -20.455  0.00  0.00    +0.018 C 
ATOM     33  C   UNL     1      36.391 -19.559 -20.430  0.00  0.00    +0.018 C 
ATOM     34  C   UNL     1      34.145 -20.951 -19.535  0.00  0.00    +0.031 C 
ATOM     35  C   UNL     1      36.535 -20.597 -19.510  0.00  0.00    +0.031 C 
ATOM     36  C   UNL     1      35.412 -21.293 -19.063  0.00  0.00    +0.140 C 
ENDBRANCH  24  31
ENDBRANCH   3  25
TORSDOF 5
ENDMDL
MODEL 5
REMARK VINA RESULT:     -11.5      5.057     12.234
REMARK  Name = 21081761
REMARK  5 active torsions:
REMARK  status: ('A' for Active; 'I' for Inactive)
REMARK    1  A    between atoms: N_2  and  C_6
REMARK    2  A    between atoms: C_3  and  C_25
REMARK    3  A    between atoms: C_7  and  O_12
REMARK    4  A    between atoms: O_12  and  C_16
REMARK    5  A    between atoms: N_24  and  C_31
REMARK                            x       y       z     vdW  Elec       q    Type
REMARK                         _______ _______ _______ _____ _____    ______ ____
ROOT
ATOM      1  O   UNL     1      32.695 -22.259 -19.616  0.00  0.00    -0.270 OA
ATOM      2  N   UNL     1      34.489 -20.936 -18.842  0.00  0.00    -0.280 N 
ATOM      3  C   UNL     1      33.489 -21.908 -18.752  0.00  0.00    +0.254 C 
ATOM      4  H   UNL     1      35.030 -20.795 -18.031  0.00  0.00    +0.155 HD
ENDROOT
BRANCH   2   6
ATOM      5  F   UNL     1      37.666 -18.324 -21.281  0.00  0.00    -0.201 F 
ATOM      6  C   UNL     1      34.814 -20.141 -19.940  0.00  0.00    +0.053 C 
ATOM      7  C   UNL     1      35.464 -18.548 -22.136  0.00  0.00    +0.173 C 
ATOM      8  C   UNL     1      36.102 -19.618 -20.067  0.00  0.00    +0.047 C 
ATOM      9  C   UNL     1      33.852 -19.867 -20.913  0.00  0.00    +0.018 C 
ATOM     10  C   UNL     1      36.427 -18.821 -21.165  0.00  0.00    +0.176 C 
ATOM     11  C   UNL     1      34.177 -19.070 -22.010  0.00  0.00    +0.041 C 
BRANCH   7  12
ATOM     12  O   UNL     1      35.785 -17.757 -23.224  0.00  0.00    -0.451 OA
BRANCH  12  16
ATOM     13  N   UNL     1      33.795 -13.890 -21.565  0.00  0.00    -0.297 N 
ATOM     14  N   UNL     1      33.464 -14.298 -23.915  0.00  0.00    -0.229 NA
ATOM     15  C   UNL     1      34.737 -15.737 -22.392  0.00  0.00    +0.067 C 
ATOM     16  C   UNL     1      35.036 -16.634 -23.431  0.00  0.00    +0.150 C 
ATOM     17  C   UNL     1      33.966 -14.624 -22.709  0.00  0.00    +0.135 C 
ATOM     18  C   UNL     1      35.029 -15.654 -21.004  0.00  0.00    +0.022 C 
ATOM     19  C   UNL     1      34.437 -14.507 -20.522  0.00  0.00    +0.063 C 
ATOM     20  C   UNL     1      34.541 -16.345 -24.702  0.00  0.00    +0.058 C 
ATOM     21  C   UNL     1      33.782 -15.196 -24.877  0.00  0.00    +0.103 C 
ATOM     22  H   UNL     1      33.288 -13.048 -21.500  0.00  0.00    +0.154 HD
ENDBRANCH  12  16
ENDBRANCH   7  12
ENDBRANCH   2   6
BRANCH   3  25
ATOM     23  O   UNL     1      35.767 -22.725 -17.208  0.00  0.00    -0.269 OA
ATOM     24  N   UNL     1      34.477 -23.471 -15.372  0.00  0.00    -0.233 N 
ATOM     25  C   UNL     1      33.443 -22.544 -17.431  0.00  0.00    +0.108 C 
ATOM     26  C   UNL     1      34.680 -22.905 -16.658  0.00  0.00    +0.261 C 
ATOM     27  C   UNL     1      33.180 -23.731 -14.926  0.00  0.00    +0.072 C 
ATOM     28  C   UNL     1      32.232 -22.817 -16.933  0.00  0.00    +0.010 C 
ATOM     29  C   UNL     1      32.094 -23.436 -15.648  0.00  0.00    +0.017 C 
BRANCH  24  31
ATOM     30  F   UNL     1      38.868 -24.732 -12.170  0.00  0.00    -0.204 F 
ATOM     31  C   UNL     1      35.618 -23.799 -14.539  0.00  0.00    +0.059 C 
ATOM     32  C   UNL     1      36.164 -25.082 -14.578  0.00  0.00    +0.018 C 
ATOM     33  C   UNL     1      36.171 -22.830 -13.701  0.00  0.00    +0.018 C 
ATOM     34  C   UNL     1      37.262 -25.397 -13.778  0.00  0.00    +0.031 C 
ATOM     35  C   UNL     1      37.269 -23.145 -12.900  0.00  0.00    +0.031 C 
ATOM     36  C   UNL     1      37.815 -24.428 -12.939  0.00  0.00    +0.140 C 
ENDBRANCH  24  31
ENDBRANCH   3  25
TORSDOF 5
ENDMDL
MODEL 6
REMARK VINA RESULT:     -11.4      5.425     12.940
REMARK  Name = 21081761
REMARK  5 active torsions:
REMARK  status: ('A' for Active; 'I' for Inactive)
REMARK    1  A    between atoms: N_2  and  C_6
REMARK    2  A    between atoms: C_3  and  C_25
REMARK    3  A    between atoms: C_7  and  O_12
REMARK    4  A    between atoms: O_12  and  C_16
REMARK    5  A    between atoms: N_24  and  C_31
REMARK                            x       y       z     vdW  Elec       q    Type
REMARK                         _______ _______ _______ _____ _____    ______ ____
ROOT
ATOM      1  O   UNL     1      33.439 -23.681 -18.757  0.00  0.00    -0.270 OA
ATOM      2  N   UNL     1      34.317 -21.678 -17.872  0.00  0.00    -0.280 N 
ATOM      3  C   UNL     1      33.725 -22.942 -17.823  0.00  0.00    +0.254 C 
ATOM      4  H   UNL     1      34.468 -21.237 -17.004  0.00  0.00    +0.155 HD
ENDROOT
BRANCH   2   6
ATOM      5  F   UNL     1      37.781 -19.738 -20.538  0.00  0.00    -0.201 F 
ATOM      6  C   UNL     1      34.721 -20.964 -19.000  0.00  0.00    +0.053 C 
ATOM      7  C   UNL     1      35.528 -19.534 -21.255  0.00  0.00    +0.173 C 
ATOM      8  C   UNL     1      36.075 -20.701 -19.212  0.00  0.00    +0.047 C 
ATOM      9  C   UNL     1      33.771 -20.512 -19.916  0.00  0.00    +0.018 C 
ATOM     10  C   UNL     1      36.479 -19.986 -20.340  0.00  0.00    +0.176 C 
ATOM     11  C   UNL     1      34.174 -19.796 -21.043  0.00  0.00    +0.041 C 
BRANCH   7  12
ATOM     12  O   UNL     1      35.927 -18.824 -22.372  0.00  0.00    -0.451 OA
BRANCH  12  16
ATOM     13  N   UNL     1      33.559 -15.234 -24.156  0.00  0.00    -0.297 N 
ATOM     14  N   UNL     1      32.895 -17.410 -24.948  0.00  0.00    -0.229 NA
ATOM     15  C   UNL     1      34.676 -16.977 -23.319  0.00  0.00    +0.067 C 
ATOM     16  C   UNL     1      34.950 -18.350 -23.201  0.00  0.00    +0.150 C 
ATOM     17  C   UNL     1      33.660 -16.601 -24.192  0.00  0.00    +0.135 C 
ATOM     18  C   UNL     1      35.192 -15.783 -22.748  0.00  0.00    +0.022 C 
ATOM     19  C   UNL     1      34.486 -14.728 -23.281  0.00  0.00    +0.063 C 
ATOM     20  C   UNL     1      34.187 -19.234 -23.963  0.00  0.00    +0.058 C 
ATOM     21  C   UNL     1      33.201 -18.719 -24.794  0.00  0.00    +0.103 C 
ATOM     22  H   UNL     1      32.920 -14.698 -24.679  0.00  0.00    +0.154 HD
ENDBRANCH  12  16
ENDBRANCH   7  12
ENDBRANCH   2   6
BRANCH   3  25
ATOM     23  O   UNL     1      35.678 -23.763 -15.885  0.00  0.00    -0.269 OA
ATOM     24  N   UNL     1      34.089 -24.099 -14.166  0.00  0.00    -0.233 N 
ATOM     25  C   UNL     1      33.439 -23.375 -16.451  0.00  0.00    +0.108 C 
ATOM     26  C   UNL     1      34.517 -23.747 -15.474  0.00  0.00    +0.261 C 
ATOM     27  C   UNL     1      32.725 -24.156 -13.876  0.00  0.00    +0.072 C 
ATOM     28  C   UNL     1      32.151 -23.445 -16.095  0.00  0.00    +0.010 C 
ATOM     29  C   UNL     1      31.781 -23.857 -14.773  0.00  0.00    +0.017 C 
BRANCH  24  31
ATOM     30  F   UNL     1      37.864 -25.337 -10.249  0.00  0.00    -0.204 F 
ATOM     31  C   UNL     1      35.070 -24.421 -13.148  0.00  0.00    +0.059 C 
ATOM     32  C   UNL     1      36.146 -25.254 -13.455  0.00  0.00    +0.018 C 
ATOM     33  C   UNL     1      34.937 -23.897 -11.861  0.00  0.00    +0.018 C 
ATOM     34  C   UNL     1      37.090 -25.563 -12.476  0.00  0.00    +0.031 C 
ATOM     35  C   UNL     1      35.881 -24.206 -10.882  0.00  0.00    +0.031 C 
ATOM     36  C   UNL     1      36.958 -25.039 -11.189  0.00  0.00    +0.140 C 
ENDBRANCH  24  31
ENDBRANCH   3  25
TORSDOF 5
ENDMDL
MODEL 7
REMARK VINA RESULT:     -11.3      2.650     11.711
REMARK  Name = 21081761
REMARK  5 active torsions:
REMARK  status: ('A' for Active; 'I' for Inactive)
REMARK    1  A    between atoms: N_2  and  C_6
REMARK    2  A    between atoms: C_3  and  C_25
REMARK    3  A    between atoms: C_7  and  O_12
REMARK    4  A    between atoms: O_12  and  C_16
REMARK    5  A    between atoms: N_24  and  C_31
REMARK                            x       y       z     vdW  Elec       q    Type
REMARK                         _______ _______ _______ _____ _____    ______ ____
ROOT
ATOM      1  O   UNL     1      34.742 -13.887 -20.733  0.00  0.00    -0.270 OA
ATOM      2  N   UNL     1      33.628 -13.619 -22.795  0.00  0.00    -0.280 N 
ATOM      3  C   UNL     1      34.349 -14.305 -21.815  0.00  0.00    +0.254 C 
ATOM      4  H   UNL     1      33.403 -14.132 -23.605  0.00  0.00    +0.155 HD
ENDROOT
BRANCH   2   6
ATOM      5  F   UNL     1      31.034 -10.150 -20.768  0.00  0.00    -0.201 F 
ATOM      6  C   UNL     1      33.187 -12.296 -22.766  0.00  0.00    +0.053 C 
ATOM      7  C   UNL     1      32.304  -9.650 -22.709  0.00  0.00    +0.173 C 
ATOM      8  C   UNL     1      32.314 -11.873 -21.763  0.00  0.00    +0.047 C 
ATOM      9  C   UNL     1      33.620 -11.395 -23.739  0.00  0.00    +0.018 C 
ATOM     10  C   UNL     1      31.872 -10.550 -21.735  0.00  0.00    +0.176 C 
ATOM     11  C   UNL     1      33.178 -10.073 -23.712  0.00  0.00    +0.041 C 
BRANCH   7  12
ATOM     12  O   UNL     1      31.866  -8.340 -22.683  0.00  0.00    -0.451 OA
BRANCH  12  16
ATOM     13  N   UNL     1      32.625  -4.243 -24.761  0.00  0.00    -0.297 N 
ATOM     14  N   UNL     1      34.594  -5.388 -23.978  0.00  0.00    -0.229 NA
ATOM     15  C   UNL     1      32.294  -6.211 -23.759  0.00  0.00    +0.067 C 
ATOM     16  C   UNL     1      32.735  -7.375 -23.108  0.00  0.00    +0.150 C 
ATOM     17  C   UNL     1      33.262  -5.292 -24.152  0.00  0.00    +0.135 C 
ATOM     18  C   UNL     1      31.038  -5.681 -24.155  0.00  0.00    +0.022 C 
ATOM     19  C   UNL     1      31.272  -4.470 -24.769  0.00  0.00    +0.063 C 
ATOM     20  C   UNL     1      34.106  -7.526 -22.902  0.00  0.00    +0.058 C 
ATOM     21  C   UNL     1      34.962  -6.527 -23.347  0.00  0.00    +0.103 C 
ATOM     22  H   UNL     1      33.068  -3.448 -25.136  0.00  0.00    +0.154 HD
ENDBRANCH  12  16
ENDBRANCH   7  12
ENDBRANCH   2   6
BRANCH   3  25
ATOM     23  O   UNL     1      34.911 -16.459 -20.002  0.00  0.00    -0.269 OA
ATOM     24  N   UNL     1      35.091 -18.084 -21.710  0.00  0.00    -0.233 N 
ATOM     25  C   UNL     1      34.635 -15.692 -22.197  0.00  0.00    +0.108 C 
ATOM     26  C   UNL     1      34.875 -16.781 -21.190  0.00  0.00    +0.261 C 
ATOM     27  C   UNL     1      35.145 -18.279 -23.091  0.00  0.00    +0.072 C 
ATOM     28  C   UNL     1      34.694 -15.959 -23.507  0.00  0.00    +0.010 C 
ATOM     29  C   UNL     1      34.966 -17.288 -23.969  0.00  0.00    +0.017 C 
BRANCH  24  31
ATOM     30  F   UNL     1      35.813 -22.378 -18.222  0.00  0.00    -0.204 F 
ATOM     31  C   UNL     1      35.279 -19.201 -20.803  0.00  0.00    +0.059 C 
ATOM     32  C   UNL     1      36.552 -19.497 -20.315  0.00  0.00    +0.018 C 
ATOM     33  C   UNL     1      34.186 -19.978 -20.419  0.00  0.00    +0.018 C 
ATOM     34  C   UNL     1      36.732 -20.570 -19.443  0.00  0.00    +0.031 C 
ATOM     35  C   UNL     1      34.366 -21.052 -19.547  0.00  0.00    +0.031 C 
ATOM     36  C   UNL     1      35.639 -21.347 -19.058  0.00  0.00    +0.140 C 
ENDBRANCH  24  31
ENDBRANCH   3  25
TORSDOF 5
ENDMDL
MODEL 8
REMARK VINA RESULT:     -11.3      3.171      5.875
REMARK  Name = 21081761
REMARK  5 active torsions:
REMARK  status: ('A' for Active; 'I' for Inactive)
REMARK    1  A    between atoms: N_2  and  C_6
REMARK    2  A    between atoms: C_3  and  C_25
REMARK    3  A    between atoms: C_7  and  O_12
REMARK    4  A    between atoms: O_12  and  C_16
REMARK    5  A    between atoms: N_24  and  C_31
REMARK                            x       y       z     vdW  Elec       q    Type
REMARK                         _______ _______ _______ _____ _____    ______ ____
ROOT
ATOM      1  O   UNL     1      36.365 -17.623 -20.590  0.00  0.00    -0.270 OA
ATOM      2  N   UNL     1      34.464 -18.933 -21.073  0.00  0.00    -0.280 N 
ATOM      3  C   UNL     1      35.348 -17.863 -21.229  0.00  0.00    +0.254 C 
ATOM      4  H   UNL     1      33.695 -18.953 -21.688  0.00  0.00    +0.155 HD
ENDROOT
BRANCH   2   6
ATOM      5  F   UNL     1      32.327 -21.958 -18.048  0.00  0.00    -0.201 F 
ATOM      6  C   UNL     1      34.537 -19.978 -20.152  0.00  0.00    +0.053 C 
ATOM      7  C   UNL     1      34.683 -22.067 -18.308  0.00  0.00    +0.173 C 
ATOM      8  C   UNL     1      33.375 -20.458 -19.547  0.00  0.00    +0.047 C 
ATOM      9  C   UNL     1      35.772 -20.544 -19.836  0.00  0.00    +0.018 C 
ATOM     10  C   UNL     1      33.447 -21.502 -18.624  0.00  0.00    +0.176 C 
ATOM     11  C   UNL     1      35.845 -21.588 -18.913  0.00  0.00    +0.041 C 
BRANCH   7  12
ATOM     12  O   UNL     1      34.756 -23.100 -17.394  0.00  0.00    -0.451 OA
BRANCH  12  16
ATOM     13  N   UNL     1      35.291 -23.473 -12.784  0.00  0.00    -0.297 N 
ATOM     14  N   UNL     1      37.130 -22.456 -13.961  0.00  0.00    -0.229 NA
ATOM     15  C   UNL     1      35.065 -23.280 -14.997  0.00  0.00    +0.067 C 
ATOM     16  C   UNL     1      35.512 -22.899 -16.273  0.00  0.00    +0.150 C 
ATOM     17  C   UNL     1      35.913 -23.030 -13.922  0.00  0.00    +0.135 C 
ATOM     18  C   UNL     1      33.899 -23.894 -14.468  0.00  0.00    +0.022 C 
ATOM     19  C   UNL     1      34.066 -24.000 -13.104  0.00  0.00    +0.063 C 
ATOM     20  C   UNL     1      36.767 -22.301 -16.372  0.00  0.00    +0.058 C 
ATOM     21  C   UNL     1      37.509 -22.110 -15.214  0.00  0.00    +0.103 C 
ATOM     22  H   UNL     1      35.666 -23.422 -11.875  0.00  0.00    +0.154 HD
ENDBRANCH  12  16
ENDBRANCH   7  12
ENDBRANCH   2   6
BRANCH   3  25
ATOM     23  O   UNL     1      34.329 -15.201 -20.886  0.00  0.00    -0.269 OA
ATOM     24  N   UNL     1      34.156 -14.779 -23.207  0.00  0.00    -0.233 N 
ATOM     25  C   UNL     1      34.946 -16.956 -22.309  0.00  0.00    +0.108 C 
ATOM     26  C   UNL     1      34.463 -15.556 -22.058  0.00  0.00    +0.261 C 
ATOM     27  C   UNL     1      34.240 -15.356 -24.475  0.00  0.00    +0.072 C 
ATOM     28  C   UNL     1      35.008 -17.436 -23.557  0.00  0.00    +0.010 C 
ATOM     29  C   UNL     1      34.636 -16.617 -24.672  0.00  0.00    +0.017 C 
BRANCH  24  31
ATOM     30  F   UNL     1      32.532  -9.474 -22.620  0.00  0.00    -0.204 F 
ATOM     31  C   UNL     1      33.734 -13.400 -23.054  0.00  0.00    +0.059 C 
ATOM     32  C   UNL     1      34.218 -12.423 -23.924  0.00  0.00    +0.018 C 
ATOM     33  C   UNL     1      32.844 -13.052 -22.038  0.00  0.00    +0.018 C 
ATOM     34  C   UNL     1      33.812 -11.097 -23.777  0.00  0.00    +0.031 C 
ATOM     35  C   UNL     1      32.437 -11.726 -21.892  0.00  0.00    +0.031 C 
ATOM     36  C   UNL     1      32.921 -10.748 -22.761  0.00  0.00    +0.140 C 
ENDBRANCH  24  31
ENDBRANCH   3  25
TORSDOF 5
ENDMDL
MODEL 9
REMARK VINA RESULT:     -11.2      3.971      7.411
REMARK  Name = 21081761
REMARK  5 active torsions:
REMARK  status: ('A' for Active; 'I' for Inactive)
REMARK    1  A    between atoms: N_2  and  C_6
REMARK    2  A    between atoms: C_3  and  C_25
REMARK    3  A    between atoms: C_7  and  O_12
REMARK    4  A    between atoms: O_12  and  C_16
REMARK    5  A    between atoms: N_24  and  C_31
REMARK                            x       y       z     vdW  Elec       q    Type
REMARK                         _______ _______ _______ _____ _____    ______ ____
ROOT
ATOM      1  O   UNL     1      36.551 -19.350 -20.272  0.00  0.00    -0.270 OA
ATOM      2  N   UNL     1      34.408 -20.334 -20.274  0.00  0.00    -0.280 N 
ATOM      3  C   UNL     1      35.431 -19.506 -20.740  0.00  0.00    +0.254 C 
ATOM      4  H   UNL     1      33.570 -20.321 -20.792  0.00  0.00    +0.155 HD
ENDROOT
BRANCH   2   6
ATOM      5  F   UNL     1      32.103 -23.023 -17.060  0.00  0.00    -0.201 F 
ATOM      6  C   UNL     1      34.427 -21.179 -19.164  0.00  0.00    +0.053 C 
ATOM      7  C   UNL     1      34.468 -22.866 -16.943  0.00  0.00    +0.173 C 
ATOM      8  C   UNL     1      33.234 -21.691 -18.655  0.00  0.00    +0.047 C 
ATOM      9  C   UNL     1      35.641 -21.512 -18.563  0.00  0.00    +0.018 C 
ATOM     10  C   UNL     1      33.253 -22.534 -17.544  0.00  0.00    +0.176 C 
ATOM     11  C   UNL     1      35.662 -22.354 -17.451  0.00  0.00    +0.041 C 
BRANCH   7  12
ATOM     12  O   UNL     1      34.488 -23.700 -15.841  0.00  0.00    -0.451 OA
BRANCH  12  16
ATOM     13  N   UNL     1      37.968 -25.905 -13.673  0.00  0.00    -0.297 N 
ATOM     14  N   UNL     1      37.897 -23.519 -13.355  0.00  0.00    -0.229 NA
ATOM     15  C   UNL     1      36.310 -24.818 -14.700  0.00  0.00    +0.067 C 
ATOM     16  C   UNL     1      35.593 -23.659 -15.038  0.00  0.00    +0.150 C 
ATOM     17  C   UNL     1      37.421 -24.666 -13.876  0.00  0.00    +0.135 C 
ATOM     18  C   UNL     1      36.201 -26.204 -14.992  0.00  0.00    +0.022 C 
ATOM     19  C   UNL     1      37.235 -26.848 -14.347  0.00  0.00    +0.063 C 
ATOM     20  C   UNL     1      36.043 -22.443 -14.526  0.00  0.00    +0.058 C 
ATOM     21  C   UNL     1      37.168 -22.436 -13.713  0.00  0.00    +0.103 C 
ATOM     22  H   UNL     1      38.767 -26.092 -13.127  0.00  0.00    +0.154 HD
ENDBRANCH  12  16
ENDBRANCH   7  12
ENDBRANCH   2   6
BRANCH   3  25
ATOM     23  O   UNL     1      34.838 -16.699 -20.852  0.00  0.00    -0.269 OA
ATOM     24  N   UNL     1      34.474 -16.689 -23.189  0.00  0.00    -0.233 N 
ATOM     25  C   UNL     1      35.044 -18.760 -21.944  0.00  0.00    +0.108 C 
ATOM     26  C   UNL     1      34.793 -17.279 -21.937  0.00  0.00    +0.261 C 
ATOM     27  C   UNL     1      34.337 -17.494 -24.320  0.00  0.00    +0.072 C 
ATOM     28  C   UNL     1      34.902 -19.465 -23.072  0.00  0.00    +0.010 C 
ATOM     29  C   UNL     1      34.529 -18.816 -24.294  0.00  0.00    +0.017 C 
BRANCH  24  31
ATOM     30  F   UNL     1      33.684 -11.177 -23.535  0.00  0.00    -0.204 F 
ATOM     31  C   UNL     1      34.268 -15.256 -23.279  0.00  0.00    +0.059 C 
ATOM     32  C   UNL     1      34.519 -14.445 -22.172  0.00  0.00    +0.018 C 
ATOM     33  C   UNL     1      33.820 -14.689 -24.472  0.00  0.00    +0.018 C 
ATOM     34  C   UNL     1      34.322 -13.067 -22.259  0.00  0.00    +0.031 C 
ATOM     35  C   UNL     1      33.623 -13.311 -24.559  0.00  0.00    +0.031 C 
ATOM     36  C   UNL     1      33.874 -12.500 -23.452  0.00  0.00    +0.140 C 
ENDBRANCH  24  31
ENDBRANCH   3  25
TORSDOF 5
ENDMDL
