MODEL 1
REMARK VINA RESULT:     -11.7      0.000      0.000
REMARK  Name = 6852141
REMARK  6 active torsions:
REMARK  status: ('A' for Active; 'I' for Inactive)
REMARK    1  A    between atoms: C_3  and  N_18
REMARK    2  A    between atoms: C_7  and  C_31
REMARK    3  A    between atoms: C_9  and  C_13
REMARK    4  A    between atoms: C_19  and  C_21
REMARK    5  A    between atoms: C_24  and  O_28
REMARK    6  A    between atoms: C_31  and  O_32
REMARK                            x       y       z     vdW  Elec       q    Type
REMARK                         _______ _______ _______ _____ _____    ______ ____
ROOT
ATOM      1  C   UNL     1      32.147 -23.371 -15.214  0.00  0.00    +0.014 C 
ATOM      2  C   UNL     1      31.118 -23.986 -14.463  0.00  0.00    +0.001 C 
ATOM      3  C   UNL     1      31.819 -22.686 -16.396  0.00  0.00    +0.051 C 
ATOM      4  C   UNL     1      33.474 -23.459 -14.763  0.00  0.00    +0.004 C 
ATOM      5  C   UNL     1      29.791 -23.898 -14.914  0.00  0.00    +0.007 C 
ATOM      6  C   UNL     1      30.495 -22.608 -16.829  0.00  0.00    +0.021 C 
ATOM      7  C   UNL     1      29.483 -23.213 -16.089  0.00  0.00    +0.077 C 
ATOM      8  C   UNL     1      31.446 -24.671 -13.281  0.00  0.00    +0.000 C 
ATOM      9  C   UNL     1      33.781 -24.143 -13.587  0.00  0.00    +0.031 C 
ATOM     10  C   UNL     1      32.769 -24.748 -12.847  0.00  0.00    +0.003 C 
ENDROOT
BRANCH   9  13
ATOM     11  N   UNL     1      35.876 -25.419 -13.196  0.00  0.00    -0.343 N 
ATOM     12  N   UNL     1      35.758 -23.151 -12.645  0.00  0.00    -0.285 NA
ATOM     13  C   UNL     1      35.161 -24.224 -13.133  0.00  0.00    +0.117 C 
ATOM     14  H   UNL     1      36.808 -25.451 -12.883  0.00  0.00    +0.144 HD
ATOM     15  H   UNL     1      35.447 -26.231 -13.553  0.00  0.00    +0.144 HD
ATOM     16  H   UNL     1      36.691 -23.203 -12.337  0.00  0.00    +0.188 HD
ENDBRANCH   9  13
BRANCH   3  18
ATOM     17  O   UNL     1      33.464 -23.757 -18.661  0.00  0.00    -0.270 OA
ATOM     18  N   UNL     1      32.794 -22.059 -17.182  0.00  0.00    -0.280 N 
ATOM     19  C   UNL     1      33.534 -22.611 -18.231  0.00  0.00    +0.249 C 
ATOM     20  H   UNL     1      32.982 -21.117 -16.968  0.00  0.00    +0.155 HD
BRANCH  19  21
ATOM     21  C   UNL     1      34.524 -21.696 -18.857  0.00  0.00    +0.053 C 
ATOM     22  C   UNL     1      34.113 -20.755 -19.780  0.00  0.00    +0.016 C 
ATOM     23  C   UNL     1      35.846 -21.826 -18.481  0.00  0.00    +0.004 C 
ATOM     24  C   UNL     1      35.064 -19.909 -20.351  0.00  0.00    +0.130 C 
ATOM     25  C   UNL     1      32.676 -20.627 -20.175  0.00  0.00    +0.034 C 
ATOM     26  C   UNL     1      36.797 -20.979 -19.052  0.00  0.00    +0.003 C 
ATOM     27  C   UNL     1      36.405 -20.022 -19.986  0.00  0.00    +0.036 C 
BRANCH  24  28
ATOM     28  O   UNL     1      34.701 -18.966 -21.265  0.00  0.00    -0.506 OA
ATOM     29  H   UNL     1      35.275 -18.250 -21.452  0.00  0.00    +0.292 HD
ENDBRANCH  24  28
ENDBRANCH  19  21
ENDBRANCH   3  18
BRANCH   7  31
ATOM     30  O   UNL     1      27.456 -24.086 -16.995  0.00  0.00    -0.245 OA
ATOM     31  C   UNL     1      28.103 -23.131 -16.544  0.00  0.00    +0.341 C 
BRANCH  31  32
ATOM     32  O   UNL     1      27.604 -21.864 -16.411  0.00  0.00    -0.441 OA
ATOM     33  C   UNL     1      26.259 -21.649 -16.852  0.00  0.00    +0.256 C 
ENDBRANCH  31  32
ENDBRANCH   7  31
TORSDOF 6
ENDMDL
MODEL 2
REMARK VINA RESULT:     -11.5      2.505      5.318
REMARK  Name = 6852141
REMARK  6 active torsions:
REMARK  status: ('A' for Active; 'I' for Inactive)
REMARK    1  A    between atoms: C_3  and  N_18
REMARK    2  A    between atoms: C_7  and  C_31
REMARK    3  A    between atoms: C_9  and  C_13
REMARK    4  A    between atoms: C_19  and  C_21
REMARK    5  A    between atoms: C_24  and  O_28
REMARK    6  A    between atoms: C_31  and  O_32
REMARK                            x       y       z     vdW  Elec       q    Type
REMARK                         _______ _______ _______ _____ _____    ______ ____
ROOT
ATOM      1  C   UNL     1      31.688 -23.515 -15.092  0.00  0.00    +0.014 C 
ATOM      2  C   UNL     1      31.520 -24.301 -13.928  0.00  0.00    +0.001 C 
ATOM      3  C   UNL     1      32.980 -23.116 -15.471  0.00  0.00    +0.051 C 
ATOM      4  C   UNL     1      30.559 -23.150 -15.843  0.00  0.00    +0.004 C 
ATOM      5  C   UNL     1      32.649 -24.666 -13.177  0.00  0.00    +0.007 C 
ATOM      6  C   UNL     1      34.090 -23.489 -14.713  0.00  0.00    +0.021 C 
ATOM      7  C   UNL     1      33.925 -24.262 -13.568  0.00  0.00    +0.077 C 
ATOM      8  C   UNL     1      30.227 -24.699 -13.548  0.00  0.00    +0.000 C 
ATOM      9  C   UNL     1      29.282 -23.555 -15.452  0.00  0.00    +0.031 C 
ATOM     10  C   UNL     1      29.117 -24.328 -14.307  0.00  0.00    +0.003 C 
ENDROOT
BRANCH   9  13
ATOM     11  N   UNL     1      27.299 -22.115 -15.852  0.00  0.00    -0.343 N 
ATOM     12  N   UNL     1      27.834 -23.826 -17.351  0.00  0.00    -0.285 NA
ATOM     13  C   UNL     1      28.124 -23.169 -16.241  0.00  0.00    +0.117 C 
ATOM     14  H   UNL     1      26.520 -21.871 -16.401  0.00  0.00    +0.144 HD
ATOM     15  H   UNL     1      27.496 -21.616 -15.026  0.00  0.00    +0.144 HD
ATOM     16  H   UNL     1      27.050 -23.567 -17.887  0.00  0.00    +0.188 HD
ENDBRANCH   9  13
BRANCH   3  18
ATOM     17  O   UNL     1      33.636 -23.936 -18.279  0.00  0.00    -0.270 OA
ATOM     18  N   UNL     1      33.207 -22.336 -16.613  0.00  0.00    -0.280 N 
ATOM     19  C   UNL     1      33.512 -22.776 -17.904  0.00  0.00    +0.249 C 
ATOM     20  H   UNL     1      33.146 -21.362 -16.489  0.00  0.00    +0.155 HD
BRANCH  19  21
ATOM     21  C   UNL     1      33.728 -21.698 -18.904  0.00  0.00    +0.053 C 
ATOM     22  C   UNL     1      34.992 -21.180 -19.105  0.00  0.00    +0.016 C 
ATOM     23  C   UNL     1      32.630 -21.246 -19.609  0.00  0.00    +0.004 C 
ATOM     24  C   UNL     1      35.165 -20.169 -20.050  0.00  0.00    +0.130 C 
ATOM     25  C   UNL     1      36.171 -21.681 -18.333  0.00  0.00    +0.034 C 
ATOM     26  C   UNL     1      32.804 -20.235 -20.554  0.00  0.00    +0.003 C 
ATOM     27  C   UNL     1      34.071 -19.698 -20.775  0.00  0.00    +0.036 C 
BRANCH  24  28
ATOM     28  O   UNL     1      36.396 -19.632 -20.281  0.00  0.00    -0.506 OA
ATOM     29  H   UNL     1      36.985 -20.049 -20.880  0.00  0.00    +0.292 HD
ENDBRANCH  24  28
ENDBRANCH  19  21
ENDBRANCH   3  18
BRANCH   7  31
ATOM     30  O   UNL     1      36.170 -25.005 -13.257  0.00  0.00    -0.245 OA
ATOM     31  C   UNL     1      35.085 -24.648 -12.779  0.00  0.00    +0.341 C 
BRANCH  31  32
ATOM     32  O   UNL     1      34.830 -24.568 -11.437  0.00  0.00    -0.441 OA
ATOM     33  C   UNL     1      35.963 -24.553 -10.562  0.00  0.00    +0.256 C 
ENDBRANCH  31  32
ENDBRANCH   7  31
TORSDOF 6
ENDMDL
MODEL 3
REMARK VINA RESULT:     -11.4      1.051      1.663
REMARK  Name = 6852141
REMARK  6 active torsions:
REMARK  status: ('A' for Active; 'I' for Inactive)
REMARK    1  A    between atoms: C_3  and  N_18
REMARK    2  A    between atoms: C_7  and  C_31
REMARK    3  A    between atoms: C_9  and  C_13
REMARK    4  A    between atoms: C_19  and  C_21
REMARK    5  A    between atoms: C_24  and  O_28
REMARK    6  A    between atoms: C_31  and  O_32
REMARK                            x       y       z     vdW  Elec       q    Type
REMARK                         _______ _______ _______ _____ _____    ______ ____
ROOT
ATOM      1  C   UNL     1      32.333 -23.228 -15.349  0.00  0.00    +0.014 C 
ATOM      2  C   UNL     1      31.571 -23.968 -14.415  0.00  0.00    +0.001 C 
ATOM      3  C   UNL     1      31.696 -22.681 -16.476  0.00  0.00    +0.051 C 
ATOM      4  C   UNL     1      33.710 -23.057 -15.131  0.00  0.00    +0.004 C 
ATOM      5  C   UNL     1      30.194 -24.139 -14.632  0.00  0.00    +0.007 C 
ATOM      6  C   UNL     1      30.327 -22.861 -16.676  0.00  0.00    +0.021 C 
ATOM      7  C   UNL     1      29.578 -23.589 -15.756  0.00  0.00    +0.077 C 
ATOM      8  C   UNL     1      32.208 -24.515 -13.289  0.00  0.00    +0.000 C 
ATOM      9  C   UNL     1      34.326 -23.607 -14.007  0.00  0.00    +0.031 C 
ATOM     10  C   UNL     1      33.576 -24.334 -13.087  0.00  0.00    +0.003 C 
ENDROOT
BRANCH   9  13
ATOM     11  N   UNL     1      36.671 -23.627 -14.823  0.00  0.00    -0.343 N 
ATOM     12  N   UNL     1      36.200 -23.050 -12.608  0.00  0.00    -0.285 NA
ATOM     13  C   UNL     1      35.752 -23.420 -13.795  0.00  0.00    +0.117 C 
ATOM     14  H   UNL     1      37.632 -23.494 -14.658  0.00  0.00    +0.144 HD
ATOM     15  H   UNL     1      36.357 -23.906 -15.714  0.00  0.00    +0.144 HD
ATOM     16  H   UNL     1      37.164 -22.923 -12.463  0.00  0.00    +0.188 HD
ENDBRANCH   9  13
BRANCH   3  18
ATOM     17  O   UNL     1      33.543 -23.592 -18.654  0.00  0.00    -0.270 OA
ATOM     18  N   UNL     1      32.399 -21.942 -17.435  0.00  0.00    -0.280 N 
ATOM     19  C   UNL     1      33.252 -22.423 -18.433  0.00  0.00    +0.249 C 
ATOM     20  H   UNL     1      32.279 -20.966 -17.402  0.00  0.00    +0.155 HD
BRANCH  19  21
ATOM     21  C   UNL     1      33.878 -21.380 -19.286  0.00  0.00    +0.053 C 
ATOM     22  C   UNL     1      35.215 -21.072 -19.138  0.00  0.00    +0.016 C 
ATOM     23  C   UNL     1      33.079 -20.745 -20.216  0.00  0.00    +0.004 C 
ATOM     24  C   UNL     1      35.777 -20.088 -19.952  0.00  0.00    +0.130 C 
ATOM     25  C   UNL     1      36.068 -21.769 -18.125  0.00  0.00    +0.034 C 
ATOM     26  C   UNL     1      33.640 -19.762 -21.031  0.00  0.00    +0.003 C 
ATOM     27  C   UNL     1      34.989 -19.435 -20.899  0.00  0.00    +0.036 C 
BRANCH  24  28
ATOM     28  O   UNL     1      37.093 -19.755 -19.839  0.00  0.00    -0.506 OA
ATOM     29  H   UNL     1      37.401 -19.315 -19.071  0.00  0.00    +0.292 HD
ENDBRANCH  24  28
ENDBRANCH  19  21
ENDBRANCH   3  18
BRANCH   7  31
ATOM     30  O   UNL     1      27.660 -24.465 -16.872  0.00  0.00    -0.245 OA
ATOM     31  C   UNL     1      28.150 -23.775 -15.968  0.00  0.00    +0.341 C 
BRANCH  31  32
ATOM     32  O   UNL     1      27.411 -23.092 -15.041  0.00  0.00    -0.441 OA
ATOM     33  C   UNL     1      26.507 -22.099 -15.538  0.00  0.00    +0.256 C 
ENDBRANCH  31  32
ENDBRANCH   7  31
TORSDOF 6
ENDMDL
MODEL 4
REMARK VINA RESULT:     -10.7      2.765      7.941
REMARK  Name = 6852141
REMARK  6 active torsions:
REMARK  status: ('A' for Active; 'I' for Inactive)
REMARK    1  A    between atoms: C_3  and  N_18
REMARK    2  A    between atoms: C_7  and  C_31
REMARK    3  A    between atoms: C_9  and  C_13
REMARK    4  A    between atoms: C_19  and  C_21
REMARK    5  A    between atoms: C_24  and  O_28
REMARK    6  A    between atoms: C_31  and  O_32
REMARK                            x       y       z     vdW  Elec       q    Type
REMARK                         _______ _______ _______ _____ _____    ______ ____
ROOT
ATOM      1  C   UNL     1      34.864 -22.162 -17.368  0.00  0.00    +0.014 C 
ATOM      2  C   UNL     1      36.253 -21.900 -17.444  0.00  0.00    +0.001 C 
ATOM      3  C   UNL     1      34.365 -22.909 -16.288  0.00  0.00    +0.051 C 
ATOM      4  C   UNL     1      34.017 -21.671 -18.373  0.00  0.00    +0.004 C 
ATOM      5  C   UNL     1      37.101 -22.391 -16.438  0.00  0.00    +0.007 C 
ATOM      6  C   UNL     1      35.222 -23.389 -15.298  0.00  0.00    +0.021 C 
ATOM      7  C   UNL     1      36.588 -23.131 -15.373  0.00  0.00    +0.077 C 
ATOM      8  C   UNL     1      36.753 -21.153 -18.524  0.00  0.00    +0.000 C 
ATOM      9  C   UNL     1      34.530 -20.931 -19.438  0.00  0.00    +0.031 C 
ATOM     10  C   UNL     1      35.895 -20.672 -19.513  0.00  0.00    +0.003 C 
ENDROOT
BRANCH   9  13
ATOM     11  N   UNL     1      34.129 -19.759 -21.591  0.00  0.00    -0.343 N 
ATOM     12  N   UNL     1      32.333 -20.599 -20.355  0.00  0.00    -0.285 NA
ATOM     13  C   UNL     1      33.638 -20.428 -20.471  0.00  0.00    +0.117 C 
ATOM     14  H   UNL     1      33.507 -19.427 -22.278  0.00  0.00    +0.144 HD
ATOM     15  H   UNL     1      35.099 -19.618 -21.694  0.00  0.00    +0.144 HD
ATOM     16  H   UNL     1      31.727 -20.260 -21.052  0.00  0.00    +0.188 HD
ENDBRANCH   9  13
BRANCH   3  18
ATOM     17  O   UNL     1      32.458 -22.321 -14.051  0.00  0.00    -0.270 OA
ATOM     18  N   UNL     1      33.001 -23.201 -16.161  0.00  0.00    -0.280 N 
ATOM     19  C   UNL     1      32.157 -22.902 -15.088  0.00  0.00    +0.249 C 
ATOM     20  H   UNL     1      32.588 -23.676 -16.918  0.00  0.00    +0.155 HD
BRANCH  19  21
ATOM     21  C   UNL     1      30.755 -23.372 -15.236  0.00  0.00    +0.053 C 
ATOM     22  C   UNL     1      30.289 -24.420 -14.469  0.00  0.00    +0.016 C 
ATOM     23  C   UNL     1      29.955 -22.725 -16.157  0.00  0.00    +0.004 C 
ATOM     24  C   UNL     1      28.969 -24.840 -14.629  0.00  0.00    +0.130 C 
ATOM     25  C   UNL     1      31.169 -25.110 -13.475  0.00  0.00    +0.034 C 
ATOM     26  C   UNL     1      28.634 -23.146 -16.318  0.00  0.00    +0.003 C 
ATOM     27  C   UNL     1      28.142 -24.202 -15.553  0.00  0.00    +0.036 C 
BRANCH  24  28
ATOM     28  O   UNL     1      28.468 -25.871 -13.891  0.00  0.00    -0.506 OA
ATOM     29  H   UNL     1      27.543 -26.016 -13.856  0.00  0.00    +0.292 HD
ENDBRANCH  24  28
ENDBRANCH  19  21
ENDBRANCH   3  18
BRANCH   7  31
ATOM     30  O   UNL     1      38.079 -24.715 -14.396  0.00  0.00    -0.245 OA
ATOM     31  C   UNL     1      37.480 -23.633 -14.339  0.00  0.00    +0.341 C 
BRANCH  31  32
ATOM     32  O   UNL     1      37.577 -22.760 -13.290  0.00  0.00    -0.441 OA
ATOM     33  C   UNL     1      37.047 -23.195 -12.034  0.00  0.00    +0.256 C 
ENDBRANCH  31  32
ENDBRANCH   7  31
TORSDOF 6
ENDMDL
MODEL 5
REMARK VINA RESULT:     -10.3      3.040      6.680
REMARK  Name = 6852141
REMARK  6 active torsions:
REMARK  status: ('A' for Active; 'I' for Inactive)
REMARK    1  A    between atoms: C_3  and  N_18
REMARK    2  A    between atoms: C_7  and  C_31
REMARK    3  A    between atoms: C_9  and  C_13
REMARK    4  A    between atoms: C_19  and  C_21
REMARK    5  A    between atoms: C_24  and  O_28
REMARK    6  A    between atoms: C_31  and  O_32
REMARK                            x       y       z     vdW  Elec       q    Type
REMARK                         _______ _______ _______ _____ _____    ______ ____
ROOT
ATOM      1  C   UNL     1      33.216 -23.028 -15.875  0.00  0.00    +0.014 C 
ATOM      2  C   UNL     1      32.380 -22.610 -16.938  0.00  0.00    +0.001 C 
ATOM      3  C   UNL     1      34.608 -22.886 -15.999  0.00  0.00    +0.051 C 
ATOM      4  C   UNL     1      32.636 -23.575 -14.720  0.00  0.00    +0.004 C 
ATOM      5  C   UNL     1      32.960 -22.062 -18.094  0.00  0.00    +0.007 C 
ATOM      6  C   UNL     1      35.166 -22.338 -17.155  0.00  0.00    +0.021 C 
ATOM      7  C   UNL     1      34.344 -21.928 -18.200  0.00  0.00    +0.077 C 
ATOM      8  C   UNL     1      30.988 -22.753 -16.814  0.00  0.00    +0.000 C 
ATOM      9  C   UNL     1      31.251 -23.709 -14.613  0.00  0.00    +0.031 C 
ATOM     10  C   UNL     1      30.429 -23.298 -15.658  0.00  0.00    +0.003 C 
ENDROOT
BRANCH   9  13
ATOM     11  N   UNL     1      29.767 -25.341 -13.472  0.00  0.00    -0.343 N 
ATOM     12  N   UNL     1      30.983 -23.783 -12.226  0.00  0.00    -0.285 NA
ATOM     13  C   UNL     1      30.666 -24.278 -13.409  0.00  0.00    +0.117 C 
ATOM     14  H   UNL     1      29.383 -25.711 -12.645  0.00  0.00    +0.144 HD
ATOM     15  H   UNL     1      29.516 -25.722 -14.345  0.00  0.00    +0.144 HD
ATOM     16  H   UNL     1      30.589 -24.166 -11.410  0.00  0.00    +0.188 HD
ENDBRANCH   9  13
BRANCH   3  18
ATOM     17  O   UNL     1      35.595 -25.614 -15.246  0.00  0.00    -0.270 OA
ATOM     18  N   UNL     1      35.484 -23.282 -14.982  0.00  0.00    -0.280 N 
ATOM     19  C   UNL     1      35.912 -24.577 -14.675  0.00  0.00    +0.249 C 
ATOM     20  H   UNL     1      35.842 -22.562 -14.414  0.00  0.00    +0.155 HD
BRANCH  19  21
ATOM     21  C   UNL     1      36.828 -24.681 -13.509  0.00  0.00    +0.053 C 
ATOM     22  C   UNL     1      36.334 -24.575 -12.226  0.00  0.00    +0.016 C 
ATOM     23  C   UNL     1      38.170 -24.885 -13.764  0.00  0.00    +0.004 C 
ATOM     24  C   UNL     1      37.217 -24.676 -11.151  0.00  0.00    +0.130 C 
ATOM     25  C   UNL     1      34.876 -24.354 -11.967  0.00  0.00    +0.034 C 
ATOM     26  C   UNL     1      39.053 -24.986 -12.689  0.00  0.00    +0.003 C 
ATOM     27  C   UNL     1      38.576 -24.882 -11.383  0.00  0.00    +0.036 C 
BRANCH  24  28
ATOM     28  O   UNL     1      36.770 -24.578  -9.867  0.00  0.00    -0.506 OA
ATOM     29  H   UNL     1      37.349 -24.286  -9.190  0.00  0.00    +0.292 HD
ENDBRANCH  24  28
ENDBRANCH  19  21
ENDBRANCH   3  18
BRANCH   7  31
ATOM     30  O   UNL     1      36.080 -21.589 -19.800  0.00  0.00    -0.245 OA
ATOM     31  C   UNL     1      34.930 -21.358 -19.404  0.00  0.00    +0.341 C 
BRANCH  31  32
ATOM     32  O   UNL     1      34.049 -20.533 -20.049  0.00  0.00    -0.441 OA
ATOM     33  C   UNL     1      34.603 -19.603 -20.987  0.00  0.00    +0.256 C 
ENDBRANCH  31  32
ENDBRANCH   7  31
TORSDOF 6
ENDMDL
MODEL 6
REMARK VINA RESULT:     -10.0      3.214      7.817
REMARK  Name = 6852141
REMARK  6 active torsions:
REMARK  status: ('A' for Active; 'I' for Inactive)
REMARK    1  A    between atoms: C_3  and  N_18
REMARK    2  A    between atoms: C_7  and  C_31
REMARK    3  A    between atoms: C_9  and  C_13
REMARK    4  A    between atoms: C_19  and  C_21
REMARK    5  A    between atoms: C_24  and  O_28
REMARK    6  A    between atoms: C_31  and  O_32
REMARK                            x       y       z     vdW  Elec       q    Type
REMARK                         _______ _______ _______ _____ _____    ______ ____
ROOT
ATOM      1  C   UNL     1      35.500 -22.906 -15.418  0.00  0.00    +0.014 C 
ATOM      2  C   UNL     1      36.863 -22.734 -15.079  0.00  0.00    +0.001 C 
ATOM      3  C   UNL     1      34.639 -23.533 -14.502  0.00  0.00    +0.051 C 
ATOM      4  C   UNL     1      35.039 -22.448 -16.662  0.00  0.00    +0.004 C 
ATOM      5  C   UNL     1      37.325 -23.192 -13.834  0.00  0.00    +0.007 C 
ATOM      6  C   UNL     1      35.115 -23.981 -13.269  0.00  0.00    +0.021 C 
ATOM      7  C   UNL     1      36.455 -23.811 -12.936  0.00  0.00    +0.077 C 
ATOM      8  C   UNL     1      37.724 -22.108 -15.995  0.00  0.00    +0.000 C 
ATOM      9  C   UNL     1      35.908 -21.828 -17.560  0.00  0.00    +0.031 C 
ATOM     10  C   UNL     1      37.249 -21.658 -17.226  0.00  0.00    +0.003 C 
ENDROOT
BRANCH   9  13
ATOM     11  N   UNL     1      34.170 -21.756 -19.331  0.00  0.00    -0.343 N 
ATOM     12  N   UNL     1      36.151 -20.542 -19.575  0.00  0.00    -0.285 NA
ATOM     13  C   UNL     1      35.414 -21.359 -18.844  0.00  0.00    +0.117 C 
ATOM     14  H   UNL     1      33.854 -21.426 -20.203  0.00  0.00    +0.144 HD
ATOM     15  H   UNL     1      33.606 -22.367 -18.802  0.00  0.00    +0.144 HD
ATOM     16  H   UNL     1      35.819 -20.223 -20.445  0.00  0.00    +0.188 HD
ENDBRANCH   9  13
BRANCH   3  18
ATOM     17  O   UNL     1      32.234 -21.951 -13.665  0.00  0.00    -0.270 OA
ATOM     18  N   UNL     1      33.281 -23.732 -14.783  0.00  0.00    -0.280 N 
ATOM     19  C   UNL     1      32.196 -22.958 -14.363  0.00  0.00    +0.249 C 
ATOM     20  H   UNL     1      33.066 -24.513 -15.342  0.00  0.00    +0.155 HD
BRANCH  19  21
ATOM     21  C   UNL     1      30.863 -23.446 -14.803  0.00  0.00    +0.053 C 
ATOM     22  C   UNL     1      30.218 -24.439 -14.094  0.00  0.00    +0.016 C 
ATOM     23  C   UNL     1      30.309 -22.872 -15.930  0.00  0.00    +0.004 C 
ATOM     24  C   UNL     1      28.968 -24.877 -14.530  0.00  0.00    +0.130 C 
ATOM     25  C   UNL     1      30.832 -25.050 -12.874  0.00  0.00    +0.034 C 
ATOM     26  C   UNL     1      29.058 -23.310 -16.366  0.00  0.00    +0.003 C 
ATOM     27  C   UNL     1      28.389 -24.312 -15.666  0.00  0.00    +0.036 C 
BRANCH  24  28
ATOM     28  O   UNL     1      28.297 -25.855 -13.859  0.00  0.00    -0.506 OA
ATOM     29  H   UNL     1      27.374 -25.961 -13.984  0.00  0.00    +0.292 HD
ENDBRANCH  24  28
ENDBRANCH  19  21
ENDBRANCH   3  18
BRANCH   7  31
ATOM     30  O   UNL     1      37.594 -23.587 -10.852  0.00  0.00    -0.245 OA
ATOM     31  C   UNL     1      36.949 -24.281 -11.651  0.00  0.00    +0.341 C 
BRANCH  31  32
ATOM     32  O   UNL     1      36.614 -25.589 -11.430  0.00  0.00    -0.441 OA
ATOM     33  C   UNL     1      37.464 -26.582 -12.012  0.00  0.00    +0.256 C 
ENDBRANCH  31  32
ENDBRANCH   7  31
TORSDOF 6
ENDMDL
MODEL 7
REMARK VINA RESULT:      -9.9      2.916      7.715
REMARK  Name = 6852141
REMARK  6 active torsions:
REMARK  status: ('A' for Active; 'I' for Inactive)
REMARK    1  A    between atoms: C_3  and  N_18
REMARK    2  A    between atoms: C_7  and  C_31
REMARK    3  A    between atoms: C_9  and  C_13
REMARK    4  A    between atoms: C_19  and  C_21
REMARK    5  A    between atoms: C_24  and  O_28
REMARK    6  A    between atoms: C_31  and  O_32
REMARK                            x       y       z     vdW  Elec       q    Type
REMARK                         _______ _______ _______ _____ _____    ______ ____
ROOT
ATOM      1  C   UNL     1      35.130 -22.769 -16.326  0.00  0.00    +0.014 C 
ATOM      2  C   UNL     1      36.500 -22.416 -16.341  0.00  0.00    +0.001 C 
ATOM      3  C   UNL     1      34.628 -23.525 -15.254  0.00  0.00    +0.051 C 
ATOM      4  C   UNL     1      34.303 -22.356 -17.383  0.00  0.00    +0.004 C 
ATOM      5  C   UNL     1      37.328 -22.828 -15.284  0.00  0.00    +0.007 C 
ATOM      6  C   UNL     1      35.464 -23.925 -14.212  0.00  0.00    +0.021 C 
ATOM      7  C   UNL     1      36.812 -23.578 -14.227  0.00  0.00    +0.077 C 
ATOM      8  C   UNL     1      37.003 -21.661 -17.414  0.00  0.00    +0.000 C 
ATOM      9  C   UNL     1      34.820 -21.606 -18.440  0.00  0.00    +0.031 C 
ATOM     10  C   UNL     1      36.167 -21.259 -18.455  0.00  0.00    +0.003 C 
ENDROOT
BRANCH   9  13
ATOM     11  N   UNL     1      32.654 -21.686 -19.652  0.00  0.00    -0.343 N 
ATOM     12  N   UNL     1      34.384 -20.317 -20.422  0.00  0.00    -0.285 NA
ATOM     13  C   UNL     1      33.949 -21.186 -19.527  0.00  0.00    +0.117 C 
ATOM     14  H   UNL     1      32.081 -21.388 -20.395  0.00  0.00    +0.144 HD
ATOM     15  H   UNL     1      32.312 -22.337 -18.997  0.00  0.00    +0.144 HD
ATOM     16  H   UNL     1      33.797 -20.032 -21.158  0.00  0.00    +0.188 HD
ENDBRANCH   9  13
BRANCH   3  18
ATOM     17  O   UNL     1      32.356 -22.340 -13.698  0.00  0.00    -0.270 OA
ATOM     18  N   UNL     1      33.281 -23.905 -15.186  0.00  0.00    -0.280 N 
ATOM     19  C   UNL     1      32.260 -23.311 -14.438  0.00  0.00    +0.249 C 
ATOM     20  H   UNL     1      33.024 -24.684 -15.729  0.00  0.00    +0.155 HD
BRANCH  19  21
ATOM     21  C   UNL     1      30.931 -23.967 -14.552  0.00  0.00    +0.053 C 
ATOM     22  C   UNL     1      30.040 -23.567 -15.527  0.00  0.00    +0.016 C 
ATOM     23  C   UNL     1      30.633 -24.974 -13.656  0.00  0.00    +0.004 C 
ATOM     24  C   UNL     1      28.800 -24.200 -15.610  0.00  0.00    +0.130 C 
ATOM     25  C   UNL     1      30.379 -22.473 -16.491  0.00  0.00    +0.034 C 
ATOM     26  C   UNL     1      29.393 -25.607 -13.739  0.00  0.00    +0.003 C 
ATOM     27  C   UNL     1      28.477 -25.220 -14.716  0.00  0.00    +0.036 C 
BRANCH  24  28
ATOM     28  O   UNL     1      27.892 -23.836 -16.559  0.00  0.00    -0.506 OA
ATOM     29  H   UNL     1      27.862 -22.950 -16.864  0.00  0.00    +0.292 HD
ENDBRANCH  24  28
ENDBRANCH  19  21
ENDBRANCH   3  18
BRANCH   7  31
ATOM     30  O   UNL     1      38.111 -25.150 -12.990  0.00  0.00    -0.245 OA
ATOM     31  C   UNL     1      37.683 -23.998 -13.140  0.00  0.00    +0.341 C 
BRANCH  31  32
ATOM     32  O   UNL     1      37.973 -22.959 -12.298  0.00  0.00    -0.441 OA
ATOM     33  C   UNL     1      37.184 -22.851 -11.108  0.00  0.00    +0.256 C 
ENDBRANCH  31  32
ENDBRANCH   7  31
TORSDOF 6
ENDMDL
MODEL 8
REMARK VINA RESULT:      -9.9      2.627      5.253
REMARK  Name = 6852141
REMARK  6 active torsions:
REMARK  status: ('A' for Active; 'I' for Inactive)
REMARK    1  A    between atoms: C_3  and  N_18
REMARK    2  A    between atoms: C_7  and  C_31
REMARK    3  A    between atoms: C_9  and  C_13
REMARK    4  A    between atoms: C_19  and  C_21
REMARK    5  A    between atoms: C_24  and  O_28
REMARK    6  A    between atoms: C_31  and  O_32
REMARK                            x       y       z     vdW  Elec       q    Type
REMARK                         _______ _______ _______ _____ _____    ______ ____
ROOT
ATOM      1  C   UNL     1      32.745 -23.559 -14.641  0.00  0.00    +0.014 C 
ATOM      2  C   UNL     1      32.530 -24.283 -13.445  0.00  0.00    +0.001 C 
ATOM      3  C   UNL     1      34.050 -23.165 -14.981  0.00  0.00    +0.051 C 
ATOM      4  C   UNL     1      31.649 -23.249 -15.463  0.00  0.00    +0.004 C 
ATOM      5  C   UNL     1      33.626 -24.593 -12.623  0.00  0.00    +0.007 C 
ATOM      6  C   UNL     1      35.127 -23.482 -14.153  0.00  0.00    +0.021 C 
ATOM      7  C   UNL     1      34.915 -24.194 -12.976  0.00  0.00    +0.077 C 
ATOM      8  C   UNL     1      31.225 -24.676 -13.105  0.00  0.00    +0.000 C 
ATOM      9  C   UNL     1      30.360 -23.648 -15.110  0.00  0.00    +0.031 C 
ATOM     10  C   UNL     1      30.148 -24.361 -13.934  0.00  0.00    +0.003 C 
ENDROOT
BRANCH   9  13
ATOM     11  N   UNL     1      28.262 -24.266 -16.286  0.00  0.00    -0.343 N 
ATOM     12  N   UNL     1      29.127 -22.104 -16.480  0.00  0.00    -0.285 NA
ATOM     13  C   UNL     1      29.236 -23.320 -15.973  0.00  0.00    +0.117 C 
ATOM     14  H   UNL     1      27.510 -24.023 -16.872  0.00  0.00    +0.144 HD
ATOM     15  H   UNL     1      28.327 -25.179 -15.920  0.00  0.00    +0.144 HD
ATOM     16  H   UNL     1      28.368 -21.880 -17.064  0.00  0.00    +0.188 HD
ENDBRANCH   9  13
BRANCH   3  18
ATOM     17  O   UNL     1      33.758 -23.958 -17.857  0.00  0.00    -0.270 OA
ATOM     18  N   UNL     1      34.323 -22.445 -16.151  0.00  0.00    -0.280 N 
ATOM     19  C   UNL     1      34.167 -22.868 -17.473  0.00  0.00    +0.249 C 
ATOM     20  H   UNL     1      34.667 -21.531 -16.025  0.00  0.00    +0.155 HD
BRANCH  19  21
ATOM     21  C   UNL     1      34.574 -21.879 -18.506  0.00  0.00    +0.053 C 
ATOM     22  C   UNL     1      33.618 -21.192 -19.224  0.00  0.00    +0.016 C 
ATOM     23  C   UNL     1      35.926 -21.683 -18.709  0.00  0.00    +0.004 C 
ATOM     24  C   UNL     1      34.029 -20.269 -20.187  0.00  0.00    +0.130 C 
ATOM     25  C   UNL     1      32.157 -21.416 -18.991  0.00  0.00    +0.034 C 
ATOM     26  C   UNL     1      36.337 -20.760 -19.672  0.00  0.00    +0.003 C 
ATOM     27  C   UNL     1      35.388 -20.054 -20.409  0.00  0.00    +0.036 C 
BRANCH  24  28
ATOM     28  O   UNL     1      33.117 -19.568 -20.918  0.00  0.00    -0.506 OA
ATOM     29  H   UNL     1      32.704 -19.967 -21.659  0.00  0.00    +0.292 HD
ENDBRANCH  24  28
ENDBRANCH  19  21
ENDBRANCH   3  18
BRANCH   7  31
ATOM     30  O   UNL     1      37.227 -24.319 -12.402  0.00  0.00    -0.245 OA
ATOM     31  C   UNL     1      36.040 -24.523 -12.113  0.00  0.00    +0.341 C 
BRANCH  31  32
ATOM     32  O   UNL     1      35.625 -25.088 -10.938  0.00  0.00    -0.441 OA
ATOM     33  C   UNL     1      35.950 -24.388  -9.733  0.00  0.00    +0.256 C 
ENDBRANCH  31  32
ENDBRANCH   7  31
TORSDOF 6
ENDMDL
MODEL 9
REMARK VINA RESULT:      -9.7      3.081      6.604
REMARK  Name = 6852141
REMARK  6 active torsions:
REMARK  status: ('A' for Active; 'I' for Inactive)
REMARK    1  A    between atoms: C_3  and  N_18
REMARK    2  A    between atoms: C_7  and  C_31
REMARK    3  A    between atoms: C_9  and  C_13
REMARK    4  A    between atoms: C_19  and  C_21
REMARK    5  A    between atoms: C_24  and  O_28
REMARK    6  A    between atoms: C_31  and  O_32
REMARK                            x       y       z     vdW  Elec       q    Type
REMARK                         _______ _______ _______ _____ _____    ______ ____
ROOT
ATOM      1  C   UNL     1      33.150 -23.049 -15.879  0.00  0.00    +0.014 C 
ATOM      2  C   UNL     1      32.324 -22.613 -16.942  0.00  0.00    +0.001 C 
ATOM      3  C   UNL     1      34.544 -22.912 -15.992  0.00  0.00    +0.051 C 
ATOM      4  C   UNL     1      32.560 -23.609 -14.735  0.00  0.00    +0.004 C 
ATOM      5  C   UNL     1      32.914 -22.052 -18.086  0.00  0.00    +0.007 C 
ATOM      6  C   UNL     1      35.113 -22.352 -17.136  0.00  0.00    +0.021 C 
ATOM      7  C   UNL     1      34.299 -21.924 -18.181  0.00  0.00    +0.077 C 
ATOM      8  C   UNL     1      30.930 -22.751 -16.829  0.00  0.00    +0.000 C 
ATOM      9  C   UNL     1      31.174 -23.738 -14.640  0.00  0.00    +0.031 C 
ATOM     10  C   UNL     1      30.361 -23.308 -15.684  0.00  0.00    +0.003 C 
ENDROOT
BRANCH   9  13
ATOM     11  N   UNL     1      29.640 -25.346 -13.533  0.00  0.00    -0.343 N 
ATOM     12  N   UNL     1      30.923 -23.871 -12.253  0.00  0.00    -0.285 NA
ATOM     13  C   UNL     1      30.578 -24.319 -13.447  0.00  0.00    +0.117 C 
ATOM     14  H   UNL     1      29.249 -25.726 -12.713  0.00  0.00    +0.144 HD
ATOM     15  H   UNL     1      29.368 -25.692 -14.414  0.00  0.00    +0.144 HD
ATOM     16  H   UNL     1      30.521 -24.263 -11.445  0.00  0.00    +0.188 HD
ENDBRANCH   9  13
BRANCH   3  18
ATOM     17  O   UNL     1      35.577 -25.644 -15.321  0.00  0.00    -0.270 OA
ATOM     18  N   UNL     1      35.412 -23.327 -14.974  0.00  0.00    -0.280 N 
ATOM     19  C   UNL     1      35.862 -24.622 -14.707  0.00  0.00    +0.249 C 
ATOM     20  H   UNL     1      35.743 -22.620 -14.375  0.00  0.00    +0.155 HD
BRANCH  19  21
ATOM     21  C   UNL     1      36.760 -24.749 -13.530  0.00  0.00    +0.053 C 
ATOM     22  C   UNL     1      38.127 -24.641 -13.684  0.00  0.00    +0.016 C 
ATOM     23  C   UNL     1      36.177 -24.975 -12.299  0.00  0.00    +0.004 C 
ATOM     24  C   UNL     1      38.946 -24.764 -12.562  0.00  0.00    +0.130 C 
ATOM     25  C   UNL     1      38.743 -24.396 -15.026  0.00  0.00    +0.034 C 
ATOM     26  C   UNL     1      36.996 -25.098 -11.176  0.00  0.00    +0.003 C 
ATOM     27  C   UNL     1      38.380 -24.992 -11.308  0.00  0.00    +0.036 C 
BRANCH  24  28
ATOM     28  O   UNL     1      40.301 -24.663 -12.671  0.00  0.00    -0.506 OA
ATOM     29  H   UNL     1      40.678 -24.033 -13.253  0.00  0.00    +0.292 HD
ENDBRANCH  24  28
ENDBRANCH  19  21
ENDBRANCH   3  18
BRANCH   7  31
ATOM     30  O   UNL     1      36.046 -21.575 -19.768  0.00  0.00    -0.245 OA
ATOM     31  C   UNL     1      34.896 -21.341 -19.374  0.00  0.00    +0.341 C 
BRANCH  31  32
ATOM     32  O   UNL     1      34.026 -20.498 -20.011  0.00  0.00    -0.441 OA
ATOM     33  C   UNL     1      34.580 -19.623 -20.999  0.00  0.00    +0.256 C 
ENDBRANCH  31  32
ENDBRANCH   7  31
TORSDOF 6
ENDMDL
