MODEL 1
REMARK VINA RESULT:     -11.4      0.000      0.000
REMARK  Name = 8969
REMARK  3 active torsions:
REMARK  status: ('A' for Active; 'I' for Inactive)
REMARK    1  A    between atoms: C_7  and  C_27
REMARK    2  A    between atoms: C_10  and  O_24
REMARK    3  A    between atoms: C_27  and  O_28
REMARK                            x       y       z     vdW  Elec       q    Type
REMARK                         _______ _______ _______ _____ _____    ______ ____
ROOT
ATOM      1  N   UNL     1      34.122 -23.021 -15.895  0.00  0.00    +0.392 N 
ATOM      2  N   UNL     1      32.904 -21.664 -19.163  0.00  0.00    -0.358 N 
ATOM      3  C   UNL     1      31.313 -23.703 -15.430  0.00  0.00    +0.009 C 
ATOM      4  C   UNL     1      32.371 -23.705 -14.305  0.00  0.00    -0.020 C 
ATOM      5  C   UNL     1      31.750 -22.721 -16.533  0.00  0.00    -0.015 C 
ATOM      6  C   UNL     1      33.164 -23.062 -17.033  0.00  0.00    -0.019 C 
ATOM      7  C   UNL     1      29.924 -23.370 -14.850  0.00  0.00    +0.126 C 
ATOM      8  C   UNL     1      33.768 -24.010 -14.869  0.00  0.00    -0.077 C 
ATOM      9  C   UNL     1      31.991 -24.686 -13.190  0.00  0.00    +0.000 C 
ATOM     10  C   UNL     1      29.535 -24.343 -13.722  0.00  0.00    +0.121 C 
ATOM     11  C   UNL     1      30.602 -24.374 -12.627  0.00  0.00    +0.030 C 
ATOM     12  C   UNL     1      33.635 -22.128 -18.106  0.00  0.00    +0.010 A 
ATOM     13  C   UNL     1      35.521 -23.186 -16.346  0.00  0.00    -0.072 C 
ATOM     14  C   UNL     1      34.923 -21.649 -18.226  0.00  0.00    -0.013 A 
ATOM     15  C   UNL     1      35.969 -21.996 -17.226  0.00  0.00    +0.005 C 
ATOM     16  C   UNL     1      34.974 -20.832 -19.387  0.00  0.00    +0.013 A 
ATOM     17  C   UNL     1      33.695 -20.858 -19.956  0.00  0.00    +0.056 A 
ATOM     18  C   UNL     1      35.980 -20.073 -20.016  0.00  0.00    +0.001 C 
ATOM     19  C   UNL     1      33.377 -20.160 -21.127  0.00  0.00    +0.017 C 
ATOM     20  C   UNL     1      35.674 -19.369 -21.187  0.00  0.00    +0.000 C 
ATOM     21  C   UNL     1      34.393 -19.413 -21.732  0.00  0.00    +0.001 C 
ATOM     22  H   UNL     1      34.053 -22.095 -15.472  0.00  0.00    -0.079 HD
ATOM     23  H   UNL     1      31.958 -21.872 -19.334  0.00  0.00    +0.166 HD
ENDROOT
BRANCH  10  24
ATOM     24  O   UNL     1      29.385 -25.660 -14.255  0.00  0.00    -0.384 OA
ATOM     25  H   UNL     1      28.478 -25.778 -14.576  0.00  0.00    +0.210 HD
ENDBRANCH  10  24
BRANCH   7  27
ATOM     26  O   UNL     1      28.506 -24.430 -16.486  0.00  0.00    -0.250 OA
ATOM     27  C   UNL     1      28.862 -23.409 -15.911  0.00  0.00    +0.319 C 
BRANCH  27  28
ATOM     28  O   UNL     1      28.378 -22.152 -16.117  0.00  0.00    -0.444 OA
ATOM     29  C   UNL     1      26.953 -22.045 -16.182  0.00  0.00    +0.256 C 
ENDBRANCH  27  28
ENDBRANCH   7  27
TORSDOF 3
ENDMDL
MODEL 2
REMARK VINA RESULT:      -9.0     13.092     16.397
REMARK  Name = 8969
REMARK  3 active torsions:
REMARK  status: ('A' for Active; 'I' for Inactive)
REMARK    1  A    between atoms: C_7  and  C_27
REMARK    2  A    between atoms: C_10  and  O_24
REMARK    3  A    between atoms: C_27  and  O_28
REMARK                            x       y       z     vdW  Elec       q    Type
REMARK                         _______ _______ _______ _____ _____    ______ ____
ROOT
ATOM      1  N   UNL     1      31.985  -7.910 -21.058  0.00  0.00    +0.392 N 
ATOM      2  N   UNL     1      33.296  -5.829 -23.879  0.00  0.00    -0.358 N 
ATOM      3  C   UNL     1      33.044 -10.175 -22.583  0.00  0.00    +0.009 C 
ATOM      4  C   UNL     1      32.058 -10.346 -21.407  0.00  0.00    -0.020 C 
ATOM      5  C   UNL     1      32.846  -8.782 -23.209  0.00  0.00    -0.015 C 
ATOM      6  C   UNL     1      32.982  -7.683 -22.141  0.00  0.00    -0.019 C 
ATOM      7  C   UNL     1      32.859 -11.318 -23.600  0.00  0.00    +0.126 C 
ATOM      8  C   UNL     1      32.210  -9.200 -20.394  0.00  0.00    -0.077 C 
ATOM      9  C   UNL     1      32.231 -11.713 -20.735  0.00  0.00    +0.000 C 
ATOM     10  C   UNL     1      33.021 -12.696 -22.935  0.00  0.00    +0.121 C 
ATOM     11  C   UNL     1      32.072 -12.852 -21.746  0.00  0.00    +0.030 C 
ATOM     12  C   UNL     1      32.791  -6.307 -22.703  0.00  0.00    +0.010 A 
ATOM     13  C   UNL     1      31.965  -6.797 -20.086  0.00  0.00    -0.072 C 
ATOM     14  C   UNL     1      32.126  -5.280 -22.067  0.00  0.00    -0.013 A 
ATOM     15  C   UNL     1      31.475  -5.486 -20.745  0.00  0.00    +0.005 C 
ATOM     16  C   UNL     1      32.199  -4.134 -22.905  0.00  0.00    +0.013 A 
ATOM     17  C   UNL     1      32.938  -4.506 -24.034  0.00  0.00    +0.056 A 
ATOM     18  C   UNL     1      31.715  -2.814 -22.816  0.00  0.00    +0.001 C 
ATOM     19  C   UNL     1      33.216  -3.616 -25.079  0.00  0.00    +0.017 C 
ATOM     20  C   UNL     1      31.984  -1.915 -23.855  0.00  0.00    +0.000 C 
ATOM     21  C   UNL     1      32.723  -2.312 -24.968  0.00  0.00    +0.001 C 
ATOM     22  H   UNL     1      31.063  -7.941 -21.495  0.00  0.00    -0.079 HD
ATOM     23  H   UNL     1      33.833  -6.349 -24.520  0.00  0.00    +0.166 HD
ENDROOT
BRANCH  10  24
ATOM     24  O   UNL     1      34.364 -12.853 -22.474  0.00  0.00    -0.384 OA
ATOM     25  H   UNL     1      34.357 -13.180 -21.561  0.00  0.00    +0.210 HD
ENDBRANCH  10  24
BRANCH   7  27
ATOM     26  O   UNL     1      33.677 -11.728 -25.830  0.00  0.00    -0.250 OA
ATOM     27  C   UNL     1      33.838 -11.209 -24.733  0.00  0.00    +0.319 C 
BRANCH  27  28
ATOM     28  O   UNL     1      34.905 -10.455 -24.343  0.00  0.00    -0.444 OA
ATOM     29  C   UNL     1      35.660  -9.861 -25.403  0.00  0.00    +0.256 C 
ENDBRANCH  27  28
ENDBRANCH   7  27
TORSDOF 3
ENDMDL
