MODEL 1
REMARK VINA RESULT:     -11.6      0.000      0.000
REMARK  Name = 4566
REMARK  6 active torsions:
REMARK  status: ('A' for Active; 'I' for Inactive)
REMARK    1  A    between atoms: N_4  and  C_14
REMARK    2  A    between atoms: C_6  and  O_26
REMARK    3  A    between atoms: C_15  and  S_20
REMARK    4  A    between atoms: S_20  and  N_23
REMARK    5  A    between atoms: O_26  and  C_27
REMARK    6  A    between atoms: C_27  and  C_28
REMARK                            x       y       z     vdW  Elec       q    Type
REMARK                         _______ _______ _______ _____ _____    ______ ____
ROOT
ATOM      1  N   UNL     1      32.342 -23.345 -15.371  0.00  0.00    -0.293 NA
ATOM      2  N   UNL     1      29.058 -22.408 -16.738  0.00  0.00    -0.266 NA
ATOM      3  N   UNL     1      30.486 -23.674 -13.822  0.00  0.00    -0.316 NA
ATOM      4  N   UNL     1      32.686 -24.188 -13.214  0.00  0.00    -0.238 N 
ATOM      5  N   UNL     1      28.321 -23.051 -14.735  0.00  0.00    -0.296 N 
ATOM      6  C   UNL     1      31.513 -22.881 -16.332  0.00  0.00    +0.288 C 
ATOM      7  C   UNL     1      30.166 -22.809 -16.045  0.00  0.00    +0.215 C 
ATOM      8  C   UNL     1      29.682 -23.205 -14.806  0.00  0.00    +0.196 C 
ATOM      9  C   UNL     1      31.784 -23.708 -14.191  0.00  0.00    +0.207 C 
ATOM     10  C   UNL     1      27.978 -22.571 -15.911  0.00  0.00    +0.164 C 
ATOM     11  H   UNL     1      29.040 -22.065 -17.660  0.00  0.00    +0.126 HD
ATOM     12  H   UNL     1      32.253 -24.445 -12.367  0.00  0.00    +0.166 HD
ATOM     13  H   UNL     1      27.731 -23.256 -13.973  0.00  0.00    +0.150 HD
ENDROOT
BRANCH   4  14
ATOM     14  C   UNL     1      34.080 -24.370 -13.214  0.00  0.00    +0.059 C 
ATOM     15  C   UNL     1      36.850 -24.735 -13.211  0.00  0.00    +0.122 C 
ATOM     16  C   UNL     1      34.732 -24.799 -14.371  0.00  0.00    +0.017 C 
ATOM     17  C   UNL     1      34.820 -24.125 -12.053  0.00  0.00    +0.017 C 
ATOM     18  C   UNL     1      36.115 -24.981 -14.371  0.00  0.00    +0.021 C 
ATOM     19  C   UNL     1      36.203 -24.307 -12.053  0.00  0.00    +0.021 C 
BRANCH  15  20
ATOM     20  S   UNL     1      38.581 -24.963 -13.210  0.00  0.00    +0.057 S 
ATOM     21  O   UNL     1      39.153 -24.141 -12.152  0.00  0.00    -0.153 OA
ATOM     22  O   UNL     1      38.859 -26.392 -13.245  0.00  0.00    -0.153 OA
BRANCH  20  23
ATOM     23  N   UNL     1      39.000 -24.287 -14.722  0.00  0.00    -0.203 NA
ATOM     24  H   UNL     1      38.952 -25.008 -15.442  0.00  0.00    +0.144 HD
ATOM     25  H   UNL     1      39.949 -23.915 -14.677  0.00  0.00    +0.144 HD
ENDBRANCH  20  23
ENDBRANCH  15  20
ENDBRANCH   4  14
BRANCH   6  26
ATOM     26  O   UNL     1      32.046 -22.503 -17.540  0.00  0.00    -0.453 OA
BRANCH  26  27
ATOM     27  C   UNL     1      33.403 -22.830 -17.775  0.00  0.00    +0.208 C 
BRANCH  27  28
ATOM     28  C   UNL     1      33.870 -22.088 -19.026  0.00  0.00    +0.044 C 
ATOM     29  C   UNL     1      32.899 -20.953 -19.378  0.00  0.00    +0.004 C 
ATOM     30  C   UNL     1      35.294 -21.549 -18.836  0.00  0.00    +0.004 C 
ATOM     31  C   UNL     1      33.373 -20.162 -20.595  0.00  0.00    +0.000 C 
ATOM     32  C   UNL     1      35.764 -20.757 -20.055  0.00  0.00    +0.000 C 
ATOM     33  C   UNL     1      34.792 -19.635 -20.406  0.00  0.00    +0.000 C 
ENDBRANCH  27  28
ENDBRANCH  26  27
ENDBRANCH   6  26
TORSDOF 6
ENDMDL
MODEL 2
REMARK VINA RESULT:     -11.1      2.932      6.786
REMARK  Name = 4566
REMARK  6 active torsions:
REMARK  status: ('A' for Active; 'I' for Inactive)
REMARK    1  A    between atoms: N_4  and  C_14
REMARK    2  A    between atoms: C_6  and  O_26
REMARK    3  A    between atoms: C_15  and  S_20
REMARK    4  A    between atoms: S_20  and  N_23
REMARK    5  A    between atoms: O_26  and  C_27
REMARK    6  A    between atoms: C_27  and  C_28
REMARK                            x       y       z     vdW  Elec       q    Type
REMARK                         _______ _______ _______ _____ _____    ______ ____
ROOT
ATOM      1  N   UNL     1      34.613 -23.926 -13.969  0.00  0.00    -0.293 NA
ATOM      2  N   UNL     1      38.151 -24.226 -13.009  0.00  0.00    -0.266 NA
ATOM      3  N   UNL     1      34.968 -24.380 -11.598  0.00  0.00    -0.316 NA
ATOM      4  N   UNL     1      32.816 -24.141 -12.483  0.00  0.00    -0.238 N 
ATOM      5  N   UNL     1      37.311 -24.577 -10.975  0.00  0.00    -0.296 N 
ATOM      6  C   UNL     1      35.942 -23.925 -14.212  0.00  0.00    +0.288 C 
ATOM      7  C   UNL     1      36.794 -24.153 -13.151  0.00  0.00    +0.215 C 
ATOM      8  C   UNL     1      36.295 -24.374 -11.874  0.00  0.00    +0.196 C 
ATOM      9  C   UNL     1      34.214 -24.150 -12.694  0.00  0.00    +0.207 C 
ATOM     10  C   UNL     1      38.412 -24.482 -11.689  0.00  0.00    +0.164 C 
ATOM     11  H   UNL     1      38.819 -24.115 -13.724  0.00  0.00    +0.126 HD
ATOM     12  H   UNL     1      32.556 -24.306 -11.547  0.00  0.00    +0.166 HD
ATOM     13  H   UNL     1      37.232 -24.754 -10.010  0.00  0.00    +0.150 HD
ENDROOT
BRANCH   4  14
ATOM     14  C   UNL     1      31.725 -23.943 -13.347  0.00  0.00    +0.059 C 
ATOM     15  C   UNL     1      29.559 -23.548 -15.067  0.00  0.00    +0.122 C 
ATOM     16  C   UNL     1      30.822 -24.980 -13.587  0.00  0.00    +0.017 C 
ATOM     17  C   UNL     1      31.541 -22.706 -13.972  0.00  0.00    +0.017 C 
ATOM     18  C   UNL     1      29.739 -24.784 -14.445  0.00  0.00    +0.021 C 
ATOM     19  C   UNL     1      30.458 -22.510 -14.830  0.00  0.00    +0.021 C 
BRANCH  15  20
ATOM     20  S   UNL     1      28.204 -23.302 -16.141  0.00  0.00    +0.057 S 
ATOM     21  O   UNL     1      28.481 -22.138 -16.971  0.00  0.00    -0.153 OA
ATOM     22  O   UNL     1      27.875 -24.575 -16.767  0.00  0.00    -0.153 OA
BRANCH  20  23
ATOM     23  N   UNL     1      26.972 -22.905 -15.027  0.00  0.00    -0.203 NA
ATOM     24  H   UNL     1      26.185 -22.487 -15.524  0.00  0.00    +0.144 HD
ATOM     25  H   UNL     1      27.333 -22.239 -14.343  0.00  0.00    +0.144 HD
ENDBRANCH  20  23
ENDBRANCH  15  20
ENDBRANCH   4  14
BRANCH   6  26
ATOM     26  O   UNL     1      36.381 -23.703 -15.494  0.00  0.00    -0.453 OA
BRANCH  26  27
ATOM     27  C   UNL     1      36.319 -22.372 -15.973  0.00  0.00    +0.208 C 
BRANCH  27  28
ATOM     28  C   UNL     1      35.717 -22.391 -17.377  0.00  0.00    +0.044 C 
ATOM     29  C   UNL     1      34.191 -22.239 -17.315  0.00  0.00    +0.004 C 
ATOM     30  C   UNL     1      36.341 -21.293 -18.249  0.00  0.00    +0.004 C 
ATOM     31  C   UNL     1      33.570 -22.201 -18.709  0.00  0.00    +0.000 C 
ATOM     32  C   UNL     1      35.717 -21.257 -19.642  0.00  0.00    +0.000 C 
ATOM     33  C   UNL     1      34.199 -21.113 -19.575  0.00  0.00    +0.000 C 
ENDBRANCH  27  28
ENDBRANCH  26  27
ENDBRANCH   6  26
TORSDOF 6
ENDMDL
MODEL 3
REMARK VINA RESULT:     -10.9      3.098      6.789
REMARK  Name = 4566
REMARK  6 active torsions:
REMARK  status: ('A' for Active; 'I' for Inactive)
REMARK    1  A    between atoms: N_4  and  C_14
REMARK    2  A    between atoms: C_6  and  O_26
REMARK    3  A    between atoms: C_15  and  S_20
REMARK    4  A    between atoms: S_20  and  N_23
REMARK    5  A    between atoms: O_26  and  C_27
REMARK    6  A    between atoms: C_27  and  C_28
REMARK                            x       y       z     vdW  Elec       q    Type
REMARK                         _______ _______ _______ _____ _____    ______ ____
ROOT
ATOM      1  N   UNL     1      34.433 -23.418 -15.231  0.00  0.00    -0.293 NA
ATOM      2  N   UNL     1      38.099 -23.613 -15.010  0.00  0.00    -0.266 NA
ATOM      3  N   UNL     1      35.252 -24.611 -13.266  0.00  0.00    -0.316 NA
ATOM      4  N   UNL     1      32.962 -24.338 -13.658  0.00  0.00    -0.238 N 
ATOM      5  N   UNL     1      37.677 -24.735 -13.131  0.00  0.00    -0.296 N 
ATOM      6  C   UNL     1      35.691 -23.179 -15.663  0.00  0.00    +0.288 C 
ATOM      7  C   UNL     1      36.738 -23.655 -14.901  0.00  0.00    +0.215 C 
ATOM      8  C   UNL     1      36.501 -24.356 -13.726  0.00  0.00    +0.196 C 
ATOM      9  C   UNL     1      34.294 -24.110 -14.075  0.00  0.00    +0.207 C 
ATOM     10  C   UNL     1      38.617 -24.273 -13.926  0.00  0.00    +0.164 C 
ATOM     11  H   UNL     1      38.614 -23.187 -15.733  0.00  0.00    +0.126 HD
ATOM     12  H   UNL     1      32.891 -24.842 -12.815  0.00  0.00    +0.166 HD
ATOM     13  H   UNL     1      37.791 -25.239 -12.293  0.00  0.00    +0.150 HD
ENDROOT
BRANCH   4  14
ATOM     14  C   UNL     1      31.719 -23.985 -14.212  0.00  0.00    +0.059 C 
ATOM     15  C   UNL     1      29.247 -23.285 -15.311  0.00  0.00    +0.122 C 
ATOM     16  C   UNL     1      31.331 -22.645 -14.270  0.00  0.00    +0.017 C 
ATOM     17  C   UNL     1      30.865 -24.975 -14.706  0.00  0.00    +0.017 C 
ATOM     18  C   UNL     1      30.097 -22.294 -14.818  0.00  0.00    +0.021 C 
ATOM     19  C   UNL     1      29.631 -24.624 -15.255  0.00  0.00    +0.021 C 
BRANCH  15  20
ATOM     20  S   UNL     1      27.702 -22.847 -15.997  0.00  0.00    +0.057 S 
ATOM     21  O   UNL     1      26.700 -22.896 -14.942  0.00  0.00    -0.153 OA
ATOM     22  O   UNL     1      27.872 -21.630 -16.778  0.00  0.00    -0.153 OA
BRANCH  20  23
ATOM     23  N   UNL     1      27.440 -24.152 -17.068  0.00  0.00    -0.203 NA
ATOM     24  H   UNL     1      26.927 -24.890 -16.586  0.00  0.00    +0.144 HD
ATOM     25  H   UNL     1      28.338 -24.515 -17.387  0.00  0.00    +0.144 HD
ENDBRANCH  20  23
ENDBRANCH  15  20
ENDBRANCH   4  14
BRANCH   6  26
ATOM     26  O   UNL     1      35.868 -22.482 -16.832  0.00  0.00    -0.453 OA
BRANCH  26  27
ATOM     27  C   UNL     1      34.865 -22.618 -17.821  0.00  0.00    +0.208 C 
BRANCH  27  28
ATOM     28  C   UNL     1      34.798 -21.320 -18.624  0.00  0.00    +0.044 C 
ATOM     29  C   UNL     1      36.058 -21.147 -19.483  0.00  0.00    +0.004 C 
ATOM     30  C   UNL     1      33.534 -21.286 -19.495  0.00  0.00    +0.004 C 
ATOM     31  C   UNL     1      35.991 -19.883 -20.336  0.00  0.00    +0.000 C 
ATOM     32  C   UNL     1      33.471 -20.021 -20.348  0.00  0.00    +0.000 C 
ATOM     33  C   UNL     1      34.729 -19.850 -21.194  0.00  0.00    +0.000 C 
ENDBRANCH  27  28
ENDBRANCH  26  27
ENDBRANCH   6  26
TORSDOF 6
ENDMDL
MODEL 4
REMARK VINA RESULT:     -10.7      2.675      5.554
REMARK  Name = 4566
REMARK  6 active torsions:
REMARK  status: ('A' for Active; 'I' for Inactive)
REMARK    1  A    between atoms: N_4  and  C_14
REMARK    2  A    between atoms: C_6  and  O_26
REMARK    3  A    between atoms: C_15  and  S_20
REMARK    4  A    between atoms: S_20  and  N_23
REMARK    5  A    between atoms: O_26  and  C_27
REMARK    6  A    between atoms: C_27  and  C_28
REMARK                            x       y       z     vdW  Elec       q    Type
REMARK                         _______ _______ _______ _____ _____    ______ ____
ROOT
ATOM      1  N   UNL     1      34.867 -22.487 -17.130  0.00  0.00    -0.293 NA
ATOM      2  N   UNL     1      33.541 -20.992 -20.219  0.00  0.00    -0.266 NA
ATOM      3  N   UNL     1      36.458 -21.064 -18.313  0.00  0.00    -0.316 NA
ATOM      4  N   UNL     1      37.036 -22.142 -16.319  0.00  0.00    -0.238 N 
ATOM      5  N   UNL     1      35.571 -20.082 -20.353  0.00  0.00    -0.296 N 
ATOM      6  C   UNL     1      33.911 -22.263 -18.059  0.00  0.00    +0.288 C 
ATOM      7  C   UNL     1      34.221 -21.439 -19.121  0.00  0.00    +0.215 C 
ATOM      8  C   UNL     1      35.479 -20.860 -19.227  0.00  0.00    +0.196 C 
ATOM      9  C   UNL     1      36.065 -21.882 -17.313  0.00  0.00    +0.207 C 
ATOM     10  C   UNL     1      34.391 -20.183 -20.926  0.00  0.00    +0.164 C 
ATOM     11  H   UNL     1      32.612 -21.211 -20.458  0.00  0.00    +0.126 HD
ATOM     12  H   UNL     1      37.896 -21.689 -16.477  0.00  0.00    +0.166 HD
ATOM     13  H   UNL     1      36.349 -19.563 -20.663  0.00  0.00    +0.150 HD
ENDROOT
BRANCH   4  14
ATOM     14  C   UNL     1      37.014 -22.922 -15.149  0.00  0.00    +0.059 C 
ATOM     15  C   UNL     1      36.967 -24.471 -12.824  0.00  0.00    +0.122 C 
ATOM     16  C   UNL     1      38.004 -23.880 -14.924  0.00  0.00    +0.017 C 
ATOM     17  C   UNL     1      35.999 -22.742 -14.205  0.00  0.00    +0.017 C 
ATOM     18  C   UNL     1      37.982 -24.654 -13.764  0.00  0.00    +0.021 C 
ATOM     19  C   UNL     1      35.977 -23.516 -13.044  0.00  0.00    +0.021 C 
BRANCH  15  20
ATOM     20  S   UNL     1      36.939 -25.440 -11.371  0.00  0.00    +0.057 S 
ATOM     21  O   UNL     1      37.109 -26.836 -11.747  0.00  0.00    -0.153 OA
ATOM     22  O   UNL     1      37.838 -24.837 -10.397  0.00  0.00    -0.153 OA
BRANCH  20  23
ATOM     23  N   UNL     1      35.329 -25.200 -10.852  0.00  0.00    -0.203 NA
ATOM     24  H   UNL     1      35.329 -24.688  -9.970  0.00  0.00    +0.144 HD
ATOM     25  H   UNL     1      34.877 -26.105 -10.718  0.00  0.00    +0.144 HD
ENDBRANCH  20  23
ENDBRANCH  15  20
ENDBRANCH   4  14
BRANCH   6  26
ATOM     26  O   UNL     1      32.685 -22.862 -17.905  0.00  0.00    -0.453 OA
BRANCH  26  27
ATOM     27  C   UNL     1      31.878 -22.411 -16.834  0.00  0.00    +0.208 C 
BRANCH  27  28
ATOM     28  C   UNL     1      31.743 -23.545 -15.819  0.00  0.00    +0.044 C 
ATOM     29  C   UNL     1      32.468 -23.192 -14.513  0.00  0.00    +0.004 C 
ATOM     30  C   UNL     1      30.265 -23.863 -15.556  0.00  0.00    +0.004 C 
ATOM     31  C   UNL     1      32.302 -24.288 -13.462  0.00  0.00    +0.000 C 
ATOM     32  C   UNL     1      30.104 -24.958 -14.503  0.00  0.00    +0.000 C 
ATOM     33  C   UNL     1      30.832 -24.607 -13.209  0.00  0.00    +0.000 C 
ENDBRANCH  27  28
ENDBRANCH  26  27
ENDBRANCH   6  26
TORSDOF 6
ENDMDL
MODEL 5
REMARK VINA RESULT:     -10.6      3.551      7.241
REMARK  Name = 4566
REMARK  6 active torsions:
REMARK  status: ('A' for Active; 'I' for Inactive)
REMARK    1  A    between atoms: N_4  and  C_14
REMARK    2  A    between atoms: C_6  and  O_26
REMARK    3  A    between atoms: C_15  and  S_20
REMARK    4  A    between atoms: S_20  and  N_23
REMARK    5  A    between atoms: O_26  and  C_27
REMARK    6  A    between atoms: C_27  and  C_28
REMARK                            x       y       z     vdW  Elec       q    Type
REMARK                         _______ _______ _______ _____ _____    ______ ____
ROOT
ATOM      1  N   UNL     1      33.805 -22.694 -16.109  0.00  0.00    -0.293 NA
ATOM      2  N   UNL     1      32.829 -24.618 -13.129  0.00  0.00    -0.266 NA
ATOM      3  N   UNL     1      31.513 -23.528 -16.166  0.00  0.00    -0.316 NA
ATOM      4  N   UNL     1      32.397 -22.273 -17.931  0.00  0.00    -0.238 N 
ATOM      5  N   UNL     1      30.879 -24.799 -14.192  0.00  0.00    -0.296 N 
ATOM      6  C   UNL     1      34.020 -23.246 -14.894  0.00  0.00    +0.288 C 
ATOM      7  C   UNL     1      32.985 -23.944 -14.308  0.00  0.00    +0.215 C 
ATOM      8  C   UNL     1      31.760 -24.070 -14.949  0.00  0.00    +0.196 C 
ATOM      9  C   UNL     1      32.580 -22.867 -16.662  0.00  0.00    +0.207 C 
ATOM     10  C   UNL     1      31.552 -25.113 -13.106  0.00  0.00    +0.164 C 
ATOM     11  H   UNL     1      33.510 -24.728 -12.426  0.00  0.00    +0.126 HD
ATOM     12  H   UNL     1      31.498 -22.415 -18.309  0.00  0.00    +0.166 HD
ATOM     13  H   UNL     1      29.949 -25.035 -14.413  0.00  0.00    +0.150 HD
ENDROOT
BRANCH   4  14
ATOM     14  C   UNL     1      33.246 -21.520 -18.761  0.00  0.00    +0.059 C 
ATOM     15  C   UNL     1      34.932 -20.021 -20.409  0.00  0.00    +0.122 C 
ATOM     16  C   UNL     1      34.631 -21.677 -18.676  0.00  0.00    +0.017 C 
ATOM     17  C   UNL     1      32.707 -20.610 -19.675  0.00  0.00    +0.017 C 
ATOM     18  C   UNL     1      35.473 -20.929 -19.499  0.00  0.00    +0.021 C 
ATOM     19  C   UNL     1      33.550 -19.862 -20.497  0.00  0.00    +0.021 C 
BRANCH  15  20
ATOM     20  S   UNL     1      35.986 -19.084 -21.439  0.00  0.00    +0.057 S 
ATOM     21  O   UNL     1      37.357 -19.271 -20.985  0.00  0.00    -0.153 OA
ATOM     22  O   UNL     1      35.640 -19.358 -22.827  0.00  0.00    -0.153 OA
BRANCH  20  23
ATOM     23  N   UNL     1      35.489 -17.495 -21.054  0.00  0.00    -0.203 NA
ATOM     24  H   UNL     1      34.726 -17.532 -20.379  0.00  0.00    +0.144 HD
ATOM     25  H   UNL     1      35.170 -17.025 -21.901  0.00  0.00    +0.144 HD
ENDBRANCH  20  23
ENDBRANCH  15  20
ENDBRANCH   4  14
BRANCH   6  26
ATOM     26  O   UNL     1      35.251 -23.090 -14.305  0.00  0.00    -0.453 OA
BRANCH  26  27
ATOM     27  C   UNL     1      36.386 -23.358 -15.107  0.00  0.00    +0.208 C 
BRANCH  27  28
ATOM     28  C   UNL     1      37.205 -24.459 -14.435  0.00  0.00    +0.044 C 
ATOM     29  C   UNL     1      37.536 -24.081 -12.985  0.00  0.00    +0.004 C 
ATOM     30  C   UNL     1      36.460 -25.800 -14.495  0.00  0.00    +0.004 C 
ATOM     31  C   UNL     1      38.309 -25.191 -12.275  0.00  0.00    +0.000 C 
ATOM     32  C   UNL     1      37.235 -26.906 -13.782  0.00  0.00    +0.000 C 
ATOM     33  C   UNL     1      37.569 -26.523 -12.344  0.00  0.00    +0.000 C 
ENDBRANCH  27  28
ENDBRANCH  26  27
ENDBRANCH   6  26
TORSDOF 6
ENDMDL
MODEL 6
REMARK VINA RESULT:      -9.2      3.658      7.732
REMARK  Name = 4566
REMARK  6 active torsions:
REMARK  status: ('A' for Active; 'I' for Inactive)
REMARK    1  A    between atoms: N_4  and  C_14
REMARK    2  A    between atoms: C_6  and  O_26
REMARK    3  A    between atoms: C_15  and  S_20
REMARK    4  A    between atoms: S_20  and  N_23
REMARK    5  A    between atoms: O_26  and  C_27
REMARK    6  A    between atoms: C_27  and  C_28
REMARK                            x       y       z     vdW  Elec       q    Type
REMARK                         _______ _______ _______ _____ _____    ______ ____
ROOT
ATOM      1  N   UNL     1      35.000 -22.811 -16.144  0.00  0.00    -0.293 NA
ATOM      2  N   UNL     1      34.990 -24.723 -13.002  0.00  0.00    -0.266 NA
ATOM      3  N   UNL     1      37.212 -23.132 -15.164  0.00  0.00    -0.316 NA
ATOM      4  N   UNL     1      36.925 -21.951 -17.163  0.00  0.00    -0.238 N 
ATOM      5  N   UNL     1      37.192 -24.397 -13.088  0.00  0.00    -0.296 N 
ATOM      6  C   UNL     1      34.409 -23.495 -15.140  0.00  0.00    +0.288 C 
ATOM      7  C   UNL     1      35.214 -24.003 -14.141  0.00  0.00    +0.215 C 
ATOM      8  C   UNL     1      36.589 -23.813 -14.172  0.00  0.00    +0.196 C 
ATOM      9  C   UNL     1      36.347 -22.673 -16.094  0.00  0.00    +0.207 C 
ATOM     10  C   UNL     1      36.205 -24.935 -12.405  0.00  0.00    +0.164 C 
ATOM     11  H   UNL     1      34.116 -25.034 -12.671  0.00  0.00    +0.126 HD
ATOM     12  H   UNL     1      37.905 -21.868 -17.101  0.00  0.00    +0.166 HD
ATOM     13  H   UNL     1      38.153 -24.411 -12.869  0.00  0.00    +0.150 HD
ENDROOT
BRANCH   4  14
ATOM     14  C   UNL     1      36.376 -21.329 -18.297  0.00  0.00    +0.059 C 
ATOM     15  C   UNL     1      35.286 -20.092 -20.553  0.00  0.00    +0.122 C 
ATOM     16  C   UNL     1      35.078 -21.638 -18.709  0.00  0.00    +0.017 C 
ATOM     17  C   UNL     1      37.127 -20.397 -19.020  0.00  0.00    +0.017 C 
ATOM     18  C   UNL     1      34.533 -21.021 -19.835  0.00  0.00    +0.021 C 
ATOM     19  C   UNL     1      36.582 -19.780 -20.146  0.00  0.00    +0.021 C 
BRANCH  15  20
ATOM     20  S   UNL     1      34.604 -19.319 -21.964  0.00  0.00    +0.057 S 
ATOM     21  O   UNL     1      35.307 -19.809 -23.141  0.00  0.00    -0.153 OA
ATOM     22  O   UNL     1      33.153 -19.425 -21.891  0.00  0.00    -0.153 OA
BRANCH  20  23
ATOM     23  N   UNL     1      35.049 -17.693 -21.691  0.00  0.00    -0.203 NA
ATOM     24  H   UNL     1      35.972 -17.521 -22.090  0.00  0.00    +0.144 HD
ATOM     25  H   UNL     1      35.074 -17.511 -20.687  0.00  0.00    +0.144 HD
ENDBRANCH  20  23
ENDBRANCH  15  20
ENDBRANCH   4  14
BRANCH   6  26
ATOM     26  O   UNL     1      33.045 -23.652 -15.159  0.00  0.00    -0.453 OA
BRANCH  26  27
ATOM     27  C   UNL     1      32.298 -22.896 -14.224  0.00  0.00    +0.208 C 
BRANCH  27  28
ATOM     28  C   UNL     1      30.812 -23.158 -14.468  0.00  0.00    +0.044 C 
ATOM     29  C   UNL     1      30.404 -22.700 -15.874  0.00  0.00    +0.004 C 
ATOM     30  C   UNL     1      30.483 -24.642 -14.258  0.00  0.00    +0.004 C 
ATOM     31  C   UNL     1      28.934 -23.001 -16.161  0.00  0.00    +0.000 C 
ATOM     32  C   UNL     1      29.013 -24.939 -14.548  0.00  0.00    +0.000 C 
ATOM     33  C   UNL     1      28.609 -24.475 -15.944  0.00  0.00    +0.000 C 
ENDBRANCH  27  28
ENDBRANCH  26  27
ENDBRANCH   6  26
TORSDOF 6
ENDMDL
MODEL 7
REMARK VINA RESULT:      -9.2     14.616     18.279
REMARK  Name = 4566
REMARK  6 active torsions:
REMARK  status: ('A' for Active; 'I' for Inactive)
REMARK    1  A    between atoms: N_4  and  C_14
REMARK    2  A    between atoms: C_6  and  O_26
REMARK    3  A    between atoms: C_15  and  S_20
REMARK    4  A    between atoms: S_20  and  N_23
REMARK    5  A    between atoms: O_26  and  C_27
REMARK    6  A    between atoms: C_27  and  C_28
REMARK                            x       y       z     vdW  Elec       q    Type
REMARK                         _______ _______ _______ _____ _____    ______ ____
ROOT
ATOM      1  N   UNL     1      32.741  -8.030 -22.784  0.00  0.00    -0.293 NA
ATOM      2  N   UNL     1      31.818 -10.538 -20.257  0.00  0.00    -0.266 NA
ATOM      3  N   UNL     1      32.512  -7.134 -20.526  0.00  0.00    -0.316 NA
ATOM      4  N   UNL     1      33.090  -5.760 -22.329  0.00  0.00    -0.238 N 
ATOM      5  N   UNL     1      31.901  -8.800 -18.864  0.00  0.00    -0.296 N 
ATOM      6  C   UNL     1      32.431  -9.278 -22.366  0.00  0.00    +0.288 C 
ATOM      7  C   UNL     1      32.158  -9.462 -21.026  0.00  0.00    +0.215 C 
ATOM      8  C   UNL     1      32.204  -8.395 -20.139  0.00  0.00    +0.196 C 
ATOM      9  C   UNL     1      32.761  -7.049 -21.850  0.00  0.00    +0.207 C 
ATOM     10  C   UNL     1      31.674 -10.092 -18.969  0.00  0.00    +0.164 C 
ATOM     11  H   UNL     1      31.698 -11.464 -20.569  0.00  0.00    +0.126 HD
ATOM     12  H   UNL     1      33.099  -5.067 -21.629  0.00  0.00    +0.166 HD
ATOM     13  H   UNL     1      31.862  -8.246 -18.051  0.00  0.00    +0.150 HD
ENDROOT
BRANCH   4  14
ATOM     14  C   UNL     1      33.409  -5.274 -23.609  0.00  0.00    +0.059 C 
ATOM     15  C   UNL     1      34.042  -4.309 -26.154  0.00  0.00    +0.122 C 
ATOM     16  C   UNL     1      32.479  -4.515 -24.323  0.00  0.00    +0.017 C 
ATOM     17  C   UNL     1      34.657  -5.548 -24.174  0.00  0.00    +0.017 C 
ATOM     18  C   UNL     1      32.794  -4.033 -25.594  0.00  0.00    +0.021 C 
ATOM     19  C   UNL     1      34.973  -5.066 -25.444  0.00  0.00    +0.021 C 
BRANCH  15  20
ATOM     20  S   UNL     1      34.437  -3.706 -27.744  0.00  0.00    +0.057 S 
ATOM     21  O   UNL     1      33.646  -4.439 -28.723  0.00  0.00    -0.153 OA
ATOM     22  O   UNL     1      34.382  -2.251 -27.713  0.00  0.00    -0.153 OA
BRANCH  20  23
ATOM     23  N   UNL     1      36.070  -4.190 -27.880  0.00  0.00    -0.203 NA
ATOM     24  H   UNL     1      36.118  -5.206 -27.958  0.00  0.00    +0.144 HD
ATOM     25  H   UNL     1      36.583  -3.889 -27.051  0.00  0.00    +0.144 HD
ENDBRANCH  20  23
ENDBRANCH  15  20
ENDBRANCH   4  14
BRANCH   6  26
ATOM     26  O   UNL     1      32.399 -10.295 -23.287  0.00  0.00    -0.453 OA
BRANCH  26  27
ATOM     27  C   UNL     1      33.621 -10.956 -23.558  0.00  0.00    +0.208 C 
BRANCH  27  28
ATOM     28  C   UNL     1      33.438 -12.447 -23.279  0.00  0.00    +0.044 C 
ATOM     29  C   UNL     1      33.754 -13.276 -24.531  0.00  0.00    +0.004 C 
ATOM     30  C   UNL     1      34.311 -12.888 -22.096  0.00  0.00    +0.004 C 
ATOM     31  C   UNL     1      33.629 -14.774 -24.262  0.00  0.00    +0.000 C 
ATOM     32  C   UNL     1      34.185 -14.387 -21.831  0.00  0.00    +0.000 C 
ATOM     33  C   UNL     1      34.492 -15.207 -23.080  0.00  0.00    +0.000 C 
ENDBRANCH  27  28
ENDBRANCH  26  27
ENDBRANCH   6  26
TORSDOF 6
ENDMDL
MODEL 8
REMARK VINA RESULT:      -9.1      4.531      8.818
REMARK  Name = 4566
REMARK  6 active torsions:
REMARK  status: ('A' for Active; 'I' for Inactive)
REMARK    1  A    between atoms: N_4  and  C_14
REMARK    2  A    between atoms: C_6  and  O_26
REMARK    3  A    between atoms: C_15  and  S_20
REMARK    4  A    between atoms: S_20  and  N_23
REMARK    5  A    between atoms: O_26  and  C_27
REMARK    6  A    between atoms: C_27  and  C_28
REMARK                            x       y       z     vdW  Elec       q    Type
REMARK                         _______ _______ _______ _____ _____    ______ ____
ROOT
ATOM      1  N   UNL     1      35.050 -21.741 -18.299  0.00  0.00    -0.293 NA
ATOM      2  N   UNL     1      35.309 -23.777 -15.247  0.00  0.00    -0.266 NA
ATOM      3  N   UNL     1      37.161 -21.484 -17.105  0.00  0.00    -0.316 NA
ATOM      4  N   UNL     1      36.727 -20.306 -19.079  0.00  0.00    -0.238 N 
ATOM      5  N   UNL     1      37.321 -22.833 -15.088  0.00  0.00    -0.296 N 
ATOM      6  C   UNL     1      34.594 -22.630 -17.388  0.00  0.00    +0.288 C 
ATOM      7  C   UNL     1      35.417 -22.950 -16.329  0.00  0.00    +0.215 C 
ATOM      8  C   UNL     1      36.675 -22.376 -16.209  0.00  0.00    +0.196 C 
ATOM      9  C   UNL     1      36.289 -21.230 -18.103  0.00  0.00    +0.207 C 
ATOM     10  C   UNL     1      36.474 -23.673 -14.533  0.00  0.00    +0.164 C 
ATOM     11  H   UNL     1      34.536 -24.344 -15.021  0.00  0.00    +0.126 HD
ATOM     12  H   UNL     1      37.631 -19.952 -18.911  0.00  0.00    +0.166 HD
ATOM     13  H   UNL     1      38.221 -22.588 -14.771  0.00  0.00    +0.150 HD
ENDROOT
BRANCH   4  14
ATOM     14  C   UNL     1      36.126 -19.794 -20.242  0.00  0.00    +0.059 C 
ATOM     15  C   UNL     1      34.929 -18.774 -22.551  0.00  0.00    +0.122 C 
ATOM     16  C   UNL     1      36.852 -18.967 -21.101  0.00  0.00    +0.017 C 
ATOM     17  C   UNL     1      34.798 -20.109 -20.542  0.00  0.00    +0.017 C 
ATOM     18  C   UNL     1      36.255 -18.457 -22.255  0.00  0.00    +0.021 C 
ATOM     19  C   UNL     1      34.201 -19.599 -21.696  0.00  0.00    +0.021 C 
BRANCH  15  20
ATOM     20  S   UNL     1      34.182 -18.137 -23.995  0.00  0.00    +0.057 S 
ATOM     21  O   UNL     1      35.074 -18.378 -25.120  0.00  0.00    -0.153 OA
ATOM     22  O   UNL     1      32.805 -18.609 -24.049  0.00  0.00    -0.153 OA
BRANCH  20  23
ATOM     23  N   UNL     1      34.173 -16.464 -23.646  0.00  0.00    -0.203 NA
ATOM     24  H   UNL     1      34.934 -16.247 -23.002  0.00  0.00    +0.144 HD
ATOM     25  H   UNL     1      33.283 -16.211 -23.216  0.00  0.00    +0.144 HD
ENDBRANCH  20  23
ENDBRANCH  15  20
ENDBRANCH   4  14
BRANCH   6  26
ATOM     26  O   UNL     1      33.341 -23.166 -17.556  0.00  0.00    -0.453 OA
BRANCH  26  27
ATOM     27  C   UNL     1      32.268 -22.512 -16.904  0.00  0.00    +0.208 C 
BRANCH  27  28
ATOM     28  C   UNL     1      31.759 -23.419 -15.784  0.00  0.00    +0.044 C 
ATOM     29  C   UNL     1      32.183 -22.877 -14.412  0.00  0.00    +0.004 C 
ATOM     30  C   UNL     1      30.234 -23.574 -15.864  0.00  0.00    +0.004 C 
ATOM     31  C   UNL     1      31.640 -23.737 -13.273  0.00  0.00    +0.000 C 
ATOM     32  C   UNL     1      29.695 -24.433 -14.722  0.00  0.00    +0.000 C 
ATOM     33  C   UNL     1      30.125 -23.895 -13.360  0.00  0.00    +0.000 C 
ENDBRANCH  27  28
ENDBRANCH  26  27
ENDBRANCH   6  26
TORSDOF 6
ENDMDL
MODEL 9
REMARK VINA RESULT:      -9.0     15.058     18.773
REMARK  Name = 4566
REMARK  6 active torsions:
REMARK  status: ('A' for Active; 'I' for Inactive)
REMARK    1  A    between atoms: N_4  and  C_14
REMARK    2  A    between atoms: C_6  and  O_26
REMARK    3  A    between atoms: C_15  and  S_20
REMARK    4  A    between atoms: S_20  and  N_23
REMARK    5  A    between atoms: O_26  and  C_27
REMARK    6  A    between atoms: C_27  and  C_28
REMARK                            x       y       z     vdW  Elec       q    Type
REMARK                         _______ _______ _______ _____ _____    ______ ____
ROOT
ATOM      1  N   UNL     1      32.843  -7.693 -23.033  0.00  0.00    -0.293 NA
ATOM      2  N   UNL     1      31.973 -10.021 -20.321  0.00  0.00    -0.266 NA
ATOM      3  N   UNL     1      32.523  -6.623 -20.864  0.00  0.00    -0.316 NA
ATOM      4  N   UNL     1      33.082  -5.379 -22.765  0.00  0.00    -0.238 N 
ATOM      5  N   UNL     1      31.948  -8.171 -19.079  0.00  0.00    -0.296 N 
ATOM      6  C   UNL     1      32.578  -8.914 -22.518  0.00  0.00    +0.288 C 
ATOM      7  C   UNL     1      32.283  -8.998 -21.172  0.00  0.00    +0.215 C 
ATOM      8  C   UNL     1      32.262  -7.860 -20.377  0.00  0.00    +0.196 C 
ATOM      9  C   UNL     1      32.799  -6.637 -22.186  0.00  0.00    +0.207 C 
ATOM     10  C   UNL     1      31.781  -9.475 -19.079  0.00  0.00    +0.164 C 
ATOM     11  H   UNL     1      31.901 -10.974 -20.557  0.00  0.00    +0.126 HD
ATOM     12  H   UNL     1      33.045  -4.631 -22.125  0.00  0.00    +0.166 HD
ATOM     13  H   UNL     1      31.867  -7.553 -18.316  0.00  0.00    +0.150 HD
ENDROOT
BRANCH   4  14
ATOM     14  C   UNL     1      33.408  -4.987 -24.075  0.00  0.00    +0.059 C 
ATOM     15  C   UNL     1      34.054  -4.206 -26.679  0.00  0.00    +0.122 C 
ATOM     16  C   UNL     1      34.685  -5.231 -24.584  0.00  0.00    +0.017 C 
ATOM     17  C   UNL     1      32.454  -4.350 -24.874  0.00  0.00    +0.017 C 
ATOM     18  C   UNL     1      35.008  -4.841 -25.884  0.00  0.00    +0.021 C 
ATOM     19  C   UNL     1      32.778  -3.961 -26.174  0.00  0.00    +0.021 C 
BRANCH  15  20
ATOM     20  S   UNL     1      34.458  -3.717 -28.306  0.00  0.00    +0.057 S 
ATOM     21  O   UNL     1      33.661  -4.506 -29.235  0.00  0.00    -0.153 OA
ATOM     22  O   UNL     1      34.420  -2.263 -28.374  0.00  0.00    -0.153 OA
BRANCH  20  23
ATOM     23  N   UNL     1      36.086  -4.227 -28.404  0.00  0.00    -0.203 NA
ATOM     24  H   UNL     1      36.604  -3.866 -27.603  0.00  0.00    +0.144 HD
ATOM     25  H   UNL     1      36.502  -3.872 -29.265  0.00  0.00    +0.144 HD
ENDBRANCH  20  23
ENDBRANCH  15  20
ENDBRANCH   4  14
BRANCH   6  26
ATOM     26  O   UNL     1      32.612 -10.005 -23.350  0.00  0.00    -0.453 OA
BRANCH  26  27
ATOM     27  C   UNL     1      33.756 -10.154 -24.170  0.00  0.00    +0.208 C 
BRANCH  27  28
ATOM     28  C   UNL     1      34.130 -11.634 -24.216  0.00  0.00    +0.044 C 
ATOM     29  C   UNL     1      33.896 -12.295 -22.851  0.00  0.00    +0.004 C 
ATOM     30  C   UNL     1      33.343 -12.358 -25.316  0.00  0.00    +0.004 C 
ATOM     31  C   UNL     1      34.213 -13.788 -22.885  0.00  0.00    +0.000 C 
ATOM     32  C   UNL     1      33.661 -13.852 -25.346  0.00  0.00    +0.000 C 
ATOM     33  C   UNL     1      33.435 -14.503 -23.985  0.00  0.00    +0.000 C 
ENDBRANCH  27  28
ENDBRANCH  26  27
ENDBRANCH   6  26
TORSDOF 6
ENDMDL
