MODEL 1
REMARK VINA RESULT:     -13.4      0.000      0.000
REMARK  Name = 16741238
REMARK  6 active torsions:
REMARK  status: ('A' for Active; 'I' for Inactive)
REMARK    1  A    between atoms: N_1  and  C_22
REMARK    2  A    between atoms: C_10  and  C_15
REMARK    3  A    between atoms: C_15  and  C_16
REMARK    4  A    between atoms: C_22  and  C_23
REMARK    5  A    between atoms: C_23  and  C_26
REMARK    6  A    between atoms: N_25  and  C_28
REMARK                            x       y       z     vdW  Elec       q    Type
REMARK                         _______ _______ _______ _____ _____    ______ ____
ROOT
ATOM      1  N   UNL     1      34.219 -13.636 -23.596  0.00  0.00    -0.249 N 
ATOM      2  N   UNL     1      33.783 -15.558 -24.975  0.00  0.00    -0.373 NA
ATOM      3  N   UNL     1      33.228 -13.441 -25.725  0.00  0.00    -0.321 N 
ATOM      4  C   UNL     1      34.801 -14.410 -22.498  0.00  0.00    +0.071 C 
ATOM      5  C   UNL     1      34.819 -15.888 -22.774  0.00  0.00    +0.045 C 
ATOM      6  C   UNL     1      33.753 -14.266 -24.755  0.00  0.00    +0.239 C 
ATOM      7  C   UNL     1      34.317 -16.393 -23.981  0.00  0.00    +0.136 C 
ATOM      8  C   UNL     1      35.342 -16.767 -21.815  0.00  0.00    +0.007 C 
ATOM      9  C   UNL     1      34.348 -17.774 -24.211  0.00  0.00    +0.032 C 
ATOM     10  C   UNL     1      35.367 -18.140 -22.054  0.00  0.00    +0.039 C 
ATOM     11  C   UNL     1      34.870 -18.644 -23.253  0.00  0.00    +0.006 C 
ATOM     12  H   UNL     1      33.197 -12.468 -25.581  0.00  0.00    +0.146 HD
ATOM     13  H   UNL     1      32.884 -13.826 -26.564  0.00  0.00    +0.146 HD
ENDROOT
BRANCH  10  15
ATOM     14  O   UNL     1      37.123 -19.032 -20.793  0.00  0.00    -0.287 OA
ATOM     15  C   UNL     1      35.911 -19.044 -21.054  0.00  0.00    +0.196 C 
BRANCH  15  16
ATOM     16  C   UNL     1      35.057 -20.014 -20.303  0.00  0.00    +0.039 C 
ATOM     17  C   UNL     1      33.668 -19.941 -20.399  0.00  0.00    +0.003 C 
ATOM     18  C   UNL     1      35.651 -20.994 -19.507  0.00  0.00    +0.003 C 
ATOM     19  C   UNL     1      32.872 -20.847 -19.699  0.00  0.00    +0.000 C 
ATOM     20  C   UNL     1      34.854 -21.900 -18.806  0.00  0.00    +0.000 C 
ATOM     21  C   UNL     1      33.465 -21.826 -18.902  0.00  0.00    +0.000 C 
ENDBRANCH  15  16
ENDBRANCH  10  15
BRANCH   1  22
ATOM     22  C   UNL     1      34.172 -12.194 -23.380  0.00  0.00    +0.109 C 
BRANCH  22  23
ATOM     23  C   UNL     1      32.882 -11.802 -22.665  0.00  0.00    +0.107 C 
BRANCH  23  26
ATOM     24  O   UNL     1      33.247  -9.520 -23.315  0.00  0.00    -0.275 OA
ATOM     25  N   UNL     1      31.846  -9.870 -21.501  0.00  0.00    -0.279 N 
ATOM     26  C   UNL     1      32.686 -10.295 -22.536  0.00  0.00    +0.227 C 
ATOM     27  C   UNL     1      31.192 -10.805 -20.588  0.00  0.00    +0.115 C 
BRANCH  25  28
ATOM     28  C   UNL     1      31.564  -8.475 -21.257  0.00  0.00    +0.075 C 
ATOM     29  C   UNL     1      31.337  -7.736 -22.577  0.00  0.00    +0.020 C 
ATOM     30  C   UNL     1      32.688  -7.829 -20.442  0.00  0.00    +0.020 C 
ATOM     31  C   UNL     1      31.088  -6.246 -22.353  0.00  0.00    +0.002 C 
ATOM     32  C   UNL     1      32.436  -6.340 -20.219  0.00  0.00    +0.002 C 
ATOM     33  C   UNL     1      32.207  -5.606 -21.537  0.00  0.00    +0.000 C 
ENDBRANCH  25  28
ENDBRANCH  23  26
ENDBRANCH  22  23
ENDBRANCH   1  22
TORSDOF 6
ENDMDL
MODEL 2
REMARK VINA RESULT:     -13.1      1.052      1.558
REMARK  Name = 16741238
REMARK  6 active torsions:
REMARK  status: ('A' for Active; 'I' for Inactive)
REMARK    1  A    between atoms: N_1  and  C_22
REMARK    2  A    between atoms: C_10  and  C_15
REMARK    3  A    between atoms: C_15  and  C_16
REMARK    4  A    between atoms: C_22  and  C_23
REMARK    5  A    between atoms: C_23  and  C_26
REMARK    6  A    between atoms: N_25  and  C_28
REMARK                            x       y       z     vdW  Elec       q    Type
REMARK                         _______ _______ _______ _____ _____    ______ ____
ROOT
ATOM      1  N   UNL     1      34.035 -13.752 -23.252  0.00  0.00    -0.249 N 
ATOM      2  N   UNL     1      33.841 -15.610 -24.766  0.00  0.00    -0.373 NA
ATOM      3  N   UNL     1      33.120 -13.509 -25.410  0.00  0.00    -0.321 N 
ATOM      4  C   UNL     1      34.642 -14.539 -22.177  0.00  0.00    +0.071 C 
ATOM      5  C   UNL     1      34.810 -15.988 -22.542  0.00  0.00    +0.045 C 
ATOM      6  C   UNL     1      33.680 -14.344 -24.468  0.00  0.00    +0.239 C 
ATOM      7  C   UNL     1      34.410 -16.456 -23.801  0.00  0.00    +0.136 C 
ATOM      8  C   UNL     1      35.374 -16.876 -21.615  0.00  0.00    +0.007 C 
ATOM      9  C   UNL     1      34.581 -17.811 -24.114  0.00  0.00    +0.032 C 
ATOM     10  C   UNL     1      35.539 -18.223 -21.937  0.00  0.00    +0.039 C 
ATOM     11  C   UNL     1      35.142 -18.690 -23.187  0.00  0.00    +0.006 C 
ATOM     12  H   UNL     1      32.991 -12.554 -25.207  0.00  0.00    +0.146 HD
ATOM     13  H   UNL     1      32.849 -13.868 -26.286  0.00  0.00    +0.146 HD
ENDROOT
BRANCH  10  15
ATOM     14  O   UNL     1      37.347 -19.135 -20.766  0.00  0.00    -0.287 OA
ATOM     15  C   UNL     1      36.123 -19.137 -20.970  0.00  0.00    +0.196 C 
BRANCH  15  16
ATOM     16  C   UNL     1      35.300 -20.105 -20.184  0.00  0.00    +0.039 C 
ATOM     17  C   UNL     1      35.921 -21.029 -19.344  0.00  0.00    +0.003 C 
ATOM     18  C   UNL     1      33.909 -20.085 -20.290  0.00  0.00    +0.003 C 
ATOM     19  C   UNL     1      35.153 -21.932 -18.610  0.00  0.00    +0.000 C 
ATOM     20  C   UNL     1      33.140 -20.988 -19.557  0.00  0.00    +0.000 C 
ATOM     21  C   UNL     1      33.763 -21.912 -18.717  0.00  0.00    +0.000 C 
ENDBRANCH  15  16
ENDBRANCH  10  15
BRANCH   1  22
ATOM     22  C   UNL     1      33.843 -12.337 -22.951  0.00  0.00    +0.109 C 
BRANCH  22  23
ATOM     23  C   UNL     1      32.492 -12.113 -22.277  0.00  0.00    +0.107 C 
BRANCH  23  26
ATOM     24  O   UNL     1      31.737 -10.453 -20.714  0.00  0.00    -0.275 OA
ATOM     25  N   UNL     1      32.714  -9.671 -22.666  0.00  0.00    -0.279 N 
ATOM     26  C   UNL     1      32.273 -10.680 -21.803  0.00  0.00    +0.227 C 
ATOM     27  C   UNL     1      33.346  -9.961 -23.952  0.00  0.00    +0.115 C 
BRANCH  25  28
ATOM     28  C   UNL     1      32.577  -8.269 -22.353  0.00  0.00    +0.075 C 
ATOM     29  C   UNL     1      31.235  -7.736 -22.857  0.00  0.00    +0.020 C 
ATOM     30  C   UNL     1      33.748  -7.468 -22.930  0.00  0.00    +0.020 C 
ATOM     31  C   UNL     1      31.084  -6.241 -22.586  0.00  0.00    +0.002 C 
ATOM     32  C   UNL     1      33.595  -5.974 -22.657  0.00  0.00    +0.002 C 
ATOM     33  C   UNL     1      32.254  -5.445 -23.158  0.00  0.00    +0.000 C 
ENDBRANCH  25  28
ENDBRANCH  23  26
ENDBRANCH  22  23
ENDBRANCH   1  22
TORSDOF 6
ENDMDL
MODEL 3
REMARK VINA RESULT:     -12.0      6.899     13.904
REMARK  Name = 16741238
REMARK  6 active torsions:
REMARK  status: ('A' for Active; 'I' for Inactive)
REMARK    1  A    between atoms: N_1  and  C_22
REMARK    2  A    between atoms: C_10  and  C_15
REMARK    3  A    between atoms: C_15  and  C_16
REMARK    4  A    between atoms: C_22  and  C_23
REMARK    5  A    between atoms: C_23  and  C_26
REMARK    6  A    between atoms: N_25  and  C_28
REMARK                            x       y       z     vdW  Elec       q    Type
REMARK                         _______ _______ _______ _____ _____    ______ ____
ROOT
ATOM      1  N   UNL     1      33.747 -23.287 -16.229  0.00  0.00    -0.249 N 
ATOM      2  N   UNL     1      31.986 -22.342 -17.567  0.00  0.00    -0.373 NA
ATOM      3  N   UNL     1      31.473 -23.720 -15.782  0.00  0.00    -0.321 N 
ATOM      4  C   UNL     1      34.825 -22.658 -16.994  0.00  0.00    +0.071 C 
ATOM      5  C   UNL     1      34.317 -21.819 -18.133  0.00  0.00    +0.045 C 
ATOM      6  C   UNL     1      32.406 -23.083 -16.571  0.00  0.00    +0.239 C 
ATOM      7  C   UNL     1      32.941 -21.697 -18.369  0.00  0.00    +0.136 C 
ATOM      8  C   UNL     1      35.229 -21.152 -18.964  0.00  0.00    +0.007 C 
ATOM      9  C   UNL     1      32.497 -20.907 -19.437  0.00  0.00    +0.032 C 
ATOM     10  C   UNL     1      34.775 -20.369 -20.025  0.00  0.00    +0.039 C 
ATOM     11  C   UNL     1      33.408 -20.246 -20.261  0.00  0.00    +0.006 C 
ATOM     12  H   UNL     1      31.767 -24.280 -15.027  0.00  0.00    +0.146 HD
ATOM     13  H   UNL     1      30.513 -23.614 -15.972  0.00  0.00    +0.146 HD
ENDROOT
BRANCH  10  15
ATOM     14  O   UNL     1      36.946 -19.807 -20.691  0.00  0.00    -0.287 OA
ATOM     15  C   UNL     1      35.727 -19.682 -20.883  0.00  0.00    +0.196 C 
BRANCH  15  16
ATOM     16  C   UNL     1      35.298 -18.810 -22.018  0.00  0.00    +0.039 C 
ATOM     17  C   UNL     1      35.464 -17.428 -21.937  0.00  0.00    +0.003 C 
ATOM     18  C   UNL     1      34.731 -19.379 -23.159  0.00  0.00    +0.003 C 
ATOM     19  C   UNL     1      35.065 -16.614 -22.997  0.00  0.00    +0.000 C 
ATOM     20  C   UNL     1      34.332 -18.565 -24.219  0.00  0.00    +0.000 C 
ATOM     21  C   UNL     1      34.498 -17.183 -24.137  0.00  0.00    +0.000 C 
ENDBRANCH  15  16
ENDBRANCH  10  15
BRANCH   1  22
ATOM     22  C   UNL     1      34.183 -24.119 -15.112  0.00  0.00    +0.109 C 
BRANCH  22  23
ATOM     23  C   UNL     1      35.673 -23.920 -14.849  0.00  0.00    +0.107 C 
BRANCH  23  26
ATOM     24  O   UNL     1      36.166 -26.220 -15.331  0.00  0.00    -0.275 OA
ATOM     25  N   UNL     1      37.449 -25.207 -13.687  0.00  0.00    -0.279 N 
ATOM     26  C   UNL     1      36.440 -25.224 -14.656  0.00  0.00    +0.227 C 
ATOM     27  C   UNL     1      37.758 -24.017 -12.897  0.00  0.00    +0.115 C 
BRANCH  25  28
ATOM     28  C   UNL     1      38.260 -26.365 -13.394  0.00  0.00    +0.075 C 
ATOM     29  C   UNL     1      39.216 -26.656 -14.553  0.00  0.00    +0.020 C 
ATOM     30  C   UNL     1      37.381 -27.578 -13.079  0.00  0.00    +0.020 C 
ATOM     31  C   UNL     1      40.052 -27.907 -14.294  0.00  0.00    +0.002 C 
ATOM     32  C   UNL     1      38.219 -28.828 -12.820  0.00  0.00    +0.002 C 
ATOM     33  C   UNL     1      39.173 -29.114 -13.975  0.00  0.00    +0.000 C 
ENDBRANCH  25  28
ENDBRANCH  23  26
ENDBRANCH  22  23
ENDBRANCH   1  22
TORSDOF 6
ENDMDL
MODEL 4
REMARK VINA RESULT:     -11.9      6.512     11.250
REMARK  Name = 16741238
REMARK  6 active torsions:
REMARK  status: ('A' for Active; 'I' for Inactive)
REMARK    1  A    between atoms: N_1  and  C_22
REMARK    2  A    between atoms: C_10  and  C_15
REMARK    3  A    between atoms: C_15  and  C_16
REMARK    4  A    between atoms: C_22  and  C_23
REMARK    5  A    between atoms: C_23  and  C_26
REMARK    6  A    between atoms: N_25  and  C_28
REMARK                            x       y       z     vdW  Elec       q    Type
REMARK                         _______ _______ _______ _____ _____    ______ ____
ROOT
ATOM      1  N   UNL     1      33.089 -22.933 -16.598  0.00  0.00    -0.249 N 
ATOM      2  N   UNL     1      32.423 -23.505 -14.359  0.00  0.00    -0.373 NA
ATOM      3  N   UNL     1      30.829 -22.918 -15.929  0.00  0.00    -0.321 N 
ATOM      4  C   UNL     1      34.517 -23.136 -16.351  0.00  0.00    +0.071 C 
ATOM      5  C   UNL     1      34.809 -23.556 -14.938  0.00  0.00    +0.045 C 
ATOM      6  C   UNL     1      32.146 -23.134 -15.585  0.00  0.00    +0.239 C 
ATOM      7  C   UNL     1      33.767 -23.721 -14.015  0.00  0.00    +0.136 C 
ATOM      8  C   UNL     1      36.134 -23.785 -14.541  0.00  0.00    +0.007 C 
ATOM      9  C   UNL     1      34.069 -24.115 -12.705  0.00  0.00    +0.032 C 
ATOM     10  C   UNL     1      36.423 -24.176 -13.234  0.00  0.00    +0.039 C 
ATOM     11  C   UNL     1      35.389 -24.342 -12.316  0.00  0.00    +0.006 C 
ATOM     12  H   UNL     1      30.598 -22.640 -16.844  0.00  0.00    +0.146 HD
ATOM     13  H   UNL     1      30.119 -23.043 -15.258  0.00  0.00    +0.146 HD
ENDROOT
BRANCH  10  15
ATOM     14  O   UNL     1      38.357 -23.644 -12.031  0.00  0.00    -0.287 OA
ATOM     15  C   UNL     1      37.800 -24.411 -12.831  0.00  0.00    +0.196 C 
BRANCH  15  16
ATOM     16  C   UNL     1      38.599 -25.564 -13.345  0.00  0.00    +0.039 C 
ATOM     17  C   UNL     1      38.063 -26.851 -13.320  0.00  0.00    +0.003 C 
ATOM     18  C   UNL     1      39.882 -25.353 -13.853  0.00  0.00    +0.003 C 
ATOM     19  C   UNL     1      38.809 -27.927 -13.801  0.00  0.00    +0.000 C 
ATOM     20  C   UNL     1      40.627 -26.428 -14.334  0.00  0.00    +0.000 C 
ATOM     21  C   UNL     1      40.091 -27.716 -14.307  0.00  0.00    +0.000 C 
ENDBRANCH  15  16
ENDBRANCH  10  15
BRANCH   1  22
ATOM     22  C   UNL     1      32.747 -22.519 -17.956  0.00  0.00    +0.109 C 
BRANCH  22  23
ATOM     23  C   UNL     1      33.953 -21.881 -18.638  0.00  0.00    +0.107 C 
BRANCH  23  26
ATOM     24  O   UNL     1      32.405 -20.506 -19.854  0.00  0.00    -0.275 OA
ATOM     25  N   UNL     1      34.658 -20.085 -20.201  0.00  0.00    -0.279 N 
ATOM     26  C   UNL     1      33.587 -20.768 -19.615  0.00  0.00    +0.227 C 
ATOM     27  C   UNL     1      36.051 -20.411 -19.904  0.00  0.00    +0.115 C 
BRANCH  25  28
ATOM     28  C   UNL     1      34.467 -19.007 -21.142  0.00  0.00    +0.075 C 
ATOM     29  C   UNL     1      34.478 -19.541 -22.576  0.00  0.00    +0.020 C 
ATOM     30  C   UNL     1      35.528 -17.921 -20.944  0.00  0.00    +0.020 C 
ATOM     31  C   UNL     1      34.331 -18.415 -23.597  0.00  0.00    +0.002 C 
ATOM     32  C   UNL     1      35.378 -16.796 -21.966  0.00  0.00    +0.002 C 
ATOM     33  C   UNL     1      35.386 -17.331 -23.395  0.00  0.00    +0.000 C 
ENDBRANCH  25  28
ENDBRANCH  23  26
ENDBRANCH  22  23
ENDBRANCH   1  22
TORSDOF 6
ENDMDL
MODEL 5
REMARK VINA RESULT:     -11.8      3.148      5.703
REMARK  Name = 16741238
REMARK  6 active torsions:
REMARK  status: ('A' for Active; 'I' for Inactive)
REMARK    1  A    between atoms: N_1  and  C_22
REMARK    2  A    between atoms: C_10  and  C_15
REMARK    3  A    between atoms: C_15  and  C_16
REMARK    4  A    between atoms: C_22  and  C_23
REMARK    5  A    between atoms: C_23  and  C_26
REMARK    6  A    between atoms: N_25  and  C_28
REMARK                            x       y       z     vdW  Elec       q    Type
REMARK                         _______ _______ _______ _____ _____    ______ ____
ROOT
ATOM      1  N   UNL     1      35.052 -18.723 -21.796  0.00  0.00    -0.249 N 
ATOM      2  N   UNL     1      36.802 -19.339 -20.266  0.00  0.00    -0.373 NA
ATOM      3  N   UNL     1      37.152 -17.654 -21.811  0.00  0.00    -0.321 N 
ATOM      4  C   UNL     1      34.094 -19.703 -21.280  0.00  0.00    +0.071 C 
ATOM      5  C   UNL     1      34.655 -20.526 -20.155  0.00  0.00    +0.045 C 
ATOM      6  C   UNL     1      36.335 -18.611 -21.252  0.00  0.00    +0.239 C 
ATOM      7  C   UNL     1      35.965 -20.314 -19.701  0.00  0.00    +0.136 C 
ATOM      8  C   UNL     1      33.862 -21.514 -19.554  0.00  0.00    +0.007 C 
ATOM      9  C   UNL     1      36.460 -21.096 -18.650  0.00  0.00    +0.032 C 
ATOM     10  C   UNL     1      34.366 -22.287 -18.509  0.00  0.00    +0.039 C 
ATOM     11  C   UNL     1      35.666 -22.077 -18.056  0.00  0.00    +0.006 C 
ATOM     12  H   UNL     1      36.821 -17.096 -22.552  0.00  0.00    +0.146 HD
ATOM     13  H   UNL     1      38.067 -17.528 -21.470  0.00  0.00    +0.146 HD
ENDROOT
BRANCH  10  15
ATOM     14  O   UNL     1      33.337 -24.387 -18.473  0.00  0.00    -0.287 OA
ATOM     15  C   UNL     1      33.536 -23.309 -17.893  0.00  0.00    +0.196 C 
BRANCH  15  16
ATOM     16  C   UNL     1      32.895 -23.122 -16.556  0.00  0.00    +0.039 C 
ATOM     17  C   UNL     1      33.654 -23.249 -15.394  0.00  0.00    +0.003 C 
ATOM     18  C   UNL     1      31.535 -22.818 -16.471  0.00  0.00    +0.003 C 
ATOM     19  C   UNL     1      33.055 -23.073 -14.146  0.00  0.00    +0.000 C 
ATOM     20  C   UNL     1      30.937 -22.642 -15.224  0.00  0.00    +0.000 C 
ATOM     21  C   UNL     1      31.697 -22.770 -14.061  0.00  0.00    +0.000 C 
ENDBRANCH  15  16
ENDBRANCH  10  15
BRANCH   1  22
ATOM     22  C   UNL     1      34.561 -17.897 -22.895  0.00  0.00    +0.109 C 
BRANCH  22  23
ATOM     23  C   UNL     1      35.213 -16.518 -22.858  0.00  0.00    +0.107 C 
BRANCH  23  26
ATOM     24  O   UNL     1      33.821 -15.347 -24.426  0.00  0.00    -0.275 OA
ATOM     25  N   UNL     1      33.991 -14.429 -22.303  0.00  0.00    -0.279 N 
ATOM     26  C   UNL     1      34.280 -15.387 -23.281  0.00  0.00    +0.227 C 
ATOM     27  C   UNL     1      34.546 -14.495 -20.953  0.00  0.00    +0.115 C 
BRANCH  25  28
ATOM     28  C   UNL     1      33.123 -13.304 -22.555  0.00  0.00    +0.075 C 
ATOM     29  C   UNL     1      33.901 -12.166 -23.220  0.00  0.00    +0.020 C 
ATOM     30  C   UNL     1      32.451 -12.837 -21.261  0.00  0.00    +0.020 C 
ATOM     31  C   UNL     1      33.020 -10.941 -23.451  0.00  0.00    +0.002 C 
ATOM     32  C   UNL     1      31.570 -11.612 -21.495  0.00  0.00    +0.002 C 
ATOM     33  C   UNL     1      32.347 -10.480 -22.161  0.00  0.00    +0.000 C 
ENDBRANCH  25  28
ENDBRANCH  23  26
ENDBRANCH  22  23
ENDBRANCH   1  22
TORSDOF 6
ENDMDL
MODEL 6
REMARK VINA RESULT:     -11.7      6.400     10.943
REMARK  Name = 16741238
REMARK  6 active torsions:
REMARK  status: ('A' for Active; 'I' for Inactive)
REMARK    1  A    between atoms: N_1  and  C_22
REMARK    2  A    between atoms: C_10  and  C_15
REMARK    3  A    between atoms: C_15  and  C_16
REMARK    4  A    between atoms: C_22  and  C_23
REMARK    5  A    between atoms: C_23  and  C_26
REMARK    6  A    between atoms: N_25  and  C_28
REMARK                            x       y       z     vdW  Elec       q    Type
REMARK                         _______ _______ _______ _____ _____    ______ ____
ROOT
ATOM      1  N   UNL     1      36.247 -22.409 -16.487  0.00  0.00    -0.249 N 
ATOM      2  N   UNL     1      36.661 -23.528 -14.399  0.00  0.00    -0.373 NA
ATOM      3  N   UNL     1      38.430 -22.912 -15.755  0.00  0.00    -0.321 N 
ATOM      4  C   UNL     1      34.791 -22.408 -16.332  0.00  0.00    +0.071 C 
ATOM      5  C   UNL     1      34.342 -23.059 -15.055  0.00  0.00    +0.045 C 
ATOM      6  C   UNL     1      37.076 -22.968 -15.509  0.00  0.00    +0.239 C 
ATOM      7  C   UNL     1      35.279 -23.584 -14.155  0.00  0.00    +0.136 C 
ATOM      8  C   UNL     1      32.973 -23.142 -14.761  0.00  0.00    +0.007 C 
ATOM      9  C   UNL     1      34.831 -24.185 -12.971  0.00  0.00    +0.032 C 
ATOM     10  C   UNL     1      32.538 -23.742 -13.580  0.00  0.00    +0.039 C 
ATOM     11  C   UNL     1      33.468 -24.264 -12.685  0.00  0.00    +0.006 C 
ATOM     12  H   UNL     1      38.763 -22.495 -16.582  0.00  0.00    +0.146 HD
ATOM     13  H   UNL     1      39.064 -23.289 -15.103  0.00  0.00    +0.146 HD
ENDROOT
BRANCH  10  15
ATOM     14  O   UNL     1      30.729 -23.983 -12.117  0.00  0.00    -0.287 OA
ATOM     15  C   UNL     1      31.117 -23.824 -13.285  0.00  0.00    +0.196 C 
BRANCH  15  16
ATOM     16  C   UNL     1      30.071 -23.721 -14.346  0.00  0.00    +0.039 C 
ATOM     17  C   UNL     1      29.663 -24.862 -15.037  0.00  0.00    +0.003 C 
ATOM     18  C   UNL     1      29.501 -22.484 -14.647  0.00  0.00    +0.003 C 
ATOM     19  C   UNL     1      28.686 -24.766 -16.027  0.00  0.00    +0.000 C 
ATOM     20  C   UNL     1      28.524 -22.388 -15.637  0.00  0.00    +0.000 C 
ATOM     21  C   UNL     1      28.117 -23.529 -16.328  0.00  0.00    +0.000 C 
ENDBRANCH  15  16
ENDBRANCH  10  15
BRANCH   1  22
ATOM     22  C   UNL     1      36.740 -21.792 -17.714  0.00  0.00    +0.109 C 
BRANCH  22  23
ATOM     23  C   UNL     1      35.576 -21.397 -18.618  0.00  0.00    +0.107 C 
BRANCH  23  26
ATOM     24  O   UNL     1      37.177 -20.292 -20.026  0.00  0.00    -0.275 OA
ATOM     25  N   UNL     1      34.943 -20.011 -20.578  0.00  0.00    -0.279 N 
ATOM     26  C   UNL     1      35.986 -20.521 -19.797  0.00  0.00    +0.227 C 
ATOM     27  C   UNL     1      33.538 -20.293 -20.289  0.00  0.00    +0.115 C 
BRANCH  25  28
ATOM     28  C   UNL     1      35.175 -19.169 -21.726  0.00  0.00    +0.075 C 
ATOM     29  C   UNL     1      35.284 -17.702 -21.302  0.00  0.00    +0.020 C 
ATOM     30  C   UNL     1      34.076 -19.366 -22.774  0.00  0.00    +0.020 C 
ATOM     31  C   UNL     1      35.478 -16.781 -22.504  0.00  0.00    +0.002 C 
ATOM     32  C   UNL     1      34.273 -18.443 -23.975  0.00  0.00    +0.002 C 
ATOM     33  C   UNL     1      34.384 -16.982 -23.549  0.00  0.00    +0.000 C 
ENDBRANCH  25  28
ENDBRANCH  23  26
ENDBRANCH  22  23
ENDBRANCH   1  22
TORSDOF 6
ENDMDL
MODEL 7
REMARK VINA RESULT:     -11.5      2.654     11.111
REMARK  Name = 16741238
REMARK  6 active torsions:
REMARK  status: ('A' for Active; 'I' for Inactive)
REMARK    1  A    between atoms: N_1  and  C_22
REMARK    2  A    between atoms: C_10  and  C_15
REMARK    3  A    between atoms: C_15  and  C_16
REMARK    4  A    between atoms: C_22  and  C_23
REMARK    5  A    between atoms: C_23  and  C_26
REMARK    6  A    between atoms: N_25  and  C_28
REMARK                            x       y       z     vdW  Elec       q    Type
REMARK                         _______ _______ _______ _____ _____    ______ ____
ROOT
ATOM      1  N   UNL     1      32.199 -11.715 -21.862  0.00  0.00    -0.249 N 
ATOM      2  N   UNL     1      31.988 -10.656 -19.713  0.00  0.00    -0.373 NA
ATOM      3  N   UNL     1      31.941 -12.963 -19.879  0.00  0.00    -0.321 N 
ATOM      4  C   UNL     1      32.322 -10.457 -22.601  0.00  0.00    +0.071 C 
ATOM      5  C   UNL     1      32.251  -9.250 -21.708  0.00  0.00    +0.045 C 
ATOM      6  C   UNL     1      32.043 -11.723 -20.472  0.00  0.00    +0.239 C 
ATOM      7  C   UNL     1      32.090  -9.396 -20.324  0.00  0.00    +0.136 C 
ATOM      8  C   UNL     1      32.348  -7.967 -22.267  0.00  0.00    +0.007 C 
ATOM      9  C   UNL     1      32.029  -8.253 -19.517  0.00  0.00    +0.032 C 
ATOM     10  C   UNL     1      32.285  -6.836 -21.454  0.00  0.00    +0.039 C 
ATOM     11  C   UNL     1      32.126  -6.979 -20.078  0.00  0.00    +0.006 C 
ATOM     12  H   UNL     1      31.981 -13.777 -20.430  0.00  0.00    +0.146 HD
ATOM     13  H   UNL     1      31.830 -13.033 -18.903  0.00  0.00    +0.146 HD
ENDROOT
BRANCH  10  15
ATOM     14  O   UNL     1      32.048  -4.510 -21.390  0.00  0.00    -0.287 OA
ATOM     15  C   UNL     1      32.386  -5.510 -22.041  0.00  0.00    +0.196 C 
BRANCH  15  16
ATOM     16  C   UNL     1      32.892  -5.285 -23.429  0.00  0.00    +0.039 C 
ATOM     17  C   UNL     1      32.034  -4.796 -24.414  0.00  0.00    +0.003 C 
ATOM     18  C   UNL     1      34.223  -5.564 -23.740  0.00  0.00    +0.003 C 
ATOM     19  C   UNL     1      32.507  -4.586 -25.709  0.00  0.00    +0.000 C 
ATOM     20  C   UNL     1      34.696  -5.353 -25.035  0.00  0.00    +0.000 C 
ATOM     21  C   UNL     1      33.837  -4.864 -26.020  0.00  0.00    +0.000 C 
ENDBRANCH  15  16
ENDBRANCH  10  15
BRANCH   1  22
ATOM     22  C   UNL     1      32.257 -12.923 -22.680  0.00  0.00    +0.109 C 
BRANCH  22  23
ATOM     23  C   UNL     1      33.500 -12.909 -23.564  0.00  0.00    +0.107 C 
BRANCH  23  26
ATOM     24  O   UNL     1      33.772 -14.594 -25.254  0.00  0.00    -0.275 OA
ATOM     25  N   UNL     1      34.443 -15.159 -23.108  0.00  0.00    -0.279 N 
ATOM     26  C   UNL     1      33.911 -14.290 -24.066  0.00  0.00    +0.227 C 
ATOM     27  C   UNL     1      34.599 -14.780 -21.705  0.00  0.00    +0.115 C 
BRANCH  25  28
ATOM     28  C   UNL     1      34.878 -16.497 -23.433  0.00  0.00    +0.075 C 
ATOM     29  C   UNL     1      33.728 -17.300 -24.045  0.00  0.00    +0.020 C 
ATOM     30  C   UNL     1      35.450 -17.196 -22.197  0.00  0.00    +0.020 C 
ATOM     31  C   UNL     1      34.144 -18.737 -24.351  0.00  0.00    +0.002 C 
ATOM     32  C   UNL     1      35.866 -18.633 -22.506  0.00  0.00    +0.002 C 
ATOM     33  C   UNL     1      34.718 -19.430 -23.118  0.00  0.00    +0.000 C 
ENDBRANCH  25  28
ENDBRANCH  23  26
ENDBRANCH  22  23
ENDBRANCH   1  22
TORSDOF 6
ENDMDL
MODEL 8
REMARK VINA RESULT:     -11.4      4.865     11.483
REMARK  Name = 16741238
REMARK  6 active torsions:
REMARK  status: ('A' for Active; 'I' for Inactive)
REMARK    1  A    between atoms: N_1  and  C_22
REMARK    2  A    between atoms: C_10  and  C_15
REMARK    3  A    between atoms: C_15  and  C_16
REMARK    4  A    between atoms: C_22  and  C_23
REMARK    5  A    between atoms: C_23  and  C_26
REMARK    6  A    between atoms: N_25  and  C_28
REMARK                            x       y       z     vdW  Elec       q    Type
REMARK                         _______ _______ _______ _____ _____    ______ ____
ROOT
ATOM      1  N   UNL     1      34.921 -21.474 -19.605  0.00  0.00    -0.249 N 
ATOM      2  N   UNL     1      36.798 -19.970 -19.603  0.00  0.00    -0.373 NA
ATOM      3  N   UNL     1      36.722 -21.733 -18.107  0.00  0.00    -0.321 N 
ATOM      4  C   UNL     1      34.227 -20.793 -20.699  0.00  0.00    +0.071 C 
ATOM      5  C   UNL     1      34.980 -19.597 -21.211  0.00  0.00    +0.045 C 
ATOM      6  C   UNL     1      36.156 -21.014 -19.137  0.00  0.00    +0.239 C 
ATOM      7  C   UNL     1      36.215 -19.241 -20.651  0.00  0.00    +0.136 C 
ATOM      8  C   UNL     1      34.443 -18.834 -22.257  0.00  0.00    +0.007 C 
ATOM      9  C   UNL     1      36.895 -18.122 -21.149  0.00  0.00    +0.032 C 
ATOM     10  C   UNL     1      35.129 -17.722 -22.745  0.00  0.00    +0.039 C 
ATOM     11  C   UNL     1      36.356 -17.366 -22.190  0.00  0.00    +0.006 C 
ATOM     12  H   UNL     1      36.258 -22.521 -17.744  0.00  0.00    +0.146 HD
ATOM     13  H   UNL     1      37.592 -21.458 -17.735  0.00  0.00    +0.146 HD
ENDROOT
BRANCH  10  15
ATOM     14  O   UNL     1      34.318 -17.465 -24.923  0.00  0.00    -0.287 OA
ATOM     15  C   UNL     1      34.564 -16.936 -23.829  0.00  0.00    +0.196 C 
BRANCH  15  16
ATOM     16  C   UNL     1      34.256 -15.481 -23.687  0.00  0.00    +0.039 C 
ATOM     17  C   UNL     1      34.501 -14.830 -22.478  0.00  0.00    +0.003 C 
ATOM     18  C   UNL     1      33.723 -14.772 -24.764  0.00  0.00    +0.003 C 
ATOM     19  C   UNL     1      34.214 -13.472 -22.346  0.00  0.00    +0.000 C 
ATOM     20  C   UNL     1      33.436 -13.413 -24.632  0.00  0.00    +0.000 C 
ATOM     21  C   UNL     1      33.681 -12.764 -23.422  0.00  0.00    +0.000 C 
ENDBRANCH  15  16
ENDBRANCH  10  15
BRANCH   1  22
ATOM     22  C   UNL     1      34.232 -22.642 -19.066  0.00  0.00    +0.109 C 
BRANCH  22  23
ATOM     23  C   UNL     1      33.130 -22.213 -18.102  0.00  0.00    +0.107 C 
BRANCH  23  26
ATOM     24  O   UNL     1      34.164 -23.502 -16.360  0.00  0.00    -0.275 OA
ATOM     25  N   UNL     1      31.897 -23.075 -16.127  0.00  0.00    -0.279 N 
ATOM     26  C   UNL     1      33.126 -22.990 -16.789  0.00  0.00    +0.227 C 
ATOM     27  C   UNL     1      30.679 -22.462 -16.653  0.00  0.00    +0.115 C 
BRANCH  25  28
ATOM     28  C   UNL     1      31.739 -23.775 -14.875  0.00  0.00    +0.075 C 
ATOM     29  C   UNL     1      30.392 -24.501 -14.832  0.00  0.00    +0.020 C 
ATOM     30  C   UNL     1      31.892 -22.813 -13.693  0.00  0.00    +0.020 C 
ATOM     31  C   UNL     1      30.174 -25.207 -13.497  0.00  0.00    +0.002 C 
ATOM     32  C   UNL     1      31.674 -23.523 -12.359  0.00  0.00    +0.002 C 
ATOM     33  C   UNL     1      30.331 -24.247 -12.320  0.00  0.00    +0.000 C 
ENDBRANCH  25  28
ENDBRANCH  23  26
ENDBRANCH  22  23
ENDBRANCH   1  22
TORSDOF 6
ENDMDL
MODEL 9
REMARK VINA RESULT:     -11.3      6.401     11.059
REMARK  Name = 16741238
REMARK  6 active torsions:
REMARK  status: ('A' for Active; 'I' for Inactive)
REMARK    1  A    between atoms: N_1  and  C_22
REMARK    2  A    between atoms: C_10  and  C_15
REMARK    3  A    between atoms: C_15  and  C_16
REMARK    4  A    between atoms: C_22  and  C_23
REMARK    5  A    between atoms: C_23  and  C_26
REMARK    6  A    between atoms: N_25  and  C_28
REMARK                            x       y       z     vdW  Elec       q    Type
REMARK                         _______ _______ _______ _____ _____    ______ ____
ROOT
ATOM      1  N   UNL     1      34.938 -22.589 -16.437  0.00  0.00    -0.249 N 
ATOM      2  N   UNL     1      34.807 -23.269 -14.134  0.00  0.00    -0.373 NA
ATOM      3  N   UNL     1      36.812 -22.518 -15.010  0.00  0.00    -0.321 N 
ATOM      4  C   UNL     1      33.527 -22.861 -16.719  0.00  0.00    +0.071 C 
ATOM      5  C   UNL     1      32.786 -23.389 -15.523  0.00  0.00    +0.045 C 
ATOM      6  C   UNL     1      35.475 -22.812 -15.165  0.00  0.00    +0.239 C 
ATOM      7  C   UNL     1      33.445 -23.568 -14.299  0.00  0.00    +0.136 C 
ATOM      8  C   UNL     1      31.424 -23.703 -15.632  0.00  0.00    +0.007 C 
ATOM      9  C   UNL     1      32.729 -24.060 -13.200  0.00  0.00    +0.032 C 
ATOM     10  C   UNL     1      30.720 -24.193 -14.533  0.00  0.00    +0.039 C 
ATOM     11  C   UNL     1      31.374 -24.371 -13.316  0.00  0.00    +0.006 C 
ATOM     12  H   UNL     1      37.332 -22.173 -15.771  0.00  0.00    +0.146 HD
ATOM     13  H   UNL     1      37.247 -22.654 -14.137  0.00  0.00    +0.146 HD
ENDROOT
BRANCH  10  15
ATOM     14  O   UNL     1      28.862 -25.564 -14.163  0.00  0.00    -0.287 OA
ATOM     15  C   UNL     1      29.309 -24.517 -14.655  0.00  0.00    +0.196 C 
BRANCH  15  16
ATOM     16  C   UNL     1      28.342 -23.625 -15.364  0.00  0.00    +0.039 C 
ATOM     17  C   UNL     1      27.587 -22.701 -14.643  0.00  0.00    +0.003 C 
ATOM     18  C   UNL     1      28.194 -23.717 -16.749  0.00  0.00    +0.003 C 
ATOM     19  C   UNL     1      26.685 -21.868 -15.305  0.00  0.00    +0.000 C 
ATOM     20  C   UNL     1      27.291 -22.885 -17.410  0.00  0.00    +0.000 C 
ATOM     21  C   UNL     1      26.537 -21.960 -16.688  0.00  0.00    +0.000 C 
ENDBRANCH  15  16
ENDBRANCH  10  15
BRANCH   1  22
ATOM     22  C   UNL     1      35.708 -22.078 -17.566  0.00  0.00    +0.109 C 
BRANCH  22  23
ATOM     23  C   UNL     1      34.780 -21.694 -18.715  0.00  0.00    +0.107 C 
BRANCH  23  26
ATOM     24  O   UNL     1      36.667 -20.733 -19.847  0.00  0.00    -0.275 OA
ATOM     25  N   UNL     1      34.570 -20.085 -20.594  0.00  0.00    -0.279 N 
ATOM     26  C   UNL     1      35.438 -20.800 -19.762  0.00  0.00    +0.227 C 
ATOM     27  C   UNL     1      33.117 -20.178 -20.476  0.00  0.00    +0.115 C 
BRANCH  25  28
ATOM     28  C   UNL     1      35.046 -19.201 -21.631  0.00  0.00    +0.075 C 
ATOM     29  C   UNL     1      35.214 -17.780 -21.089  0.00  0.00    +0.020 C 
ATOM     30  C   UNL     1      34.106 -19.229 -22.840  0.00  0.00    +0.020 C 
ATOM     31  C   UNL     1      35.666 -16.811 -22.179  0.00  0.00    +0.002 C 
ATOM     32  C   UNL     1      34.561 -18.259 -23.928  0.00  0.00    +0.002 C 
ATOM     33  C   UNL     1      34.730 -16.844 -23.384  0.00  0.00    +0.000 C 
ENDBRANCH  25  28
ENDBRANCH  23  26
ENDBRANCH  22  23
ENDBRANCH   1  22
TORSDOF 6
ENDMDL
