MODEL 1
REMARK VINA RESULT:     -12.5      0.000      0.000
REMARK  Name = 5287728
REMARK  9 active torsions:
REMARK  status: ('A' for Active; 'I' for Inactive)
REMARK    1  A    between atoms: S_1  and  N_4
REMARK    2  A    between atoms: S_1  and  N_22
REMARK    3  A    between atoms: C_5  and  N_10
REMARK    4  A    between atoms: N_10  and  C_13
REMARK    5  A    between atoms: C_13  and  C_14
REMARK    6  A    between atoms: C_15  and  O_20
REMARK    7  A    between atoms: N_22  and  C_24
REMARK    8  A    between atoms: C_27  and  O_30
REMARK    9  A    between atoms: O_30  and  C_32
REMARK                            x       y       z     vdW  Elec       q    Type
REMARK                         _______ _______ _______ _____ _____    ______ ____
ROOT
ATOM      1  S   UNL     1      36.138 -18.501 -20.629  0.00  0.00    +0.113 S 
ATOM      2  O   UNL     1      35.510 -17.257 -20.220  0.00  0.00    -0.138 OA
ATOM      3  O   UNL     1      37.569 -18.682 -20.469  0.00  0.00    -0.138 OA
ENDROOT
BRANCH   1   4
ATOM      4  N   UNL     1      35.334 -19.789 -19.832  0.00  0.00    -0.143 NA
ATOM      5  C   UNL     1      34.092 -22.304 -19.063  0.00  0.00    -0.059 C 
ATOM      6  C   UNL     1      33.263 -21.071 -19.438  0.00  0.00    -0.002 C 
ATOM      7  C   UNL     1      35.463 -21.877 -18.524  0.00  0.00    -0.002 C 
ATOM      8  C   UNL     1      34.019 -20.180 -20.421  0.00  0.00    +0.095 C 
ATOM      9  C   UNL     1      36.185 -20.975 -19.520  0.00  0.00    +0.095 C 
BRANCH   5  10
ATOM     10  N   UNL     1      33.385 -23.098 -18.062  0.00  0.00    +0.388 N 
ATOM     11  H   UNL     1      34.029 -23.337 -17.308  0.00  0.00    -0.084 HD
ATOM     12  H   UNL     1      33.029 -23.944 -18.506  0.00  0.00    -0.084 HD
BRANCH  10  13
ATOM     13  C   UNL     1      32.263 -22.352 -17.511  0.00  0.00    -0.051 C 
BRANCH  13  14
ATOM     14  C   UNL     1      31.858 -22.868 -16.156  0.00  0.00    -0.010 C 
ATOM     15  C   UNL     1      30.520 -22.893 -15.786  0.00  0.00    +0.128 C 
ATOM     16  C   UNL     1      32.846 -23.317 -15.288  0.00  0.00    -0.003 C 
ATOM     17  C   UNL     1      30.162 -23.374 -14.527  0.00  0.00    +0.036 C 
ATOM     18  C   UNL     1      32.488 -23.798 -14.028  0.00  0.00    -0.000 C 
ATOM     19  C   UNL     1      31.147 -23.827 -13.648  0.00  0.00    +0.003 C 
BRANCH  15  20
ATOM     20  O   UNL     1      29.546 -22.454 -16.632  0.00  0.00    -0.506 OA
ATOM     21  H   UNL     1      28.960 -21.774 -16.361  0.00  0.00    +0.292 HD
ENDBRANCH  15  20
ENDBRANCH  13  14
ENDBRANCH  10  13
ENDBRANCH   5  10
ENDBRANCH   1   4
BRANCH   1  22
ATOM     22  N   UNL     1      35.682 -18.803 -22.266  0.00  0.00    -0.205 N 
ATOM     23  H   UNL     1      35.828 -19.679 -22.689  0.00  0.00    +0.175 HD
BRANCH  22  24
ATOM     24  C   UNL     1      35.077 -17.710 -22.983  0.00  0.00    +0.069 C 
ATOM     25  C   UNL     1      35.334 -16.404 -22.588  0.00  0.00    +0.053 C 
ATOM     26  C   UNL     1      34.243 -17.977 -24.062  0.00  0.00    +0.016 C 
ATOM     27  C   UNL     1      34.747 -15.346 -23.283  0.00  0.00    +0.147 C 
ATOM     28  C   UNL     1      33.657 -16.919 -24.756  0.00  0.00    +0.004 C 
ATOM     29  C   UNL     1      33.909 -15.604 -24.367  0.00  0.00    +0.038 C 
BRANCH  27  30
ATOM     30  O   UNL     1      34.992 -14.063 -22.902  0.00  0.00    -0.453 OA
BRANCH  30  32
ATOM     31  F   UNL     1      30.894 -11.272 -20.543  0.00  0.00    -0.204 F 
ATOM     32  C   UNL     1      33.958 -13.359 -22.307  0.00  0.00    +0.145 C 
ATOM     33  C   UNL     1      33.472 -12.222 -22.928  0.00  0.00    +0.040 C 
ATOM     34  C   UNL     1      33.439 -13.810 -21.108  0.00  0.00    +0.040 C 
ATOM     35  C   UNL     1      32.431 -11.514 -22.329  0.00  0.00    +0.033 C 
ATOM     36  C   UNL     1      32.399 -13.101 -20.508  0.00  0.00    +0.033 C 
ATOM     37  C   UNL     1      31.895 -11.953 -21.119  0.00  0.00    +0.140 C 
ENDBRANCH  30  32
ENDBRANCH  27  30
ENDBRANCH  22  24
ENDBRANCH   1  22
TORSDOF 9
ENDMDL
MODEL 2
REMARK VINA RESULT:     -11.9      3.518      6.440
REMARK  Name = 5287728
REMARK  9 active torsions:
REMARK  status: ('A' for Active; 'I' for Inactive)
REMARK    1  A    between atoms: S_1  and  N_4
REMARK    2  A    between atoms: S_1  and  N_22
REMARK    3  A    between atoms: C_5  and  N_10
REMARK    4  A    between atoms: N_10  and  C_13
REMARK    5  A    between atoms: C_13  and  C_14
REMARK    6  A    between atoms: C_15  and  O_20
REMARK    7  A    between atoms: N_22  and  C_24
REMARK    8  A    between atoms: C_27  and  O_30
REMARK    9  A    between atoms: O_30  and  C_32
REMARK                            x       y       z     vdW  Elec       q    Type
REMARK                         _______ _______ _______ _____ _____    ______ ____
ROOT
ATOM      1  S   UNL     1      33.489 -13.443 -23.397  0.00  0.00    +0.113 S 
ATOM      2  O   UNL     1      34.499 -12.533 -22.888  0.00  0.00    -0.138 OA
ATOM      3  O   UNL     1      33.067 -13.361 -24.784  0.00  0.00    -0.138 OA
ENDROOT
BRANCH   1   4
ATOM      4  N   UNL     1      34.010 -15.046 -23.080  0.00  0.00    -0.143 NA
ATOM      5  C   UNL     1      35.499 -17.520 -22.736  0.00  0.00    -0.059 C 
ATOM      6  C   UNL     1      34.553 -17.301 -23.921  0.00  0.00    -0.002 C 
ATOM      7  C   UNL     1      35.060 -16.665 -21.542  0.00  0.00    -0.002 C 
ATOM      8  C   UNL     1      34.455 -15.819 -24.277  0.00  0.00    +0.095 C 
ATOM      9  C   UNL     1      34.953 -15.193 -21.933  0.00  0.00    +0.095 C 
BRANCH   5  10
ATOM     10  N   UNL     1      35.514 -18.932 -22.362  0.00  0.00    +0.388 N 
ATOM     11  H   UNL     1      36.315 -19.109 -21.755  0.00  0.00    -0.084 HD
ATOM     12  H   UNL     1      35.581 -19.495 -23.210  0.00  0.00    -0.084 HD
BRANCH  10  13
ATOM     13  C   UNL     1      34.293 -19.292 -21.658  0.00  0.00    -0.051 C 
BRANCH  13  14
ATOM     14  C   UNL     1      34.567 -20.202 -20.490  0.00  0.00    -0.010 C 
ATOM     15  C   UNL     1      33.518 -20.815 -19.817  0.00  0.00    +0.128 C 
ATOM     16  C   UNL     1      35.884 -20.414 -20.101  0.00  0.00    -0.003 C 
ATOM     17  C   UNL     1      33.790 -21.654 -18.737  0.00  0.00    +0.036 C 
ATOM     18  C   UNL     1      36.156 -21.253 -19.021  0.00  0.00    -0.000 C 
ATOM     19  C   UNL     1      35.109 -21.873 -18.339  0.00  0.00    +0.003 C 
BRANCH  15  20
ATOM     20  O   UNL     1      32.224 -20.611 -20.193  0.00  0.00    -0.506 OA
ATOM     21  H   UNL     1      31.946 -19.761 -20.473  0.00  0.00    +0.292 HD
ENDBRANCH  15  20
ENDBRANCH  13  14
ENDBRANCH  10  13
ENDBRANCH   5  10
ENDBRANCH   1   4
BRANCH   1  22
ATOM     22  N   UNL     1      32.118 -13.340 -22.354  0.00  0.00    -0.205 N 
ATOM     23  H   UNL     1      31.466 -14.074 -22.283  0.00  0.00    +0.175 HD
BRANCH  22  24
ATOM     24  C   UNL     1      31.973 -12.127 -21.590  0.00  0.00    +0.069 C 
ATOM     25  C   UNL     1      31.671 -10.938 -22.243  0.00  0.00    +0.053 C 
ATOM     26  C   UNL     1      32.136 -12.161 -20.211  0.00  0.00    +0.016 C 
ATOM     27  C   UNL     1      31.531  -9.764 -21.502  0.00  0.00    +0.147 C 
ATOM     28  C   UNL     1      31.996 -10.987 -19.472  0.00  0.00    +0.004 C 
ATOM     29  C   UNL     1      31.694  -9.789 -20.118  0.00  0.00    +0.038 C 
BRANCH  27  30
ATOM     30  O   UNL     1      31.237  -8.594 -22.133  0.00  0.00    -0.453 OA
BRANCH  30  32
ATOM     31  F   UNL     1      35.426  -5.589 -24.022  0.00  0.00    -0.204 F 
ATOM     32  C   UNL     1      32.294  -7.836 -22.610  0.00  0.00    +0.145 C 
ATOM     33  C   UNL     1      33.519  -8.444 -22.818  0.00  0.00    +0.040 C 
ATOM     34  C   UNL     1      32.097  -6.491 -22.866  0.00  0.00    +0.040 C 
ATOM     35  C   UNL     1      34.583  -7.680 -23.298  0.00  0.00    +0.033 C 
ATOM     36  C   UNL     1      33.161  -5.727 -23.345  0.00  0.00    +0.033 C 
ATOM     37  C   UNL     1      34.404  -6.322 -23.561  0.00  0.00    +0.140 C 
ENDBRANCH  30  32
ENDBRANCH  27  30
ENDBRANCH  22  24
ENDBRANCH   1  22
TORSDOF 9
ENDMDL
MODEL 3
REMARK VINA RESULT:     -11.7      3.282     10.496
REMARK  Name = 5287728
REMARK  9 active torsions:
REMARK  status: ('A' for Active; 'I' for Inactive)
REMARK    1  A    between atoms: S_1  and  N_4
REMARK    2  A    between atoms: S_1  and  N_22
REMARK    3  A    between atoms: C_5  and  N_10
REMARK    4  A    between atoms: N_10  and  C_13
REMARK    5  A    between atoms: C_13  and  C_14
REMARK    6  A    between atoms: C_15  and  O_20
REMARK    7  A    between atoms: N_22  and  C_24
REMARK    8  A    between atoms: C_27  and  O_30
REMARK    9  A    between atoms: O_30  and  C_32
REMARK                            x       y       z     vdW  Elec       q    Type
REMARK                         _______ _______ _______ _____ _____    ______ ____
ROOT
ATOM      1  S   UNL     1      33.396 -22.819 -17.846  0.00  0.00    +0.113 S 
ATOM      2  O   UNL     1      32.144 -22.357 -17.275  0.00  0.00    -0.138 OA
ATOM      3  O   UNL     1      33.522 -24.188 -18.313  0.00  0.00    -0.138 OA
ENDROOT
BRANCH   1   4
ATOM      4  N   UNL     1      33.815 -21.765 -19.132  0.00  0.00    -0.143 NA
ATOM      5  C   UNL     1      34.552 -19.511 -20.815  0.00  0.00    -0.059 C 
ATOM      6  C   UNL     1      33.128 -20.076 -20.794  0.00  0.00    -0.002 C 
ATOM      7  C   UNL     1      35.560 -20.599 -20.429  0.00  0.00    -0.002 C 
ATOM      8  C   UNL     1      32.808 -20.707 -19.440  0.00  0.00    +0.095 C 
ATOM      9  C   UNL     1      35.205 -21.222 -19.082  0.00  0.00    +0.095 C 
BRANCH   5  10
ATOM     10  N   UNL     1      34.863 -18.987 -22.142  0.00  0.00    +0.388 N 
ATOM     11  H   UNL     1      33.995 -18.735 -22.615  0.00  0.00    -0.084 HD
ATOM     12  H   UNL     1      35.360 -19.705 -22.670  0.00  0.00    -0.084 HD
BRANCH  10  13
ATOM     13  C   UNL     1      35.712 -17.809 -22.045  0.00  0.00    -0.051 C 
BRANCH  13  14
ATOM     14  C   UNL     1      35.035 -16.583 -22.598  0.00  0.00    -0.010 C 
ATOM     15  C   UNL     1      34.558 -16.573 -23.902  0.00  0.00    +0.128 C 
ATOM     16  C   UNL     1      34.897 -15.468 -21.780  0.00  0.00    -0.003 C 
ATOM     17  C   UNL     1      33.933 -15.429 -24.398  0.00  0.00    +0.036 C 
ATOM     18  C   UNL     1      34.273 -14.324 -22.277  0.00  0.00    -0.000 C 
ATOM     19  C   UNL     1      33.791 -14.305 -23.585  0.00  0.00    +0.003 C 
BRANCH  15  20
ATOM     20  O   UNL     1      34.689 -17.663 -24.709  0.00  0.00    -0.506 OA
ATOM     21  H   UNL     1      34.087 -17.799 -25.415  0.00  0.00    +0.292 HD
ENDBRANCH  15  20
ENDBRANCH  13  14
ENDBRANCH  10  13
ENDBRANCH   5  10
ENDBRANCH   1   4
BRANCH   1  22
ATOM     22  N   UNL     1      34.650 -22.461 -16.716  0.00  0.00    -0.205 N 
ATOM     23  H   UNL     1      35.411 -21.884 -16.955  0.00  0.00    +0.175 HD
BRANCH  22  24
ATOM     24  C   UNL     1      34.529 -23.045 -15.405  0.00  0.00    +0.069 C 
ATOM     25  C   UNL     1      33.291 -23.501 -14.968  0.00  0.00    +0.053 C 
ATOM     26  C   UNL     1      35.652 -23.145 -14.593  0.00  0.00    +0.016 C 
ATOM     27  C   UNL     1      33.176 -24.066 -13.698  0.00  0.00    +0.147 C 
ATOM     28  C   UNL     1      35.535 -23.710 -13.323  0.00  0.00    +0.004 C 
ATOM     29  C   UNL     1      34.297 -24.170 -12.876  0.00  0.00    +0.038 C 
BRANCH  27  30
ATOM     30  O   UNL     1      31.967 -24.514 -13.261  0.00  0.00    -0.453 OA
BRANCH  30  32
ATOM     31  F   UNL     1      27.529 -23.169 -16.202  0.00  0.00    -0.204 F 
ATOM     32  C   UNL     1      30.848 -24.175 -14.003  0.00  0.00    +0.145 C 
ATOM     33  C   UNL     1      30.439 -22.854 -14.040  0.00  0.00    +0.040 C 
ATOM     34  C   UNL     1      30.168 -25.165 -14.688  0.00  0.00    +0.040 C 
ATOM     35  C   UNL     1      29.312 -22.512 -14.788  0.00  0.00    +0.033 C 
ATOM     36  C   UNL     1      29.040 -24.824 -15.434  0.00  0.00    +0.033 C 
ATOM     37  C   UNL     1      28.612 -23.497 -15.484  0.00  0.00    +0.140 C 
ENDBRANCH  30  32
ENDBRANCH  27  30
ENDBRANCH  22  24
ENDBRANCH   1  22
TORSDOF 9
ENDMDL
MODEL 4
REMARK VINA RESULT:     -11.7      2.940      4.526
REMARK  Name = 5287728
REMARK  9 active torsions:
REMARK  status: ('A' for Active; 'I' for Inactive)
REMARK    1  A    between atoms: S_1  and  N_4
REMARK    2  A    between atoms: S_1  and  N_22
REMARK    3  A    between atoms: C_5  and  N_10
REMARK    4  A    between atoms: N_10  and  C_13
REMARK    5  A    between atoms: C_13  and  C_14
REMARK    6  A    between atoms: C_15  and  O_20
REMARK    7  A    between atoms: N_22  and  C_24
REMARK    8  A    between atoms: C_27  and  O_30
REMARK    9  A    between atoms: O_30  and  C_32
REMARK                            x       y       z     vdW  Elec       q    Type
REMARK                         _______ _______ _______ _____ _____    ______ ____
ROOT
ATOM      1  S   UNL     1      34.116 -16.349 -24.286  0.00  0.00    +0.113 S 
ATOM      2  O   UNL     1      35.324 -15.897 -24.951  0.00  0.00    -0.138 OA
ATOM      3  O   UNL     1      33.089 -17.047 -25.038  0.00  0.00    -0.138 OA
ENDROOT
BRANCH   1   4
ATOM      4  N   UNL     1      34.576 -17.327 -22.954  0.00  0.00    -0.143 NA
ATOM      5  C   UNL     1      35.943 -19.037 -21.040  0.00  0.00    -0.059 C 
ATOM      6  C   UNL     1      34.854 -19.574 -21.975  0.00  0.00    -0.002 C 
ATOM      7  C   UNL     1      35.731 -17.540 -20.785  0.00  0.00    -0.002 C 
ATOM      8  C   UNL     1      34.799 -18.769 -23.271  0.00  0.00    +0.095 C 
ATOM      9  C   UNL     1      35.662 -16.765 -22.097  0.00  0.00    +0.095 C 
BRANCH   5  10
ATOM     10  N   UNL     1      35.924 -19.769 -19.776  0.00  0.00    +0.388 N 
ATOM     11  H   UNL     1      35.528 -19.172 -19.049  0.00  0.00    -0.084 HD
ATOM     12  H   UNL     1      36.879 -20.034 -19.536  0.00  0.00    -0.084 HD
BRANCH  10  13
ATOM     13  C   UNL     1      35.119 -20.976 -19.892  0.00  0.00    -0.051 C 
BRANCH  13  14
ATOM     14  C   UNL     1      34.976 -21.683 -18.570  0.00  0.00    -0.010 C 
ATOM     15  C   UNL     1      33.769 -22.273 -18.217  0.00  0.00    +0.128 C 
ATOM     16  C   UNL     1      36.070 -21.732 -17.715  0.00  0.00    -0.003 C 
ATOM     17  C   UNL     1      33.653 -22.923 -16.989  0.00  0.00    +0.036 C 
ATOM     18  C   UNL     1      35.953 -22.382 -16.486  0.00  0.00    -0.000 C 
ATOM     19  C   UNL     1      34.746 -22.977 -16.124  0.00  0.00    +0.003 C 
BRANCH  15  20
ATOM     20  O   UNL     1      32.692 -22.229 -19.051  0.00  0.00    -0.506 OA
ATOM     21  H   UNL     1      32.804 -21.984 -19.949  0.00  0.00    +0.292 HD
ENDBRANCH  15  20
ENDBRANCH  13  14
ENDBRANCH  10  13
ENDBRANCH   5  10
ENDBRANCH   1   4
BRANCH   1  22
ATOM     22  N   UNL     1      33.432 -14.993 -23.466  0.00  0.00    -0.205 N 
ATOM     23  H   UNL     1      32.970 -15.092 -22.602  0.00  0.00    +0.175 HD
BRANCH  22  24
ATOM     24  C   UNL     1      33.569 -13.710 -24.105  0.00  0.00    +0.069 C 
ATOM     25  C   UNL     1      33.978 -12.612 -23.359  0.00  0.00    +0.053 C 
ATOM     26  C   UNL     1      33.291 -13.586 -25.461  0.00  0.00    +0.016 C 
ATOM     27  C   UNL     1      34.110 -11.370 -23.979  0.00  0.00    +0.147 C 
ATOM     28  C   UNL     1      33.424 -12.344 -26.080  0.00  0.00    +0.004 C 
ATOM     29  C   UNL     1      33.833 -11.236 -25.339  0.00  0.00    +0.038 C 
BRANCH  27  30
ATOM     30  O   UNL     1      34.509 -10.288 -23.255  0.00  0.00    -0.453 OA
BRANCH  30  32
ATOM     31  F   UNL     1      30.962  -6.133 -22.709  0.00  0.00    -0.204 F 
ATOM     32  C   UNL     1      33.614  -9.240 -23.118  0.00  0.00    +0.145 C 
ATOM     33  C   UNL     1      33.977  -7.981 -23.563  0.00  0.00    +0.040 C 
ATOM     34  C   UNL     1      32.381  -9.478 -22.539  0.00  0.00    +0.040 C 
ATOM     35  C   UNL     1      33.076  -6.926 -23.424  0.00  0.00    +0.033 C 
ATOM     36  C   UNL     1      31.480  -8.423 -22.399  0.00  0.00    +0.033 C 
ATOM     37  C   UNL     1      31.828  -7.147 -22.842  0.00  0.00    +0.140 C 
ENDBRANCH  30  32
ENDBRANCH  27  30
ENDBRANCH  22  24
ENDBRANCH   1  22
TORSDOF 9
ENDMDL
MODEL 5
REMARK VINA RESULT:     -11.6      3.824     10.646
REMARK  Name = 5287728
REMARK  9 active torsions:
REMARK  status: ('A' for Active; 'I' for Inactive)
REMARK    1  A    between atoms: S_1  and  N_4
REMARK    2  A    between atoms: S_1  and  N_22
REMARK    3  A    between atoms: C_5  and  N_10
REMARK    4  A    between atoms: N_10  and  C_13
REMARK    5  A    between atoms: C_13  and  C_14
REMARK    6  A    between atoms: C_15  and  O_20
REMARK    7  A    between atoms: N_22  and  C_24
REMARK    8  A    between atoms: C_27  and  O_30
REMARK    9  A    between atoms: O_30  and  C_32
REMARK                            x       y       z     vdW  Elec       q    Type
REMARK                         _______ _______ _______ _____ _____    ______ ____
ROOT
ATOM      1  S   UNL     1      33.900 -22.786 -18.347  0.00  0.00    +0.113 S 
ATOM      2  O   UNL     1      33.716 -24.061 -19.016  0.00  0.00    -0.138 OA
ATOM      3  O   UNL     1      34.907 -22.645 -17.311  0.00  0.00    -0.138 OA
ENDROOT
BRANCH   1   4
ATOM      4  N   UNL     1      34.183 -21.593 -19.546  0.00  0.00    -0.143 NA
ATOM      5  C   UNL     1      34.660 -19.147 -21.045  0.00  0.00    -0.059 C 
ATOM      6  C   UNL     1      33.295 -19.844 -21.043  0.00  0.00    -0.002 C 
ATOM      7  C   UNL     1      35.775 -20.163 -20.775  0.00  0.00    -0.002 C 
ATOM      8  C   UNL     1      33.075 -20.612 -19.742  0.00  0.00    +0.095 C 
ATOM      9  C   UNL     1      35.517 -20.927 -19.479  0.00  0.00    +0.095 C 
BRANCH   5  10
ATOM     10  N   UNL     1      34.883 -18.487 -22.329  0.00  0.00    +0.388 N 
ATOM     11  H   UNL     1      33.982 -18.256 -22.748  0.00  0.00    -0.084 HD
ATOM     12  H   UNL     1      35.405 -19.119 -22.936  0.00  0.00    -0.084 HD
BRANCH  10  13
ATOM     13  C   UNL     1      35.654 -17.265 -22.154  0.00  0.00    -0.051 C 
BRANCH  13  14
ATOM     14  C   UNL     1      34.891 -16.050 -22.609  0.00  0.00    -0.010 C 
ATOM     15  C   UNL     1      34.461 -15.945 -23.926  0.00  0.00    +0.128 C 
ATOM     16  C   UNL     1      34.627 -15.042 -21.690  0.00  0.00    -0.003 C 
ATOM     17  C   UNL     1      33.755 -14.813 -24.331  0.00  0.00    +0.036 C 
ATOM     18  C   UNL     1      33.921 -13.909 -22.096  0.00  0.00    -0.000 C 
ATOM     19  C   UNL     1      33.486 -13.795 -23.415  0.00  0.00    +0.003 C 
BRANCH  15  20
ATOM     20  O   UNL     1      34.716 -16.930 -24.832  0.00  0.00    -0.506 OA
ATOM     21  H   UNL     1      34.309 -16.908 -25.676  0.00  0.00    +0.292 HD
ENDBRANCH  15  20
ENDBRANCH  13  14
ENDBRANCH  10  13
ENDBRANCH   5  10
ENDBRANCH   1   4
BRANCH   1  22
ATOM     22  N   UNL     1      32.361 -22.282 -17.750  0.00  0.00    -0.205 N 
ATOM     23  H   UNL     1      31.790 -21.659 -18.255  0.00  0.00    +0.175 HD
BRANCH  22  24
ATOM     24  C   UNL     1      31.952 -22.816 -16.476  0.00  0.00    +0.069 C 
ATOM     25  C   UNL     1      32.914 -23.276 -15.585  0.00  0.00    +0.053 C 
ATOM     26  C   UNL     1      30.602 -22.864 -16.155  0.00  0.00    +0.016 C 
ATOM     27  C   UNL     1      32.516 -23.793 -14.352  0.00  0.00    +0.147 C 
ATOM     28  C   UNL     1      30.206 -23.382 -14.922  0.00  0.00    +0.004 C 
ATOM     29  C   UNL     1      31.162 -23.846 -14.021  0.00  0.00    +0.038 C 
BRANCH  27  30
ATOM     30  O   UNL     1      33.451 -24.248 -13.473  0.00  0.00    -0.453 OA
BRANCH  30  32
ATOM     31  F   UNL     1      38.724 -23.958 -14.973  0.00  0.00    -0.204 F 
ATOM     32  C   UNL     1      34.781 -24.175 -13.852  0.00  0.00    +0.145 C 
ATOM     33  C   UNL     1      35.403 -25.305 -14.351  0.00  0.00    +0.040 C 
ATOM     34  C   UNL     1      35.453 -22.974 -13.721  0.00  0.00    +0.040 C 
ATOM     35  C   UNL     1      36.742 -25.231 -14.732  0.00  0.00    +0.033 C 
ATOM     36  C   UNL     1      36.793 -22.900 -14.101  0.00  0.00    +0.033 C 
ATOM     37  C   UNL     1      37.437 -24.029 -14.607  0.00  0.00    +0.140 C 
ENDBRANCH  30  32
ENDBRANCH  27  30
ENDBRANCH  22  24
ENDBRANCH   1  22
TORSDOF 9
ENDMDL
MODEL 6
REMARK VINA RESULT:     -11.5      2.854      4.341
REMARK  Name = 5287728
REMARK  9 active torsions:
REMARK  status: ('A' for Active; 'I' for Inactive)
REMARK    1  A    between atoms: S_1  and  N_4
REMARK    2  A    between atoms: S_1  and  N_22
REMARK    3  A    between atoms: C_5  and  N_10
REMARK    4  A    between atoms: N_10  and  C_13
REMARK    5  A    between atoms: C_13  and  C_14
REMARK    6  A    between atoms: C_15  and  O_20
REMARK    7  A    between atoms: N_22  and  C_24
REMARK    8  A    between atoms: C_27  and  O_30
REMARK    9  A    between atoms: O_30  and  C_32
REMARK                            x       y       z     vdW  Elec       q    Type
REMARK                         _______ _______ _______ _____ _____    ______ ____
ROOT
ATOM      1  S   UNL     1      34.498 -16.764 -23.999  0.00  0.00    +0.113 S 
ATOM      2  O   UNL     1      35.278 -17.280 -25.109  0.00  0.00    -0.138 OA
ATOM      3  O   UNL     1      33.065 -16.577 -24.141  0.00  0.00    -0.138 OA
ENDROOT
BRANCH   1   4
ATOM      4  N   UNL     1      34.784 -17.766 -22.637  0.00  0.00    -0.143 NA
ATOM      5  C   UNL     1      35.657 -19.814 -20.766  0.00  0.00    -0.059 C 
ATOM      6  C   UNL     1      34.243 -19.804 -21.357  0.00  0.00    -0.002 C 
ATOM      7  C   UNL     1      36.229 -18.392 -20.738  0.00  0.00    -0.002 C 
ATOM      8  C   UNL     1      34.230 -19.148 -22.736  0.00  0.00    +0.095 C 
ATOM      9  C   UNL     1      36.186 -17.757 -22.124  0.00  0.00    +0.095 C 
BRANCH   5  10
ATOM     10  N   UNL     1      35.631 -20.371 -19.416  0.00  0.00    +0.388 N 
ATOM     11  H   UNL     1      34.954 -19.855 -18.853  0.00  0.00    -0.084 HD
ATOM     12  H   UNL     1      36.564 -20.291 -19.010  0.00  0.00    -0.084 HD
BRANCH  10  13
ATOM     13  C   UNL     1      35.254 -21.776 -19.445  0.00  0.00    -0.051 C 
BRANCH  13  14
ATOM     14  C   UNL     1      34.760 -22.252 -18.105  0.00  0.00    -0.010 C 
ATOM     15  C   UNL     1      35.617 -22.286 -17.013  0.00  0.00    +0.128 C 
ATOM     16  C   UNL     1      33.435 -22.654 -17.983  0.00  0.00    -0.003 C 
ATOM     17  C   UNL     1      35.143 -22.729 -15.779  0.00  0.00    +0.036 C 
ATOM     18  C   UNL     1      32.962 -23.098 -16.749  0.00  0.00    -0.000 C 
ATOM     19  C   UNL     1      33.815 -23.136 -15.647  0.00  0.00    +0.003 C 
BRANCH  15  20
ATOM     20  O   UNL     1      36.917 -21.893 -17.125  0.00  0.00    -0.506 OA
ATOM     21  H   UNL     1      37.550 -22.469 -17.507  0.00  0.00    +0.292 HD
ENDBRANCH  15  20
ENDBRANCH  13  14
ENDBRANCH  10  13
ENDBRANCH   5  10
ENDBRANCH   1   4
BRANCH   1  22
ATOM     22  N   UNL     1      35.238 -15.295 -23.478  0.00  0.00    -0.205 N 
ATOM     23  H   UNL     1      36.174 -15.082 -23.698  0.00  0.00    +0.175 HD
BRANCH  22  24
ATOM     24  C   UNL     1      34.422 -14.394 -22.706  0.00  0.00    +0.069 C 
ATOM     25  C   UNL     1      33.836 -13.297 -23.325  0.00  0.00    +0.053 C 
ATOM     26  C   UNL     1      34.229 -14.634 -21.351  0.00  0.00    +0.016 C 
ATOM     27  C   UNL     1      33.047 -12.425 -22.576  0.00  0.00    +0.147 C 
ATOM     28  C   UNL     1      33.440 -13.761 -20.603  0.00  0.00    +0.004 C 
ATOM     29  C   UNL     1      32.848 -12.657 -21.215  0.00  0.00    +0.038 C 
BRANCH  27  30
ATOM     30  O   UNL     1      32.470 -11.346 -23.174  0.00  0.00    -0.453 OA
BRANCH  30  32
ATOM     31  F   UNL     1      35.194  -6.581 -23.013  0.00  0.00    -0.204 F 
ATOM     32  C   UNL     1      33.157 -10.144 -23.134  0.00  0.00    +0.145 C 
ATOM     33  C   UNL     1      34.318 -10.006 -23.874  0.00  0.00    +0.040 C 
ATOM     34  C   UNL     1      32.665  -9.113 -22.355  0.00  0.00    +0.040 C 
ATOM     35  C   UNL     1      35.009  -8.796 -23.833  0.00  0.00    +0.033 C 
ATOM     36  C   UNL     1      33.357  -7.903 -22.313  0.00  0.00    +0.033 C 
ATOM     37  C   UNL     1      34.529  -7.744 -23.052  0.00  0.00    +0.140 C 
ENDBRANCH  30  32
ENDBRANCH  27  30
ENDBRANCH  22  24
ENDBRANCH   1  22
TORSDOF 9
ENDMDL
MODEL 7
REMARK VINA RESULT:     -11.5      3.351     10.979
REMARK  Name = 5287728
REMARK  9 active torsions:
REMARK  status: ('A' for Active; 'I' for Inactive)
REMARK    1  A    between atoms: S_1  and  N_4
REMARK    2  A    between atoms: S_1  and  N_22
REMARK    3  A    between atoms: C_5  and  N_10
REMARK    4  A    between atoms: N_10  and  C_13
REMARK    5  A    between atoms: C_13  and  C_14
REMARK    6  A    between atoms: C_15  and  O_20
REMARK    7  A    between atoms: N_22  and  C_24
REMARK    8  A    between atoms: C_27  and  O_30
REMARK    9  A    between atoms: O_30  and  C_32
REMARK                            x       y       z     vdW  Elec       q    Type
REMARK                         _______ _______ _______ _____ _____    ______ ____
ROOT
ATOM      1  S   UNL     1      35.599 -18.126 -21.574  0.00  0.00    +0.113 S 
ATOM      2  O   UNL     1      36.318 -18.699 -22.698  0.00  0.00    -0.138 OA
ATOM      3  O   UNL     1      36.293 -17.856 -20.327  0.00  0.00    -0.138 OA
ENDROOT
BRANCH   1   4
ATOM      4  N   UNL     1      34.850 -16.678 -22.105  0.00  0.00    -0.143 NA
ATOM      5  C   UNL     1      34.222 -14.001 -23.052  0.00  0.00    -0.059 C 
ATOM      6  C   UNL     1      34.016 -14.413 -21.591  0.00  0.00    -0.002 C 
ATOM      7  C   UNL     1      34.130 -15.227 -23.967  0.00  0.00    -0.002 C 
ATOM      8  C   UNL     1      35.000 -15.510 -21.188  0.00  0.00    +0.095 C 
ATOM      9  C   UNL     1      35.110 -16.312 -23.529  0.00  0.00    +0.095 C 
BRANCH   5  10
ATOM     10  N   UNL     1      33.219 -13.011 -23.438  0.00  0.00    +0.388 N 
ATOM     11  H   UNL     1      32.881 -12.533 -22.603  0.00  0.00    -0.084 HD
ATOM     12  H   UNL     1      32.451 -13.489 -23.909  0.00  0.00    -0.084 HD
BRANCH  10  13
ATOM     13  C   UNL     1      33.788 -12.031 -24.351  0.00  0.00    -0.051 C 
BRANCH  13  14
ATOM     14  C   UNL     1      33.748 -10.640 -23.775  0.00  0.00    -0.010 C 
ATOM     15  C   UNL     1      34.699  -9.699 -24.147  0.00  0.00    +0.128 C 
ATOM     16  C   UNL     1      32.745 -10.320 -22.869  0.00  0.00    -0.003 C 
ATOM     17  C   UNL     1      34.648  -8.416 -23.604  0.00  0.00    +0.036 C 
ATOM     18  C   UNL     1      32.694  -9.036 -22.325  0.00  0.00    -0.000 C 
ATOM     19  C   UNL     1      33.645  -8.085 -22.693  0.00  0.00    +0.003 C 
BRANCH  15  20
ATOM     20  O   UNL     1      35.686 -10.007 -25.036  0.00  0.00    -0.506 OA
ATOM     21  H   UNL     1      35.472 -10.426 -25.847  0.00  0.00    +0.292 HD
ENDBRANCH  15  20
ENDBRANCH  13  14
ENDBRANCH  10  13
ENDBRANCH   5  10
ENDBRANCH   1   4
BRANCH   1  22
ATOM     22  N   UNL     1      34.215 -19.114 -21.280  0.00  0.00    -0.205 N 
ATOM     23  H   UNL     1      33.366 -18.967 -21.756  0.00  0.00    +0.175 HD
BRANCH  22  24
ATOM     24  C   UNL     1      34.362 -20.164 -20.306  0.00  0.00    +0.069 C 
ATOM     25  C   UNL     1      33.229 -20.762 -19.767  0.00  0.00    +0.053 C 
ATOM     26  C   UNL     1      35.633 -20.566 -19.916  0.00  0.00    +0.016 C 
ATOM     27  C   UNL     1      33.373 -21.779 -18.822  0.00  0.00    +0.147 C 
ATOM     28  C   UNL     1      35.775 -21.582 -18.972  0.00  0.00    +0.004 C 
ATOM     29  C   UNL     1      34.645 -22.189 -18.425  0.00  0.00    +0.038 C 
BRANCH  27  30
ATOM     30  O   UNL     1      32.269 -22.370 -18.287  0.00  0.00    -0.453 OA
BRANCH  30  32
ATOM     31  F   UNL     1      32.416 -23.708 -12.964  0.00  0.00    -0.204 F 
ATOM     32  C   UNL     1      32.306 -22.708 -16.945  0.00  0.00    +0.145 C 
ATOM     33  C   UNL     1      31.133 -22.683 -16.211  0.00  0.00    +0.040 C 
ATOM     34  C   UNL     1      33.514 -23.060 -16.372  0.00  0.00    +0.040 C 
ATOM     35  C   UNL     1      31.171 -23.024 -14.859  0.00  0.00    +0.033 C 
ATOM     36  C   UNL     1      33.552 -23.399 -15.020  0.00  0.00    +0.033 C 
ATOM     37  C   UNL     1      32.380 -23.381 -14.263  0.00  0.00    +0.140 C 
ENDBRANCH  30  32
ENDBRANCH  27  30
ENDBRANCH  22  24
ENDBRANCH   1  22
TORSDOF 9
ENDMDL
MODEL 8
REMARK VINA RESULT:     -11.3      5.984     12.151
REMARK  Name = 5287728
REMARK  9 active torsions:
REMARK  status: ('A' for Active; 'I' for Inactive)
REMARK    1  A    between atoms: S_1  and  N_4
REMARK    2  A    between atoms: S_1  and  N_22
REMARK    3  A    between atoms: C_5  and  N_10
REMARK    4  A    between atoms: N_10  and  C_13
REMARK    5  A    between atoms: C_13  and  C_14
REMARK    6  A    between atoms: C_15  and  O_20
REMARK    7  A    between atoms: N_22  and  C_24
REMARK    8  A    between atoms: C_27  and  O_30
REMARK    9  A    between atoms: O_30  and  C_32
REMARK                            x       y       z     vdW  Elec       q    Type
REMARK                         _______ _______ _______ _____ _____    ______ ____
ROOT
ATOM      1  S   UNL     1      34.554 -23.390 -15.131  0.00  0.00    +0.113 S 
ATOM      2  O   UNL     1      33.165 -23.155 -14.779  0.00  0.00    -0.138 OA
ATOM      3  O   UNL     1      35.039 -24.745 -15.316  0.00  0.00    -0.138 OA
ENDROOT
BRANCH   1   4
ATOM      4  N   UNL     1      34.904 -22.487 -16.546  0.00  0.00    -0.143 NA
ATOM      5  C   UNL     1      35.696 -21.563 -19.187  0.00  0.00    -0.059 C 
ATOM      6  C   UNL     1      36.550 -21.294 -17.944  0.00  0.00    -0.002 C 
ATOM      7  C   UNL     1      34.224 -21.729 -18.794  0.00  0.00    -0.002 C 
ATOM      8  C   UNL     1      36.351 -22.387 -16.896  0.00  0.00    +0.095 C 
ATOM      9  C   UNL     1      34.060 -22.814 -17.734  0.00  0.00    +0.095 C 
BRANCH   5  10
ATOM     10  N   UNL     1      35.840 -20.465 -20.140  0.00  0.00    +0.388 N 
ATOM     11  H   UNL     1      36.410 -20.776 -20.926  0.00  0.00    -0.084 HD
ATOM     12  H   UNL     1      36.284 -19.677 -19.668  0.00  0.00    -0.084 HD
BRANCH  10  13
ATOM     13  C   UNL     1      34.539 -20.038 -20.635  0.00  0.00    -0.051 C 
BRANCH  13  14
ATOM     14  C   UNL     1      34.665 -19.018 -21.735  0.00  0.00    -0.010 C 
ATOM     15  C   UNL     1      35.268 -17.792 -21.489  0.00  0.00    +0.128 C 
ATOM     16  C   UNL     1      34.168 -19.328 -22.995  0.00  0.00    -0.003 C 
ATOM     17  C   UNL     1      35.376 -16.859 -22.519  0.00  0.00    +0.036 C 
ATOM     18  C   UNL     1      34.275 -18.393 -24.025  0.00  0.00    -0.000 C 
ATOM     19  C   UNL     1      34.879 -17.160 -23.787  0.00  0.00    +0.003 C 
BRANCH  15  20
ATOM     20  O   UNL     1      35.758 -17.482 -20.255  0.00  0.00    -0.506 OA
ATOM     21  H   UNL     1      36.410 -16.815 -20.164  0.00  0.00    +0.292 HD
ENDBRANCH  15  20
ENDBRANCH  13  14
ENDBRANCH  10  13
ENDBRANCH   5  10
ENDBRANCH   1   4
BRANCH   1  22
ATOM     22  N   UNL     1      35.533 -22.563 -13.974  0.00  0.00    -0.205 N 
ATOM     23  H   UNL     1      35.609 -21.582 -13.969  0.00  0.00    +0.175 HD
BRANCH  22  24
ATOM     24  C   UNL     1      36.234 -23.378 -13.016  0.00  0.00    +0.069 C 
ATOM     25  C   UNL     1      37.475 -23.911 -13.345  0.00  0.00    +0.053 C 
ATOM     26  C   UNL     1      35.661 -23.623 -11.774  0.00  0.00    +0.016 C 
ATOM     27  C   UNL     1      38.152 -24.701 -12.417  0.00  0.00    +0.147 C 
ATOM     28  C   UNL     1      36.340 -24.413 -10.847  0.00  0.00    +0.004 C 
ATOM     29  C   UNL     1      37.585 -24.951 -11.168  0.00  0.00    +0.038 C 
BRANCH  27  30
ATOM     30  O   UNL     1      39.367 -25.228 -12.731  0.00  0.00    -0.453 OA
BRANCH  30  32
ATOM     31  F   UNL     1      39.500 -29.371 -16.331  0.00  0.00    -0.204 F 
ATOM     32  C   UNL     1      39.401 -26.273 -13.640  0.00  0.00    +0.145 C 
ATOM     33  C   UNL     1      38.606 -27.383 -13.419  0.00  0.00    +0.040 C 
ATOM     34  C   UNL     1      40.228 -26.179 -14.744  0.00  0.00    +0.040 C 
ATOM     35  C   UNL     1      38.639 -28.435 -14.333  0.00  0.00    +0.033 C 
ATOM     36  C   UNL     1      40.263 -27.232 -15.658  0.00  0.00    +0.033 C 
ATOM     37  C   UNL     1      39.468 -28.360 -15.453  0.00  0.00    +0.140 C 
ENDBRANCH  30  32
ENDBRANCH  27  30
ENDBRANCH  22  24
ENDBRANCH   1  22
TORSDOF 9
ENDMDL
MODEL 9
REMARK VINA RESULT:     -11.3      4.167      7.689
REMARK  Name = 5287728
REMARK  9 active torsions:
REMARK  status: ('A' for Active; 'I' for Inactive)
REMARK    1  A    between atoms: S_1  and  N_4
REMARK    2  A    between atoms: S_1  and  N_22
REMARK    3  A    between atoms: C_5  and  N_10
REMARK    4  A    between atoms: N_10  and  C_13
REMARK    5  A    between atoms: C_13  and  C_14
REMARK    6  A    between atoms: C_15  and  O_20
REMARK    7  A    between atoms: N_22  and  C_24
REMARK    8  A    between atoms: C_27  and  O_30
REMARK    9  A    between atoms: O_30  and  C_32
REMARK                            x       y       z     vdW  Elec       q    Type
REMARK                         _______ _______ _______ _____ _____    ______ ____
ROOT
ATOM      1  S   UNL     1      33.515 -11.701 -23.444  0.00  0.00    +0.113 S 
ATOM      2  O   UNL     1      34.378 -10.656 -22.924  0.00  0.00    -0.138 OA
ATOM      3  O   UNL     1      33.216 -11.759 -24.864  0.00  0.00    -0.138 OA
ENDROOT
BRANCH   1   4
ATOM      4  N   UNL     1      34.163 -13.214 -22.962  0.00  0.00    -0.143 NA
ATOM      5  C   UNL     1      34.610 -15.977 -22.172  0.00  0.00    -0.059 C 
ATOM      6  C   UNL     1      34.667 -14.825 -21.163  0.00  0.00    -0.002 C 
ATOM      7  C   UNL     1      34.955 -15.469 -23.576  0.00  0.00    -0.002 C 
ATOM      8  C   UNL     1      33.766 -13.671 -21.598  0.00  0.00    +0.095 C 
ATOM      9  C   UNL     1      34.052 -14.306 -23.975  0.00  0.00    +0.095 C 
BRANCH   5  10
ATOM     10  N   UNL     1      35.539 -17.033 -21.778  0.00  0.00    +0.388 N 
ATOM     11  H   UNL     1      35.643 -17.027 -20.763  0.00  0.00    -0.084 HD
ATOM     12  H   UNL     1      36.438 -16.864 -22.229  0.00  0.00    -0.084 HD
BRANCH  10  13
ATOM     13  C   UNL     1      35.044 -18.337 -22.198  0.00  0.00    -0.051 C 
BRANCH  13  14
ATOM     14  C   UNL     1      35.140 -19.354 -21.093  0.00  0.00    -0.010 C 
ATOM     15  C   UNL     1      36.369 -19.656 -20.520  0.00  0.00    +0.128 C 
ATOM     16  C   UNL     1      33.979 -19.982 -20.659  0.00  0.00    -0.003 C 
ATOM     17  C   UNL     1      36.439 -20.601 -19.497  0.00  0.00    +0.036 C 
ATOM     18  C   UNL     1      34.050 -20.929 -19.636  0.00  0.00    -0.000 C 
ATOM     19  C   UNL     1      35.279 -21.237 -19.056  0.00  0.00    +0.003 C 
BRANCH  15  20
ATOM     20  O   UNL     1      37.511 -19.043 -20.940  0.00  0.00    -0.506 OA
ATOM     21  H   UNL     1      38.339 -19.297 -20.581  0.00  0.00    +0.292 HD
ENDBRANCH  15  20
ENDBRANCH  13  14
ENDBRANCH  10  13
ENDBRANCH   5  10
ENDBRANCH   1   4
BRANCH   1  22
ATOM     22  N   UNL     1      32.051 -11.674 -22.531  0.00  0.00    -0.205 N 
ATOM     23  H   UNL     1      31.304 -12.282 -22.734  0.00  0.00    +0.175 HD
BRANCH  22  24
ATOM     24  C   UNL     1      31.974 -10.719 -21.456  0.00  0.00    +0.069 C 
ATOM     25  C   UNL     1      31.982  -9.360 -21.745  0.00  0.00    +0.053 C 
ATOM     26  C   UNL     1      31.894 -11.168 -20.144  0.00  0.00    +0.016 C 
ATOM     27  C   UNL     1      31.908  -8.435 -20.702  0.00  0.00    +0.147 C 
ATOM     28  C   UNL     1      31.820 -10.243 -19.103  0.00  0.00    +0.004 C 
ATOM     29  C   UNL     1      31.827  -8.877 -19.382  0.00  0.00    +0.038 C 
BRANCH  27  30
ATOM     30  O   UNL     1      31.916  -7.101 -20.975  0.00  0.00    -0.453 OA
BRANCH  30  32
ATOM     31  F   UNL     1      35.345  -5.313 -24.873  0.00  0.00    -0.204 F 
ATOM     32  C   UNL     1      32.781  -6.650 -21.959  0.00  0.00    +0.145 C 
ATOM     33  C   UNL     1      34.068  -7.155 -22.007  0.00  0.00    +0.040 C 
ATOM     34  C   UNL     1      32.335  -5.708 -22.867  0.00  0.00    +0.040 C 
ATOM     35  C   UNL     1      34.939  -6.701 -22.997  0.00  0.00    +0.033 C 
ATOM     36  C   UNL     1      33.206  -5.252 -23.857  0.00  0.00    +0.033 C 
ATOM     37  C   UNL     1      34.508  -5.749 -23.922  0.00  0.00    +0.140 C 
ENDBRANCH  30  32
ENDBRANCH  27  30
ENDBRANCH  22  24
ENDBRANCH   1  22
TORSDOF 9
ENDMDL
