MODEL 1
REMARK VINA RESULT:     -12.1      0.000      0.000
REMARK  Name = 24963046
REMARK  6 active torsions:
REMARK  status: ('A' for Active; 'I' for Inactive)
REMARK    1  A    between atoms: N_1  and  C_27
REMARK    2  A    between atoms: C_4  and  C_16
REMARK    3  A    between atoms: C_13  and  C_22
REMARK    4  A    between atoms: N_21  and  C_24
REMARK    5  A    between atoms: C_27  and  C_28
REMARK    6  A    between atoms: C_28  and  N_30
REMARK                            x       y       z     vdW  Elec       q    Type
REMARK                         _______ _______ _______ _____ _____    ______ ____
ROOT
ATOM      1  N   UNL     1      35.728 -17.900 -23.218  0.00  0.00    -0.270 N 
ATOM      2  N   UNL     1      34.659 -19.227 -21.637  0.00  0.00    -0.338 NA
ATOM      3  N   UNL     1      37.031 -18.817 -21.532  0.00  0.00    -0.170 NA
ATOM      4  C   UNL     1      34.865 -21.590 -18.210  0.00  0.00    -0.000 C 
ATOM      5  C   UNL     1      36.020 -21.000 -18.715  0.00  0.00    +0.004 C 
ATOM      6  C   UNL     1      35.954 -20.202 -19.871  0.00  0.00    +0.050 C 
ATOM      7  C   UNL     1      35.812 -18.683 -22.078  0.00  0.00    +0.145 C 
ATOM      8  C   UNL     1      33.650 -21.384 -18.856  0.00  0.00    +0.003 C 
ATOM      9  C   UNL     1      34.733 -19.987 -20.531  0.00  0.00    +0.146 C 
ATOM     10  C   UNL     1      33.594 -20.589 -20.004  0.00  0.00    +0.033 C 
ATOM     11  C   UNL     1      37.070 -19.585 -20.426  0.00  0.00    +0.114 C 
ATOM     12  H   UNL     1      36.555 -17.490 -23.561  0.00  0.00    +0.159 HD
ENDROOT
BRANCH   4  16
ATOM     13  C   UNL     1      36.237 -23.359 -15.225  0.00  0.00    +0.053 C 
ATOM     14  C   UNL     1      36.152 -22.571 -16.373  0.00  0.00    +0.004 C 
ATOM     15  C   UNL     1      35.097 -23.987 -14.725  0.00  0.00    +0.004 C 
ATOM     16  C   UNL     1      34.928 -22.412 -17.022  0.00  0.00    -0.004 C 
ATOM     17  C   UNL     1      33.787 -23.041 -16.521  0.00  0.00    -0.022 C 
ATOM     18  C   UNL     1      33.871 -23.828 -15.373  0.00  0.00    -0.004 C 
ATOM     19  C   UNL     1      32.457 -22.894 -17.189  0.00  0.00    +0.031 C 
BRANCH  13  22
ATOM     20  O   UNL     1      37.820 -22.799 -13.586  0.00  0.00    -0.270 OA
ATOM     21  N   UNL     1      38.373 -24.513 -15.043  0.00  0.00    -0.302 N 
ATOM     22  C   UNL     1      37.514 -23.525 -14.549  0.00  0.00    +0.246 C 
ATOM     23  H   UNL     1      38.071 -25.055 -15.809  0.00  0.00    +0.150 HD
BRANCH  21  24
ATOM     24  C   UNL     1      39.673 -24.778 -14.491  0.00  0.00    +0.072 C 
ATOM     25  C   UNL     1      39.830 -25.500 -13.185  0.00  0.00    +0.021 C 
ATOM     26  C   UNL     1      40.237 -26.167 -14.467  0.00  0.00    +0.021 C 
ENDBRANCH  21  24
ENDBRANCH  13  22
ENDBRANCH   4  16
BRANCH   1  27
ATOM     27  C   UNL     1      34.497 -17.650 -23.930  0.00  0.00    +0.075 C 
BRANCH  27  28
ATOM     28  C   UNL     1      34.510 -16.235 -24.495  0.00  0.00    -0.055 C 
BRANCH  28  30
ATOM     29  O   UNL     1      33.784 -12.863 -22.104  0.00  0.00    -0.358 OA
ATOM     30  N   UNL     1      33.879 -15.308 -23.557  0.00  0.00    +0.391 N 
ATOM     31  C   UNL     1      33.562 -14.034 -24.218  0.00  0.00    -0.045 C 
ATOM     32  C   UNL     1      34.746 -15.071 -22.394  0.00  0.00    -0.045 C 
ATOM     33  C   UNL     1      32.916 -13.080 -23.218  0.00  0.00    +0.119 C 
ATOM     34  C   UNL     1      34.071 -14.093 -21.437  0.00  0.00    +0.119 C 
ATOM     35  H   UNL     1      33.009 -15.734 -23.236  0.00  0.00    -0.079 HD
ENDBRANCH  28  30
ENDBRANCH  27  28
ENDBRANCH   1  27
TORSDOF 6
ENDMDL
MODEL 2
REMARK VINA RESULT:     -11.9      3.755      6.256
REMARK  Name = 24963046
REMARK  6 active torsions:
REMARK  status: ('A' for Active; 'I' for Inactive)
REMARK    1  A    between atoms: N_1  and  C_27
REMARK    2  A    between atoms: C_4  and  C_16
REMARK    3  A    between atoms: C_13  and  C_22
REMARK    4  A    between atoms: N_21  and  C_24
REMARK    5  A    between atoms: C_27  and  C_28
REMARK    6  A    between atoms: C_28  and  N_30
REMARK                            x       y       z     vdW  Elec       q    Type
REMARK                         _______ _______ _______ _____ _____    ______ ____
ROOT
ATOM      1  N   UNL     1      33.476 -12.629 -24.980  0.00  0.00    -0.270 N 
ATOM      2  N   UNL     1      33.981 -13.874 -23.083  0.00  0.00    -0.338 NA
ATOM      3  N   UNL     1      33.995 -14.870 -25.277  0.00  0.00    -0.170 NA
ATOM      4  C   UNL     1      35.054 -17.518 -21.367  0.00  0.00    -0.000 C 
ATOM      5  C   UNL     1      34.888 -17.424 -22.745  0.00  0.00    +0.004 C 
ATOM      6  C   UNL     1      34.525 -16.196 -23.327  0.00  0.00    +0.050 C 
ATOM      7  C   UNL     1      33.833 -13.846 -24.423  0.00  0.00    +0.145 C 
ATOM      8  C   UNL     1      34.862 -16.391 -20.574  0.00  0.00    +0.003 C 
ATOM      9  C   UNL     1      34.327 -15.052 -22.537  0.00  0.00    +0.146 C 
ATOM     10  C   UNL     1      34.502 -15.175 -21.161  0.00  0.00    +0.033 C 
ATOM     11  C   UNL     1      34.342 -16.036 -24.697  0.00  0.00    +0.114 C 
ATOM     12  H   UNL     1      33.362 -12.580 -25.957  0.00  0.00    +0.159 HD
ENDROOT
BRANCH   4  16
ATOM     13  C   UNL     1      34.761 -20.825 -19.665  0.00  0.00    +0.053 C 
ATOM     14  C   UNL     1      34.426 -19.604 -20.252  0.00  0.00    +0.004 C 
ATOM     15  C   UNL     1      36.096 -21.220 -19.592  0.00  0.00    +0.004 C 
ATOM     16  C   UNL     1      35.426 -18.778 -20.763  0.00  0.00    -0.004 C 
ATOM     17  C   UNL     1      36.762 -19.174 -20.689  0.00  0.00    -0.022 C 
ATOM     18  C   UNL     1      37.097 -20.395 -20.104  0.00  0.00    -0.004 C 
ATOM     19  C   UNL     1      37.863 -18.315 -21.228  0.00  0.00    +0.031 C 
BRANCH  13  22
ATOM     20  O   UNL     1      32.621 -21.787 -19.709  0.00  0.00    -0.270 OA
ATOM     21  N   UNL     1      34.003 -22.370 -17.943  0.00  0.00    -0.302 N 
ATOM     22  C   UNL     1      33.718 -21.687 -19.132  0.00  0.00    +0.246 C 
ATOM     23  H   UNL     1      34.891 -22.248 -17.534  0.00  0.00    +0.150 HD
BRANCH  21  24
ATOM     24  C   UNL     1      33.064 -23.239 -17.287  0.00  0.00    +0.072 C 
ATOM     25  C   UNL     1      32.991 -23.316 -15.791  0.00  0.00    +0.021 C 
ATOM     26  C   UNL     1      31.870 -22.688 -16.567  0.00  0.00    +0.021 C 
ENDBRANCH  21  24
ENDBRANCH  13  22
ENDBRANCH   4  16
BRANCH   1  27
ATOM     27  C   UNL     1      33.262 -11.427 -24.209  0.00  0.00    +0.075 C 
BRANCH  27  28
ATOM     28  C   UNL     1      34.465 -10.504 -24.356  0.00  0.00    -0.055 C 
BRANCH  28  30
ATOM     29  O   UNL     1      33.435  -6.938 -22.397  0.00  0.00    -0.358 OA
ATOM     30  N   UNL     1      34.407  -9.432 -23.365  0.00  0.00    +0.391 N 
ATOM     31  C   UNL     1      33.047  -9.295 -22.823  0.00  0.00    -0.045 C 
ATOM     32  C   UNL     1      34.848  -8.157 -23.947  0.00  0.00    -0.045 C 
ATOM     33  C   UNL     1      33.009  -8.164 -21.800  0.00  0.00    +0.119 C 
ATOM     34  C   UNL     1      34.768  -7.053 -22.897  0.00  0.00    +0.119 C 
ATOM     35  H   UNL     1      35.038  -9.678 -22.602  0.00  0.00    -0.079 HD
ENDBRANCH  28  30
ENDBRANCH  27  28
ENDBRANCH   1  27
TORSDOF 6
ENDMDL
MODEL 3
REMARK VINA RESULT:     -11.8      2.786      4.791
REMARK  Name = 24963046
REMARK  6 active torsions:
REMARK  status: ('A' for Active; 'I' for Inactive)
REMARK    1  A    between atoms: N_1  and  C_27
REMARK    2  A    between atoms: C_4  and  C_16
REMARK    3  A    between atoms: C_13  and  C_22
REMARK    4  A    between atoms: N_21  and  C_24
REMARK    5  A    between atoms: C_27  and  C_28
REMARK    6  A    between atoms: C_28  and  N_30
REMARK                            x       y       z     vdW  Elec       q    Type
REMARK                         _______ _______ _______ _____ _____    ______ ____
ROOT
ATOM      1  N   UNL     1      35.755 -18.091 -23.236  0.00  0.00    -0.270 N 
ATOM      2  N   UNL     1      34.318 -19.230 -21.808  0.00  0.00    -0.338 NA
ATOM      3  N   UNL     1      36.697 -19.196 -21.427  0.00  0.00    -0.170 NA
ATOM      4  C   UNL     1      33.757 -21.588 -18.416  0.00  0.00    -0.000 C 
ATOM      5  C   UNL     1      35.041 -21.187 -18.777  0.00  0.00    +0.004 C 
ATOM      6  C   UNL     1      35.233 -20.392 -19.920  0.00  0.00    +0.050 C 
ATOM      7  C   UNL     1      35.584 -18.875 -22.106  0.00  0.00    +0.145 C 
ATOM      8  C   UNL     1      32.672 -21.195 -19.193  0.00  0.00    +0.003 C 
ATOM      9  C   UNL     1      34.145 -19.990 -20.713  0.00  0.00    +0.146 C 
ATOM     10  C   UNL     1      32.873 -20.405 -20.328  0.00  0.00    +0.033 C 
ATOM     11  C   UNL     1      36.488 -19.958 -20.335  0.00  0.00    +0.114 C 
ATOM     12  H   UNL     1      36.670 -17.816 -23.476  0.00  0.00    +0.159 HD
ENDROOT
BRANCH   4  16
ATOM     13  C   UNL     1      32.037 -23.562 -15.759  0.00  0.00    +0.053 C 
ATOM     14  C   UNL     1      32.256 -22.773 -16.888  0.00  0.00    +0.004 C 
ATOM     15  C   UNL     1      33.115 -23.985 -14.984  0.00  0.00    +0.004 C 
ATOM     16  C   UNL     1      33.555 -22.406 -17.241  0.00  0.00    -0.004 C 
ATOM     17  C   UNL     1      34.634 -22.830 -16.465  0.00  0.00    -0.022 C 
ATOM     18  C   UNL     1      34.414 -23.620 -15.337  0.00  0.00    -0.004 C 
ATOM     19  C   UNL     1      36.040 -22.458 -16.812  0.00  0.00    +0.031 C 
BRANCH  13  22
ATOM     20  O   UNL     1      30.481 -24.909 -14.632  0.00  0.00    -0.270 OA
ATOM     21  N   UNL     1      29.636 -23.195 -15.942  0.00  0.00    -0.302 N 
ATOM     22  C   UNL     1      30.683 -23.945 -15.391  0.00  0.00    +0.246 C 
ATOM     23  H   UNL     1      29.863 -22.442 -16.536  0.00  0.00    +0.150 HD
BRANCH  21  24
ATOM     24  C   UNL     1      28.249 -23.468 -15.686  0.00  0.00    +0.072 C 
ATOM     25  C   UNL     1      27.346 -22.422 -15.102  0.00  0.00    +0.021 C 
ATOM     26  C   UNL     1      27.169 -22.856 -16.527  0.00  0.00    +0.021 C 
ENDBRANCH  21  24
ENDBRANCH  13  22
ENDBRANCH   4  16
BRANCH   1  27
ATOM     27  C   UNL     1      34.669 -17.654 -24.080  0.00  0.00    +0.075 C 
BRANCH  27  28
ATOM     28  C   UNL     1      34.848 -16.180 -24.423  0.00  0.00    -0.055 C 
BRANCH  28  30
ATOM     29  O   UNL     1      33.680 -12.981 -21.970  0.00  0.00    -0.358 OA
ATOM     30  N   UNL     1      34.078 -15.347 -23.501  0.00  0.00    +0.391 N 
ATOM     31  C   UNL     1      33.706 -14.075 -24.136  0.00  0.00    -0.045 C 
ATOM     32  C   UNL     1      34.837 -15.092 -22.269  0.00  0.00    -0.045 C 
ATOM     33  C   UNL     1      32.914 -13.218 -23.153  0.00  0.00    +0.119 C 
ATOM     34  C   UNL     1      34.018 -14.212 -21.329  0.00  0.00    +0.119 C 
ATOM     35  H   UNL     1      33.225 -15.853 -23.261  0.00  0.00    -0.079 HD
ENDBRANCH  28  30
ENDBRANCH  27  28
ENDBRANCH   1  27
TORSDOF 6
ENDMDL
MODEL 4
REMARK VINA RESULT:     -11.6      2.067     10.989
REMARK  Name = 24963046
REMARK  6 active torsions:
REMARK  status: ('A' for Active; 'I' for Inactive)
REMARK    1  A    between atoms: N_1  and  C_27
REMARK    2  A    between atoms: C_4  and  C_16
REMARK    3  A    between atoms: C_13  and  C_22
REMARK    4  A    between atoms: N_21  and  C_24
REMARK    5  A    between atoms: C_27  and  C_28
REMARK    6  A    between atoms: C_28  and  N_30
REMARK                            x       y       z     vdW  Elec       q    Type
REMARK                         _______ _______ _______ _____ _____    ______ ____
ROOT
ATOM      1  N   UNL     1      34.011 -23.627 -16.400  0.00  0.00    -0.270 N 
ATOM      2  N   UNL     1      35.098 -22.178 -17.857  0.00  0.00    -0.338 NA
ATOM      3  N   UNL     1      32.697 -22.393 -17.861  0.00  0.00    -0.170 NA
ATOM      4  C   UNL     1      34.900 -19.358 -20.921  0.00  0.00    -0.000 C 
ATOM      5  C   UNL     1      33.729 -19.924 -20.424  0.00  0.00    +0.004 C 
ATOM      6  C   UNL     1      33.792 -20.876 -19.391  0.00  0.00    +0.050 C 
ATOM      7  C   UNL     1      33.930 -22.691 -17.419  0.00  0.00    +0.145 C 
ATOM      8  C   UNL     1      36.126 -19.739 -20.387  0.00  0.00    +0.003 C 
ATOM      9  C   UNL     1      35.026 -21.269 -18.845  0.00  0.00    +0.146 C 
ATOM     10  C   UNL     1      36.180 -20.685 -19.360  0.00  0.00    +0.033 C 
ATOM     11  C   UNL     1      32.661 -21.480 -18.851  0.00  0.00    +0.114 C 
ATOM     12  H   UNL     1      33.173 -24.017 -16.061  0.00  0.00    +0.159 HD
ENDROOT
BRANCH   4  16
ATOM     13  C   UNL     1      34.699 -16.066 -22.664  0.00  0.00    +0.053 C 
ATOM     14  C   UNL     1      34.758 -17.027 -21.655  0.00  0.00    +0.004 C 
ATOM     15  C   UNL     1      34.723 -16.457 -24.002  0.00  0.00    +0.004 C 
ATOM     16  C   UNL     1      34.840 -18.380 -21.984  0.00  0.00    -0.004 C 
ATOM     17  C   UNL     1      34.864 -18.771 -23.323  0.00  0.00    -0.022 C 
ATOM     18  C   UNL     1      34.806 -17.810 -24.332  0.00  0.00    -0.004 C 
ATOM     19  C   UNL     1      34.951 -20.212 -23.715  0.00  0.00    +0.031 C 
BRANCH  13  22
ATOM     20  O   UNL     1      34.719 -14.282 -21.139  0.00  0.00    -0.270 OA
ATOM     21  N   UNL     1      34.391 -13.756 -23.371  0.00  0.00    -0.302 N 
ATOM     22  C   UNL     1      34.614 -14.655 -22.321  0.00  0.00    +0.246 C 
ATOM     23  H   UNL     1      34.317 -14.115 -24.286  0.00  0.00    +0.150 HD
BRANCH  21  24
ATOM     24  C   UNL     1      34.263 -12.337 -23.183  0.00  0.00    +0.072 C 
ATOM     25  C   UNL     1      33.523 -11.486 -24.172  0.00  0.00    +0.021 C 
ATOM     26  C   UNL     1      32.950 -11.720 -22.804  0.00  0.00    +0.021 C 
ENDBRANCH  21  24
ENDBRANCH  13  22
ENDBRANCH   4  16
BRANCH   1  27
ATOM     27  C   UNL     1      35.254 -24.061 -15.808  0.00  0.00    +0.075 C 
BRANCH  27  28
ATOM     28  C   UNL     1      35.505 -23.288 -14.519  0.00  0.00    -0.055 C 
BRANCH  28  30
ATOM     29  O   UNL     1      38.949 -24.372 -12.380  0.00  0.00    -0.358 OA
ATOM     30  N   UNL     1      36.430 -24.022 -13.659  0.00  0.00    +0.391 N 
ATOM     31  C   UNL     1      36.824 -23.206 -12.501  0.00  0.00    -0.045 C 
ATOM     32  C   UNL     1      37.622 -24.440 -14.410  0.00  0.00    -0.045 C 
ATOM     33  C   UNL     1      37.799 -23.987 -11.625  0.00  0.00    +0.119 C 
ATOM     34  C   UNL     1      38.577 -25.193 -13.488  0.00  0.00    +0.119 C 
ATOM     35  H   UNL     1      35.948 -24.855 -13.320  0.00  0.00    -0.079 HD
ENDBRANCH  28  30
ENDBRANCH  27  28
ENDBRANCH   1  27
TORSDOF 6
ENDMDL
MODEL 5
REMARK VINA RESULT:     -11.5      2.230      4.177
REMARK  Name = 24963046
REMARK  6 active torsions:
REMARK  status: ('A' for Active; 'I' for Inactive)
REMARK    1  A    between atoms: N_1  and  C_27
REMARK    2  A    between atoms: C_4  and  C_16
REMARK    3  A    between atoms: C_13  and  C_22
REMARK    4  A    between atoms: N_21  and  C_24
REMARK    5  A    between atoms: C_27  and  C_28
REMARK    6  A    between atoms: C_28  and  N_30
REMARK                            x       y       z     vdW  Elec       q    Type
REMARK                         _______ _______ _______ _____ _____    ______ ____
ROOT
ATOM      1  N   UNL     1      33.847 -19.084 -22.711  0.00  0.00    -0.270 N 
ATOM      2  N   UNL     1      35.108 -19.959 -20.966  0.00  0.00    -0.338 NA
ATOM      3  N   UNL     1      32.707 -20.164 -21.004  0.00  0.00    -0.170 NA
ATOM      4  C   UNL     1      35.276 -22.007 -17.340  0.00  0.00    -0.000 C 
ATOM      5  C   UNL     1      34.046 -21.778 -17.949  0.00  0.00    +0.004 C 
ATOM      6  C   UNL     1      33.985 -21.086 -19.172  0.00  0.00    +0.050 C 
ATOM      7  C   UNL     1      33.887 -19.766 -21.506  0.00  0.00    +0.145 C 
ATOM      8  C   UNL     1      36.440 -21.551 -17.949  0.00  0.00    +0.003 C 
ATOM      9  C   UNL     1      35.154 -20.620 -19.797  0.00  0.00    +0.146 C 
ATOM     10  C   UNL     1      36.371 -20.865 -19.165  0.00  0.00    +0.033 C 
ATOM     11  C   UNL     1      32.789 -20.824 -19.832  0.00  0.00    +0.114 C 
ATOM     12  H   UNL     1      32.968 -18.930 -23.129  0.00  0.00    +0.159 HD
ENDROOT
BRANCH   4  16
ATOM     13  C   UNL     1      34.199 -23.827 -14.266  0.00  0.00    +0.053 C 
ATOM     14  C   UNL     1      34.158 -23.141 -15.480  0.00  0.00    +0.004 C 
ATOM     15  C   UNL     1      35.423 -24.090 -13.654  0.00  0.00    +0.004 C 
ATOM     16  C   UNL     1      35.343 -22.717 -16.081  0.00  0.00    -0.004 C 
ATOM     17  C   UNL     1      36.569 -22.979 -15.468  0.00  0.00    -0.022 C 
ATOM     18  C   UNL     1      36.609 -23.666 -14.255  0.00  0.00    -0.004 C 
ATOM     19  C   UNL     1      37.860 -22.541 -16.083  0.00  0.00    +0.031 C 
BRANCH  13  22
ATOM     20  O   UNL     1      32.960 -24.681 -12.465  0.00  0.00    -0.270 OA
ATOM     21  N   UNL     1      31.802 -24.228 -14.420  0.00  0.00    -0.302 N 
ATOM     22  C   UNL     1      32.963 -24.270 -13.639  0.00  0.00    +0.246 C 
ATOM     23  H   UNL     1      31.871 -23.892 -15.343  0.00  0.00    +0.150 HD
BRANCH  21  24
ATOM     24  C   UNL     1      30.514 -24.653 -13.943  0.00  0.00    +0.072 C 
ATOM     25  C   UNL     1      29.252 -24.236 -14.638  0.00  0.00    +0.021 C 
ATOM     26  C   UNL     1      29.704 -25.666 -14.695  0.00  0.00    +0.021 C 
ENDBRANCH  21  24
ENDBRANCH  13  22
ENDBRANCH   4  16
BRANCH   1  27
ATOM     27  C   UNL     1      35.019 -18.587 -23.391  0.00  0.00    +0.075 C 
BRANCH  27  28
ATOM     28  C   UNL     1      34.620 -17.478 -24.356  0.00  0.00    -0.055 C 
BRANCH  28  30
ATOM     29  O   UNL     1      34.390 -13.617 -22.726  0.00  0.00    -0.358 OA
ATOM     30  N   UNL     1      34.145 -16.309 -23.619  0.00  0.00    +0.391 N 
ATOM     31  C   UNL     1      33.922 -15.175 -24.528  0.00  0.00    -0.045 C 
ATOM     32  C   UNL     1      35.099 -15.932 -22.567  0.00  0.00    -0.045 C 
ATOM     33  C   UNL     1      33.439 -13.964 -23.735  0.00  0.00    +0.119 C 
ATOM     34  C   UNL     1      34.587 -14.703 -21.820  0.00  0.00    +0.119 C 
ATOM     35  H   UNL     1      33.257 -16.555 -23.182  0.00  0.00    -0.079 HD
ENDBRANCH  28  30
ENDBRANCH  27  28
ENDBRANCH   1  27
TORSDOF 6
ENDMDL
MODEL 6
REMARK VINA RESULT:     -11.3      1.388      2.208
REMARK  Name = 24963046
REMARK  6 active torsions:
REMARK  status: ('A' for Active; 'I' for Inactive)
REMARK    1  A    between atoms: N_1  and  C_27
REMARK    2  A    between atoms: C_4  and  C_16
REMARK    3  A    between atoms: C_13  and  C_22
REMARK    4  A    between atoms: N_21  and  C_24
REMARK    5  A    between atoms: C_27  and  C_28
REMARK    6  A    between atoms: C_28  and  N_30
REMARK                            x       y       z     vdW  Elec       q    Type
REMARK                         _______ _______ _______ _____ _____    ______ ____
ROOT
ATOM      1  N   UNL     1      34.188 -19.083 -22.462  0.00  0.00    -0.270 N 
ATOM      2  N   UNL     1      35.125 -20.158 -20.627  0.00  0.00    -0.338 NA
ATOM      3  N   UNL     1      32.745 -20.166 -21.004  0.00  0.00    -0.170 NA
ATOM      4  C   UNL     1      34.634 -22.422 -17.162  0.00  0.00    -0.000 C 
ATOM      5  C   UNL     1      33.521 -22.058 -17.915  0.00  0.00    +0.004 C 
ATOM      6  C   UNL     1      33.683 -21.294 -19.084  0.00  0.00    +0.050 C 
ATOM      7  C   UNL     1      34.009 -19.836 -21.313  0.00  0.00    +0.145 C 
ATOM      8  C   UNL     1      35.901 -22.026 -17.575  0.00  0.00    +0.003 C 
ATOM      9  C   UNL     1      34.959 -20.888 -19.511  0.00  0.00    +0.146 C 
ATOM     10  C   UNL     1      36.054 -21.267 -18.739  0.00  0.00    +0.033 C 
ATOM     11  C   UNL     1      32.614 -20.898 -19.881  0.00  0.00    +0.114 C 
ATOM     12  H   UNL     1      33.390 -18.834 -22.983  0.00  0.00    +0.159 HD
ENDROOT
BRANCH   4  16
ATOM     13  C   UNL     1      35.462 -24.561 -14.220  0.00  0.00    +0.053 C 
ATOM     14  C   UNL     1      35.594 -23.800 -15.381  0.00  0.00    +0.004 C 
ATOM     15  C   UNL     1      34.208 -24.729 -13.635  0.00  0.00    +0.004 C 
ATOM     16  C   UNL     1      34.472 -23.207 -15.958  0.00  0.00    -0.004 C 
ATOM     17  C   UNL     1      33.216 -23.376 -15.373  0.00  0.00    -0.022 C 
ATOM     18  C   UNL     1      33.084 -24.136 -14.211  0.00  0.00    -0.004 C 
ATOM     19  C   UNL     1      31.990 -22.755 -15.963  0.00  0.00    +0.031 C 
BRANCH  13  22
ATOM     20  O   UNL     1      36.711 -25.321 -12.384  0.00  0.00    -0.270 OA
ATOM     21  N   UNL     1      37.657 -25.582 -14.483  0.00  0.00    -0.302 N 
ATOM     22  C   UNL     1      36.633 -25.180 -13.617  0.00  0.00    +0.246 C 
ATOM     23  H   UNL     1      37.534 -25.442 -15.450  0.00  0.00    +0.150 HD
BRANCH  21  24
ATOM     24  C   UNL     1      38.880 -26.187 -14.031  0.00  0.00    +0.072 C 
ATOM     25  C   UNL     1      40.142 -26.081 -14.835  0.00  0.00    +0.021 C 
ATOM     26  C   UNL     1      40.020 -25.352 -13.529  0.00  0.00    +0.021 C 
ENDBRANCH  21  24
ENDBRANCH  13  22
ENDBRANCH   4  16
BRANCH   1  27
ATOM     27  C   UNL     1      35.477 -18.643 -22.940  0.00  0.00    +0.075 C 
BRANCH  27  28
ATOM     28  C   UNL     1      35.777 -17.251 -22.398  0.00  0.00    -0.055 C 
BRANCH  28  30
ATOM     29  O   UNL     1      33.845 -13.812 -23.830  0.00  0.00    -0.358 OA
ATOM     30  N   UNL     1      34.732 -16.313 -22.800  0.00  0.00    +0.391 N 
ATOM     31  C   UNL     1      34.845 -15.987 -24.229  0.00  0.00    -0.045 C 
ATOM     32  C   UNL     1      34.795 -15.085 -21.996  0.00  0.00    -0.045 C 
ATOM     33  C   UNL     1      33.753 -14.998 -24.623  0.00  0.00    +0.119 C 
ATOM     34  C   UNL     1      33.702 -14.117 -22.442  0.00  0.00    +0.119 C 
ATOM     35  H   UNL     1      33.830 -16.763 -22.640  0.00  0.00    -0.079 HD
ENDBRANCH  28  30
ENDBRANCH  27  28
ENDBRANCH   1  27
TORSDOF 6
ENDMDL
MODEL 7
REMARK VINA RESULT:     -11.1      3.986     12.955
REMARK  Name = 24963046
REMARK  6 active torsions:
REMARK  status: ('A' for Active; 'I' for Inactive)
REMARK    1  A    between atoms: N_1  and  C_27
REMARK    2  A    between atoms: C_4  and  C_16
REMARK    3  A    between atoms: C_13  and  C_22
REMARK    4  A    between atoms: N_21  and  C_24
REMARK    5  A    between atoms: C_27  and  C_28
REMARK    6  A    between atoms: C_28  and  N_30
REMARK                            x       y       z     vdW  Elec       q    Type
REMARK                         _______ _______ _______ _____ _____    ______ ____
ROOT
ATOM      1  N   UNL     1      35.112 -18.331 -23.560  0.00  0.00    -0.270 N 
ATOM      2  N   UNL     1      34.756 -16.322 -22.447  0.00  0.00    -0.338 NA
ATOM      3  N   UNL     1      34.239 -16.568 -24.788  0.00  0.00    -0.170 NA
ATOM      4  C   UNL     1      33.474 -12.357 -22.528  0.00  0.00    -0.000 C 
ATOM      5  C   UNL     1      33.423 -13.125 -23.688  0.00  0.00    +0.004 C 
ATOM      6  C   UNL     1      33.855 -14.463 -23.664  0.00  0.00    +0.050 C 
ATOM      7  C   UNL     1      34.683 -17.015 -23.602  0.00  0.00    +0.145 C 
ATOM      8  C   UNL     1      33.952 -12.922 -21.351  0.00  0.00    +0.003 C 
ATOM      9  C   UNL     1      34.341 -15.044 -22.481  0.00  0.00    +0.146 C 
ATOM     10  C   UNL     1      34.379 -14.253 -21.336  0.00  0.00    +0.033 C 
ATOM     11  C   UNL     1      33.830 -15.284 -24.787  0.00  0.00    +0.114 C 
ATOM     12  H   UNL     1      35.069 -18.861 -24.390  0.00  0.00    +0.159 HD
ENDROOT
BRANCH   4  16
ATOM     13  C   UNL     1      33.381  -8.703 -23.275  0.00  0.00    +0.053 C 
ATOM     14  C   UNL     1      33.788 -10.037 -23.242  0.00  0.00    +0.004 C 
ATOM     15  C   UNL     1      32.216  -8.313 -22.615  0.00  0.00    +0.004 C 
ATOM     16  C   UNL     1      33.032 -10.980 -22.548  0.00  0.00    -0.004 C 
ATOM     17  C   UNL     1      31.866 -10.590 -21.887  0.00  0.00    -0.022 C 
ATOM     18  C   UNL     1      31.458  -9.256 -21.921  0.00  0.00    -0.004 C 
ATOM     19  C   UNL     1      31.028 -11.573 -21.133  0.00  0.00    +0.031 C 
BRANCH  13  22
ATOM     20  O   UNL     1      35.131  -8.071 -24.705  0.00  0.00    -0.270 OA
ATOM     21  N   UNL     1      33.809  -6.374 -23.845  0.00  0.00    -0.302 N 
ATOM     22  C   UNL     1      34.170  -7.718 -23.999  0.00  0.00    +0.246 C 
ATOM     23  H   UNL     1      33.037  -6.160 -23.271  0.00  0.00    +0.150 HD
BRANCH  21  24
ATOM     24  C   UNL     1      34.507  -5.291 -24.481  0.00  0.00    +0.072 C 
ATOM     25  C   UNL     1      34.339  -5.011 -25.945  0.00  0.00    +0.021 C 
ATOM     26  C   UNL     1      33.782  -4.057 -24.928  0.00  0.00    +0.021 C 
ENDBRANCH  21  24
ENDBRANCH  13  22
ENDBRANCH   4  16
BRANCH   1  27
ATOM     27  C   UNL     1      35.618 -18.972 -22.370  0.00  0.00    +0.075 C 
BRANCH  27  28
ATOM     28  C   UNL     1      34.455 -19.395 -21.482  0.00  0.00    -0.055 C 
BRANCH  28  30
ATOM     29  O   UNL     1      35.425 -21.695 -18.108  0.00  0.00    -0.358 OA
ATOM     30  N   UNL     1      34.845 -20.520 -20.634  0.00  0.00    +0.391 N 
ATOM     31  C   UNL     1      33.779 -20.844 -19.676  0.00  0.00    -0.045 C 
ATOM     32  C   UNL     1      36.095 -20.226 -19.919  0.00  0.00    -0.045 C 
ATOM     33  C   UNL     1      34.214 -22.012 -18.795  0.00  0.00    +0.119 C 
ATOM     34  C   UNL     1      36.475 -21.410 -19.034  0.00  0.00    +0.119 C 
ATOM     35  H   UNL     1      34.996 -21.328 -21.239  0.00  0.00    -0.079 HD
ENDBRANCH  28  30
ENDBRANCH  27  28
ENDBRANCH   1  27
TORSDOF 6
ENDMDL
MODEL 8
REMARK VINA RESULT:     -10.8      5.626     14.097
REMARK  Name = 24963046
REMARK  6 active torsions:
REMARK  status: ('A' for Active; 'I' for Inactive)
REMARK    1  A    between atoms: N_1  and  C_27
REMARK    2  A    between atoms: C_4  and  C_16
REMARK    3  A    between atoms: C_13  and  C_22
REMARK    4  A    between atoms: N_21  and  C_24
REMARK    5  A    between atoms: C_27  and  C_28
REMARK    6  A    between atoms: C_28  and  N_30
REMARK                            x       y       z     vdW  Elec       q    Type
REMARK                         _______ _______ _______ _____ _____    ______ ____
ROOT
ATOM      1  N   UNL     1      33.924 -15.152 -24.744  0.00  0.00    -0.270 N 
ATOM      2  N   UNL     1      33.091 -13.727 -23.107  0.00  0.00    -0.338 NA
ATOM      3  N   UNL     1      34.091 -12.870 -25.126  0.00  0.00    -0.170 NA
ATOM      4  C   UNL     1      32.376  -9.849 -21.756  0.00  0.00    -0.000 C 
ATOM      5  C   UNL     1      32.992 -10.051 -22.988  0.00  0.00    +0.004 C 
ATOM      6  C   UNL     1      33.236 -11.358 -23.446  0.00  0.00    +0.050 C 
ATOM      7  C   UNL     1      33.693 -13.858 -24.308  0.00  0.00    +0.145 C 
ATOM      8  C   UNL     1      32.003 -10.947 -20.988  0.00  0.00    +0.003 C 
ATOM      9  C   UNL     1      32.864 -12.474 -22.679  0.00  0.00    +0.146 C 
ATOM     10  C   UNL     1      32.248 -12.242 -21.451  0.00  0.00    +0.033 C 
ATOM     11  C   UNL     1      33.847 -11.628 -24.666  0.00  0.00    +0.114 C 
ATOM     12  H   UNL     1      34.361 -15.277 -25.618  0.00  0.00    +0.159 HD
ENDROOT
BRANCH   4  16
ATOM     13  C   UNL     1      31.673  -6.185 -21.772  0.00  0.00    +0.053 C 
ATOM     14  C   UNL     1      31.918  -7.488 -22.209  0.00  0.00    +0.004 C 
ATOM     15  C   UNL     1      31.635  -5.903 -20.408  0.00  0.00    +0.004 C 
ATOM     16  C   UNL     1      32.125  -8.507 -21.280  0.00  0.00    -0.004 C 
ATOM     17  C   UNL     1      32.087  -8.224 -19.914  0.00  0.00    -0.022 C 
ATOM     18  C   UNL     1      31.842  -6.922 -19.478  0.00  0.00    -0.004 C 
ATOM     19  C   UNL     1      32.304  -9.291 -18.888  0.00  0.00    +0.031 C 
BRANCH  13  22
ATOM     20  O   UNL     1      30.732  -4.150 -22.463  0.00  0.00    -0.270 OA
ATOM     21  N   UNL     1      32.081  -5.258 -23.987  0.00  0.00    -0.302 N 
ATOM     22  C   UNL     1      31.457  -5.122 -22.741  0.00  0.00    +0.246 C 
ATOM     23  H   UNL     1      32.643  -6.052 -24.144  0.00  0.00    +0.150 HD
BRANCH  21  24
ATOM     24  C   UNL     1      31.943  -4.299 -25.048  0.00  0.00    +0.072 C 
ATOM     25  C   UNL     1      32.939  -3.192 -25.230  0.00  0.00    +0.021 C 
ATOM     26  C   UNL     1      32.867  -4.310 -26.229  0.00  0.00    +0.021 C 
ENDBRANCH  21  24
ENDBRANCH  13  22
ENDBRANCH   4  16
BRANCH   1  27
ATOM     27  C   UNL     1      33.560 -16.329 -23.991  0.00  0.00    +0.075 C 
BRANCH  27  28
ATOM     28  C   UNL     1      34.465 -17.489 -24.385  0.00  0.00    -0.055 C 
BRANCH  28  30
ATOM     29  O   UNL     1      35.099 -18.742 -20.429  0.00  0.00    -0.358 OA
ATOM     30  N   UNL     1      35.079 -18.081 -23.198  0.00  0.00    +0.391 N 
ATOM     31  C   UNL     1      34.239 -19.161 -22.660  0.00  0.00    -0.045 C 
ATOM     32  C   UNL     1      35.311 -17.061 -22.166  0.00  0.00    -0.045 C 
ATOM     33  C   UNL     1      34.893 -19.755 -21.416  0.00  0.00    +0.119 C 
ATOM     34  C   UNL     1      35.941 -17.705 -20.935  0.00  0.00    +0.119 C 
ATOM     35  H   UNL     1      35.978 -18.476 -23.476  0.00  0.00    -0.079 HD
ENDBRANCH  28  30
ENDBRANCH  27  28
ENDBRANCH   1  27
TORSDOF 6
ENDMDL
MODEL 9
REMARK VINA RESULT:     -10.6      2.357     10.969
REMARK  Name = 24963046
REMARK  6 active torsions:
REMARK  status: ('A' for Active; 'I' for Inactive)
REMARK    1  A    between atoms: N_1  and  C_27
REMARK    2  A    between atoms: C_4  and  C_16
REMARK    3  A    between atoms: C_13  and  C_22
REMARK    4  A    between atoms: N_21  and  C_24
REMARK    5  A    between atoms: C_27  and  C_28
REMARK    6  A    between atoms: C_28  and  N_30
REMARK                            x       y       z     vdW  Elec       q    Type
REMARK                         _______ _______ _______ _____ _____    ______ ____
ROOT
ATOM      1  N   UNL     1      37.385 -24.961 -12.533  0.00  0.00    -0.270 N 
ATOM      2  N   UNL     1      37.423 -23.671 -14.466  0.00  0.00    -0.338 NA
ATOM      3  N   UNL     1      35.357 -24.535 -13.576  0.00  0.00    -0.170 NA
ATOM      4  C   UNL     1      35.370 -21.856 -17.607  0.00  0.00    -0.000 C 
ATOM      5  C   UNL     1      34.669 -22.584 -16.650  0.00  0.00    +0.004 C 
ATOM      6  C   UNL     1      35.358 -23.198 -15.589  0.00  0.00    +0.050 C 
ATOM      7  C   UNL     1      36.689 -24.363 -13.571  0.00  0.00    +0.145 C 
ATOM      8  C   UNL     1      36.752 -21.741 -17.504  0.00  0.00    +0.003 C 
ATOM      9  C   UNL     1      36.754 -23.089 -15.476  0.00  0.00    +0.146 C 
ATOM     10  C   UNL     1      37.430 -22.354 -16.447  0.00  0.00    +0.033 C 
ATOM     11  C   UNL     1      34.718 -23.939 -14.601  0.00  0.00    +0.114 C 
ATOM     12  H   UNL     1      36.873 -25.472 -11.864  0.00  0.00    +0.159 HD
ENDROOT
BRANCH   4  16
ATOM     13  C   UNL     1      34.715 -19.785 -20.640  0.00  0.00    +0.053 C 
ATOM     14  C   UNL     1      35.374 -20.405 -19.578  0.00  0.00    +0.004 C 
ATOM     15  C   UNL     1      33.348 -19.985 -20.824  0.00  0.00    +0.004 C 
ATOM     16  C   UNL     1      34.665 -21.224 -18.700  0.00  0.00    -0.004 C 
ATOM     17  C   UNL     1      33.296 -21.424 -18.884  0.00  0.00    -0.022 C 
ATOM     18  C   UNL     1      32.638 -20.805 -19.946  0.00  0.00    -0.004 C 
ATOM     19  C   UNL     1      32.503 -22.295 -17.963  0.00  0.00    +0.031 C 
BRANCH  13  22
ATOM     20  O   UNL     1      36.698 -18.933 -21.562  0.00  0.00    -0.270 OA
ATOM     21  N   UNL     1      34.704 -18.106 -22.403  0.00  0.00    -0.302 N 
ATOM     22  C   UNL     1      35.454 -18.931 -21.556  0.00  0.00    +0.246 C 
ATOM     23  H   UNL     1      33.721 -18.151 -22.350  0.00  0.00    +0.150 HD
BRANCH  21  24
ATOM     24  C   UNL     1      35.295 -17.195 -23.345  0.00  0.00    +0.072 C 
ATOM     25  C   UNL     1      34.477 -16.562 -24.431  0.00  0.00    +0.021 C 
ATOM     26  C   UNL     1      34.995 -15.727 -23.297  0.00  0.00    +0.021 C 
ENDBRANCH  21  24
ENDBRANCH  13  22
ENDBRANCH   4  16
BRANCH   1  27
ATOM     27  C   UNL     1      38.817 -24.877 -12.375  0.00  0.00    +0.075 C 
BRANCH  27  28
ATOM     28  C   UNL     1      39.491 -25.932 -13.243  0.00  0.00    -0.055 C 
BRANCH  28  30
ATOM     29  O   UNL     1      37.674 -29.276 -15.011  0.00  0.00    -0.358 OA
ATOM     30  N   UNL     1      38.491 -26.814 -13.840  0.00  0.00    +0.391 N 
ATOM     31  C   UNL     1      38.317 -28.028 -13.031  0.00  0.00    -0.045 C 
ATOM     32  C   UNL     1      38.867 -27.173 -15.215  0.00  0.00    -0.045 C 
ATOM     33  C   UNL     1      37.279 -28.938 -13.681  0.00  0.00    +0.119 C 
ATOM     34  C   UNL     1      37.814 -28.102 -15.813  0.00  0.00    +0.119 C 
ATOM     35  H   UNL     1      37.605 -26.309 -13.865  0.00  0.00    -0.079 HD
ENDBRANCH  28  30
ENDBRANCH  27  28
ENDBRANCH   1  27
TORSDOF 6
ENDMDL
