MODEL 1
REMARK VINA RESULT:     -11.2      0.000      0.000
REMARK  Name = 17754438
REMARK  6 active torsions:
REMARK  status: ('A' for Active; 'I' for Inactive)
REMARK    1  A    between atoms: N_1  and  C_19
REMARK    2  A    between atoms: C_7  and  C_12
REMARK    3  A    between atoms: N_10  and  C_15
REMARK    4  A    between atoms: C_15  and  C_16
REMARK    5  A    between atoms: C_16  and  O_17
REMARK    6  A    between atoms: C_19  and  C_21
REMARK                            x       y       z     vdW  Elec       q    Type
REMARK                         _______ _______ _______ _____ _____    ______ ____
ROOT
ATOM      1  N   UNL     1      34.562 -20.579 -19.972  0.00  0.00    -0.163 N 
ATOM      2  N   UNL     1      35.493 -21.590 -17.952  0.00  0.00    -0.378 NA
ATOM      3  N   UNL     1      33.359 -20.557 -20.581  0.00  0.00    -0.033 NA
ATOM      4  N   UNL     1      32.766 -22.550 -17.767  0.00  0.00    -0.208 NA
ATOM      5  N   UNL     1      32.518 -21.288 -19.849  0.00  0.00    -0.086 NA
ATOM      6  C   UNL     1      34.520 -21.323 -18.836  0.00  0.00    +0.267 C 
ATOM      7  C   UNL     1      35.035 -22.376 -16.950  0.00  0.00    +0.140 C 
ATOM      8  C   UNL     1      33.211 -21.764 -18.776  0.00  0.00    +0.098 C 
ATOM      9  C   UNL     1      33.729 -22.836 -16.861  0.00  0.00    +0.195 C 
ENDROOT
BRANCH   7  12
ATOM     10  N   UNL     1      36.871 -23.541 -14.116  0.00  0.00    -0.208 N 
ATOM     11  N   UNL     1      37.922 -22.984 -14.742  0.00  0.00    -0.176 NA
ATOM     12  C   UNL     1      35.996 -22.726 -15.944  0.00  0.00    +0.064 C 
ATOM     13  C   UNL     1      35.694 -23.413 -14.794  0.00  0.00    +0.088 C 
ATOM     14  C   UNL     1      37.381 -22.488 -15.859  0.00  0.00    +0.121 C 
BRANCH  10  15
ATOM     15  C   UNL     1      37.060 -24.197 -12.845  0.00  0.00    +0.148 C 
BRANCH  15  16
ATOM     16  C   UNL     1      36.967 -23.233 -11.670  0.00  0.00    +0.161 C 
BRANCH  16  17
ATOM     17  O   UNL     1      38.139 -22.431 -11.614  0.00  0.00    -0.380 OA
ATOM     18  H   UNL     1      38.659 -22.560 -12.422  0.00  0.00    +0.211 HD
ENDBRANCH  16  17
ENDBRANCH  15  16
ENDBRANCH  10  15
ENDBRANCH   7  12
BRANCH   1  19
ATOM     19  C   UNL     1      35.704 -19.858 -20.545  0.00  0.00    +0.145 C 
BRANCH  19  21
ATOM     20  N   UNL     1      34.116 -16.450 -24.775  0.00  0.00    -0.244 NA
ATOM     21  C   UNL     1      35.288 -18.952 -21.654  0.00  0.00    -0.000 C 
ATOM     22  C   UNL     1      35.251 -17.575 -21.456  0.00  0.00    -0.001 C 
ATOM     23  C   UNL     1      34.859 -16.717 -22.499  0.00  0.00    +0.017 C 
ATOM     24  C   UNL     1      34.932 -19.478 -22.890  0.00  0.00    -0.001 C 
ATOM     25  C   UNL     1      34.498 -17.244 -23.756  0.00  0.00    +0.081 C 
ATOM     26  C   UNL     1      34.543 -18.625 -23.926  0.00  0.00    +0.019 C 
ATOM     27  C   UNL     1      34.815 -15.327 -22.327  0.00  0.00    +0.003 C 
ATOM     28  C   UNL     1      34.422 -14.507 -23.376  0.00  0.00    +0.021 C 
ATOM     29  C   UNL     1      34.087 -15.114 -24.568  0.00  0.00    +0.099 C 
ENDBRANCH  19  21
ENDBRANCH   1  19
TORSDOF 6
ENDMDL
MODEL 2
REMARK VINA RESULT:     -10.8      4.288      9.989
REMARK  Name = 17754438
REMARK  6 active torsions:
REMARK  status: ('A' for Active; 'I' for Inactive)
REMARK    1  A    between atoms: N_1  and  C_19
REMARK    2  A    between atoms: C_7  and  C_12
REMARK    3  A    between atoms: N_10  and  C_15
REMARK    4  A    between atoms: C_15  and  C_16
REMARK    5  A    between atoms: C_16  and  O_17
REMARK    6  A    between atoms: C_19  and  C_21
REMARK                            x       y       z     vdW  Elec       q    Type
REMARK                         _______ _______ _______ _____ _____    ______ ____
ROOT
ATOM      1  N   UNL     1      35.530 -18.627 -22.496  0.00  0.00    -0.163 N 
ATOM      2  N   UNL     1      34.897 -16.279 -22.742  0.00  0.00    -0.378 NA
ATOM      3  N   UNL     1      35.281 -19.774 -23.158  0.00  0.00    -0.033 NA
ATOM      4  N   UNL     1      33.490 -17.405 -25.011  0.00  0.00    -0.208 NA
ATOM      5  N   UNL     1      34.485 -19.486 -24.188  0.00  0.00    -0.086 NA
ATOM      6  C   UNL     1      34.902 -17.576 -23.086  0.00  0.00    +0.267 C 
ATOM      7  C   UNL     1      34.141 -15.554 -23.599  0.00  0.00    +0.140 C 
ATOM      8  C   UNL     1      34.243 -18.144 -24.160  0.00  0.00    +0.098 C 
ATOM      9  C   UNL     1      33.467 -16.093 -24.685  0.00  0.00    +0.195 C 
ENDROOT
BRANCH   7  12
ATOM     10  N   UNL     1      33.769 -12.001 -23.600  0.00  0.00    -0.208 N 
ATOM     11  N   UNL     1      34.112 -12.104 -22.304  0.00  0.00    -0.176 NA
ATOM     12  C   UNL     1      34.065 -14.148 -23.324  0.00  0.00    +0.064 C 
ATOM     13  C   UNL     1      33.726 -13.197 -24.255  0.00  0.00    +0.088 C 
ATOM     14  C   UNL     1      34.292 -13.418 -22.142  0.00  0.00    +0.121 C 
BRANCH  10  15
ATOM     15  C   UNL     1      33.485 -10.704 -24.165  0.00  0.00    +0.148 C 
BRANCH  15  16
ATOM     16  C   UNL     1      34.156  -9.573 -23.397  0.00  0.00    +0.161 C 
BRANCH  16  17
ATOM     17  O   UNL     1      35.563  -9.628 -23.595  0.00  0.00    -0.380 OA
ATOM     18  H   UNL     1      35.789 -10.432 -24.088  0.00  0.00    +0.211 HD
ENDBRANCH  16  17
ENDBRANCH  15  16
ENDBRANCH  10  15
ENDBRANCH   7  12
BRANCH   1  19
ATOM     19  C   UNL     1      36.385 -18.622 -21.304  0.00  0.00    +0.145 C 
BRANCH  19  21
ATOM     20  N   UNL     1      34.887 -22.614 -17.583  0.00  0.00    -0.244 NA
ATOM     21  C   UNL     1      35.980 -19.673 -20.327  0.00  0.00    -0.000 C 
ATOM     22  C   UNL     1      34.633 -19.957 -20.121  0.00  0.00    -0.001 C 
ATOM     23  C   UNL     1      34.248 -20.947 -19.200  0.00  0.00    +0.017 C 
ATOM     24  C   UNL     1      36.946 -20.373 -19.614  0.00  0.00    -0.001 C 
ATOM     25  C   UNL     1      35.223 -21.661 -18.474  0.00  0.00    +0.081 C 
ATOM     26  C   UNL     1      36.563 -21.356 -18.698  0.00  0.00    +0.019 C 
ATOM     27  C   UNL     1      32.900 -21.253 -18.975  0.00  0.00    +0.003 C 
ATOM     28  C   UNL     1      32.551 -22.235 -18.058  0.00  0.00    +0.021 C 
ATOM     29  C   UNL     1      33.575 -22.880 -17.395  0.00  0.00    +0.099 C 
ENDBRANCH  19  21
ENDBRANCH   1  19
TORSDOF 6
ENDMDL
MODEL 3
REMARK VINA RESULT:     -10.7      4.324      6.676
REMARK  Name = 17754438
REMARK  6 active torsions:
REMARK  status: ('A' for Active; 'I' for Inactive)
REMARK    1  A    between atoms: N_1  and  C_19
REMARK    2  A    between atoms: C_7  and  C_12
REMARK    3  A    between atoms: N_10  and  C_15
REMARK    4  A    between atoms: C_15  and  C_16
REMARK    5  A    between atoms: C_16  and  O_17
REMARK    6  A    between atoms: C_19  and  C_21
REMARK                            x       y       z     vdW  Elec       q    Type
REMARK                         _______ _______ _______ _____ _____    ______ ____
ROOT
ATOM      1  N   UNL     1      34.132 -23.194 -16.934  0.00  0.00    -0.163 N 
ATOM      2  N   UNL     1      31.749 -23.255 -16.396  0.00  0.00    -0.378 NA
ATOM      3  N   UNL     1      35.280 -23.046 -16.244  0.00  0.00    -0.033 NA
ATOM      4  N   UNL     1      32.840 -22.860 -13.741  0.00  0.00    -0.208 NA
ATOM      5  N   UNL     1      34.965 -22.900 -14.957  0.00  0.00    -0.086 NA
ATOM      6  C   UNL     1      33.054 -23.148 -16.107  0.00  0.00    +0.267 C 
ATOM      7  C   UNL     1      30.995 -23.154 -15.277  0.00  0.00    +0.140 C 
ATOM      8  C   UNL     1      33.606 -22.960 -14.854  0.00  0.00    +0.098 C 
ATOM      9  C   UNL     1      31.517 -22.965 -14.005  0.00  0.00    +0.195 C 
ENDROOT
BRANCH   7  12
ATOM     10  N   UNL     1      27.481 -22.695 -15.726  0.00  0.00    -0.208 N 
ATOM     11  N   UNL     1      27.454 -24.038 -15.784  0.00  0.00    -0.176 NA
ATOM     12  C   UNL     1      29.577 -23.255 -15.469  0.00  0.00    +0.064 C 
ATOM     13  C   UNL     1      28.729 -22.177 -15.539  0.00  0.00    +0.088 C 
ATOM     14  C   UNL     1      28.737 -24.374 -15.626  0.00  0.00    +0.121 C 
BRANCH  10  15
ATOM     15  C   UNL     1      26.254 -21.948 -15.862  0.00  0.00    +0.148 C 
BRANCH  15  16
ATOM     16  C   UNL     1      26.005 -21.491 -17.293  0.00  0.00    +0.161 C 
BRANCH  16  17
ATOM     17  O   UNL     1      26.004 -20.070 -17.350  0.00  0.00    -0.380 OA
ATOM     18  H   UNL     1      26.587 -19.774 -18.065  0.00  0.00    +0.211 HD
ENDBRANCH  16  17
ENDBRANCH  15  16
ENDBRANCH  10  15
ENDBRANCH   7  12
BRANCH   1  19
ATOM     19  C   UNL     1      34.153 -23.378 -18.390  0.00  0.00    +0.145 C 
BRANCH  19  21
ATOM     20  N   UNL     1      34.694 -18.453 -21.124  0.00  0.00    -0.244 NA
ATOM     21  C   UNL     1      34.306 -22.081 -19.111  0.00  0.00    -0.000 C 
ATOM     22  C   UNL     1      35.573 -21.555 -19.344  0.00  0.00    -0.001 C 
ATOM     23  C   UNL     1      35.721 -20.333 -20.023  0.00  0.00    +0.017 C 
ATOM     24  C   UNL     1      33.183 -21.390 -19.550  0.00  0.00    -0.001 C 
ATOM     25  C   UNL     1      34.587 -19.626 -20.472  0.00  0.00    +0.081 C 
ATOM     26  C   UNL     1      33.331 -20.175 -20.224  0.00  0.00    +0.019 C 
ATOM     27  C   UNL     1      36.985 -19.781 -20.271  0.00  0.00    +0.003 C 
ATOM     28  C   UNL     1      37.098 -18.572 -20.943  0.00  0.00    +0.021 C 
ATOM     29  C   UNL     1      35.931 -17.954 -21.345  0.00  0.00    +0.099 C 
ENDBRANCH  19  21
ENDBRANCH   1  19
TORSDOF 6
ENDMDL
MODEL 4
REMARK VINA RESULT:     -10.7      2.764      4.206
REMARK  Name = 17754438
REMARK  6 active torsions:
REMARK  status: ('A' for Active; 'I' for Inactive)
REMARK    1  A    between atoms: N_1  and  C_19
REMARK    2  A    between atoms: C_7  and  C_12
REMARK    3  A    between atoms: N_10  and  C_15
REMARK    4  A    between atoms: C_15  and  C_16
REMARK    5  A    between atoms: C_16  and  O_17
REMARK    6  A    between atoms: C_19  and  C_21
REMARK                            x       y       z     vdW  Elec       q    Type
REMARK                         _______ _______ _______ _____ _____    ______ ____
ROOT
ATOM      1  N   UNL     1      33.053 -23.308 -17.201  0.00  0.00    -0.163 N 
ATOM      2  N   UNL     1      34.939 -23.976 -15.798  0.00  0.00    -0.378 NA
ATOM      3  N   UNL     1      31.795 -22.872 -16.993  0.00  0.00    -0.033 NA
ATOM      4  N   UNL     1      33.007 -23.321 -13.741  0.00  0.00    -0.208 NA
ATOM      5  N   UNL     1      31.596 -22.814 -15.676  0.00  0.00    -0.086 NA
ATOM      6  C   UNL     1      33.690 -23.540 -16.023  0.00  0.00    +0.267 C 
ATOM      7  C   UNL     1      35.186 -24.073 -14.471  0.00  0.00    +0.140 C 
ATOM      8  C   UNL     1      32.747 -23.219 -15.066  0.00  0.00    +0.098 C 
ATOM      9  C   UNL     1      34.261 -23.759 -13.485  0.00  0.00    +0.195 C 
ENDROOT
BRANCH   7  12
ATOM     10  N   UNL     1      38.235 -25.832 -13.863  0.00  0.00    -0.208 N 
ATOM     11  N   UNL     1      38.640 -24.665 -13.332  0.00  0.00    -0.176 NA
ATOM     12  C   UNL     1      36.497 -24.532 -14.114  0.00  0.00    +0.064 C 
ATOM     13  C   UNL     1      36.959 -25.804 -14.345  0.00  0.00    +0.088 C 
ATOM     14  C   UNL     1      37.574 -23.875 -13.488  0.00  0.00    +0.121 C 
BRANCH  10  15
ATOM     15  C   UNL     1      39.135 -26.960 -13.883  0.00  0.00    +0.148 C 
BRANCH  15  16
ATOM     16  C   UNL     1      40.508 -26.601 -14.434  0.00  0.00    +0.161 C 
BRANCH  16  17
ATOM     17  O   UNL     1      40.363 -25.831 -15.620  0.00  0.00    -0.380 OA
ATOM     18  H   UNL     1      39.715 -26.255 -16.204  0.00  0.00    +0.211 HD
ENDBRANCH  16  17
ENDBRANCH  15  16
ENDBRANCH  10  15
ENDBRANCH   7  12
BRANCH   1  19
ATOM     19  C   UNL     1      33.571 -23.476 -18.563  0.00  0.00    +0.145 C 
BRANCH  19  21
ATOM     20  N   UNL     1      34.772 -18.500 -20.975  0.00  0.00    -0.244 NA
ATOM     21  C   UNL     1      33.897 -22.167 -19.198  0.00  0.00    -0.000 C 
ATOM     22  C   UNL     1      35.221 -21.749 -19.299  0.00  0.00    -0.001 C 
ATOM     23  C   UNL     1      35.533 -20.515 -19.896  0.00  0.00    +0.017 C 
ATOM     24  C   UNL     1      32.882 -21.356 -19.690  0.00  0.00    -0.001 C 
ATOM     25  C   UNL     1      34.507 -19.688 -20.398  0.00  0.00    +0.081 C 
ATOM     26  C   UNL     1      33.192 -20.130 -20.283  0.00  0.00    +0.019 C 
ATOM     27  C   UNL     1      36.857 -20.071 -20.012  0.00  0.00    +0.003 C 
ATOM     28  C   UNL     1      37.132 -18.847 -20.606  0.00  0.00    +0.021 C 
ATOM     29  C   UNL     1      36.063 -18.107 -21.067  0.00  0.00    +0.099 C 
ENDBRANCH  19  21
ENDBRANCH   1  19
TORSDOF 6
ENDMDL
MODEL 5
REMARK VINA RESULT:     -10.6      1.502      2.060
REMARK  Name = 17754438
REMARK  6 active torsions:
REMARK  status: ('A' for Active; 'I' for Inactive)
REMARK    1  A    between atoms: N_1  and  C_19
REMARK    2  A    between atoms: C_7  and  C_12
REMARK    3  A    between atoms: N_10  and  C_15
REMARK    4  A    between atoms: C_15  and  C_16
REMARK    5  A    between atoms: C_16  and  O_17
REMARK    6  A    between atoms: C_19  and  C_21
REMARK                            x       y       z     vdW  Elec       q    Type
REMARK                         _______ _______ _______ _____ _____    ______ ____
ROOT
ATOM      1  N   UNL     1      34.721 -21.439 -19.103  0.00  0.00    -0.163 N 
ATOM      2  N   UNL     1      35.472 -22.400 -16.985  0.00  0.00    -0.378 NA
ATOM      3  N   UNL     1      33.541 -21.293 -19.738  0.00  0.00    -0.033 NA
ATOM      4  N   UNL     1      32.631 -22.931 -16.782  0.00  0.00    -0.208 NA
ATOM      5  N   UNL     1      32.594 -21.827 -18.967  0.00  0.00    -0.086 NA
ATOM      6  C   UNL     1      34.558 -22.069 -17.910  0.00  0.00    +0.267 C 
ATOM      7  C   UNL     1      34.893 -23.022 -15.932  0.00  0.00    +0.140 C 
ATOM      8  C   UNL     1      33.199 -22.307 -17.843  0.00  0.00    +0.098 C 
ATOM      9  C   UNL     1      33.533 -23.276 -15.834  0.00  0.00    +0.195 C 
ENDROOT
BRANCH   7  12
ATOM     10  N   UNL     1      36.549 -24.394 -13.080  0.00  0.00    -0.208 N 
ATOM     11  N   UNL     1      37.600 -23.681 -13.521  0.00  0.00    -0.176 NA
ATOM     12  C   UNL     1      35.782 -23.422 -14.880  0.00  0.00    +0.064 C 
ATOM     13  C   UNL     1      35.436 -24.273 -13.859  0.00  0.00    +0.088 C 
ATOM     14  C   UNL     1      37.125 -23.089 -14.620  0.00  0.00    +0.121 C 
BRANCH  10  15
ATOM     15  C   UNL     1      36.676 -25.192 -11.884  0.00  0.00    +0.148 C 
BRANCH  15  16
ATOM     16  C   UNL     1      36.266 -24.432 -10.630  0.00  0.00    +0.161 C 
BRANCH  16  17
ATOM     17  O   UNL     1      35.357 -25.218  -9.869  0.00  0.00    -0.380 OA
ATOM     18  H   UNL     1      35.154 -26.034 -10.351  0.00  0.00    +0.211 HD
ENDBRANCH  16  17
ENDBRANCH  15  16
ENDBRANCH  10  15
ENDBRANCH   7  12
BRANCH   1  19
ATOM     19  C   UNL     1      35.962 -20.945 -19.708  0.00  0.00    +0.145 C 
BRANCH  19  21
ATOM     20  N   UNL     1      35.049 -16.536 -23.136  0.00  0.00    -0.244 NA
ATOM     21  C   UNL     1      35.715 -19.789 -20.617  0.00  0.00    -0.000 C 
ATOM     22  C   UNL     1      34.967 -19.959 -21.778  0.00  0.00    -0.001 C 
ATOM     23  C   UNL     1      34.733 -18.872 -22.638  0.00  0.00    +0.017 C 
ATOM     24  C   UNL     1      36.232 -18.536 -20.310  0.00  0.00    -0.001 C 
ATOM     25  C   UNL     1      35.254 -17.598 -22.333  0.00  0.00    +0.081 C 
ATOM     26  C   UNL     1      35.999 -17.456 -21.165  0.00  0.00    +0.019 C 
ATOM     27  C   UNL     1      33.983 -19.015 -23.813  0.00  0.00    +0.003 C 
ATOM     28  C   UNL     1      33.770 -17.923 -24.642  0.00  0.00    +0.021 C 
ATOM     29  C   UNL     1      34.319 -16.716 -24.261  0.00  0.00    +0.099 C 
ENDBRANCH  19  21
ENDBRANCH   1  19
TORSDOF 6
ENDMDL
MODEL 6
REMARK VINA RESULT:     -10.6      3.373      6.498
REMARK  Name = 17754438
REMARK  6 active torsions:
REMARK  status: ('A' for Active; 'I' for Inactive)
REMARK    1  A    between atoms: N_1  and  C_19
REMARK    2  A    between atoms: C_7  and  C_12
REMARK    3  A    between atoms: N_10  and  C_15
REMARK    4  A    between atoms: C_15  and  C_16
REMARK    5  A    between atoms: C_16  and  O_17
REMARK    6  A    between atoms: C_19  and  C_21
REMARK                            x       y       z     vdW  Elec       q    Type
REMARK                         _______ _______ _______ _____ _____    ______ ____
ROOT
ATOM      1  N   UNL     1      34.645 -15.514 -23.451  0.00  0.00    -0.163 N 
ATOM      2  N   UNL     1      35.115 -17.446 -22.032  0.00  0.00    -0.378 NA
ATOM      3  N   UNL     1      34.066 -15.309 -24.651  0.00  0.00    -0.033 NA
ATOM      4  N   UNL     1      33.827 -18.778 -24.259  0.00  0.00    -0.208 NA
ATOM      5  N   UNL     1      33.679 -16.493 -25.125  0.00  0.00    -0.086 NA
ATOM      6  C   UNL     1      34.642 -16.833 -23.127  0.00  0.00    +0.267 C 
ATOM      7  C   UNL     1      34.913 -18.782 -22.098  0.00  0.00    +0.140 C 
ATOM      8  C   UNL     1      34.023 -17.439 -24.204  0.00  0.00    +0.098 C 
ATOM      9  C   UNL     1      34.296 -19.421 -23.165  0.00  0.00    +0.195 C 
ENDROOT
BRANCH   7  12
ATOM     10  N   UNL     1      35.423 -20.935 -19.293  0.00  0.00    -0.208 N 
ATOM     11  N   UNL     1      36.669 -20.430 -19.309  0.00  0.00    -0.176 NA
ATOM     12  C   UNL     1      35.383 -19.540 -20.974  0.00  0.00    +0.064 C 
ATOM     13  C   UNL     1      34.613 -20.434 -20.270  0.00  0.00    +0.088 C 
ATOM     14  C   UNL     1      36.638 -19.579 -20.338  0.00  0.00    +0.121 C 
BRANCH  10  15
ATOM     15  C   UNL     1      35.059 -21.916 -18.299  0.00  0.00    +0.148 C 
BRANCH  15  16
ATOM     16  C   UNL     1      33.654 -22.465 -18.506  0.00  0.00    +0.161 C 
BRANCH  16  17
ATOM     17  O   UNL     1      33.726 -23.762 -19.084  0.00  0.00    -0.380 OA
ATOM     18  H   UNL     1      34.655 -24.001 -19.226  0.00  0.00    +0.211 HD
ENDBRANCH  16  17
ENDBRANCH  15  16
ENDBRANCH  10  15
ENDBRANCH   7  12
BRANCH   1  19
ATOM     19  C   UNL     1      35.176 -14.388 -22.675  0.00  0.00    +0.145 C 
BRANCH  19  21
ATOM     20  N   UNL     1      31.145 -10.628 -21.397  0.00  0.00    -0.244 NA
ATOM     21  C   UNL     1      34.117 -13.391 -22.346  0.00  0.00    -0.000 C 
ATOM     22  C   UNL     1      34.084 -12.163 -23.000  0.00  0.00    -0.001 C 
ATOM     23  C   UNL     1      33.087 -11.221 -22.692  0.00  0.00    +0.017 C 
ATOM     24  C   UNL     1      33.159 -13.682 -21.383  0.00  0.00    -0.001 C 
ATOM     25  C   UNL     1      32.112 -11.509 -21.716  0.00  0.00    +0.081 C 
ATOM     26  C   UNL     1      32.169 -12.745 -21.077  0.00  0.00    +0.019 C 
ATOM     27  C   UNL     1      33.031  -9.977 -23.337  0.00  0.00    +0.003 C 
ATOM     28  C   UNL     1      32.035  -9.067 -23.010  0.00  0.00    +0.021 C 
ATOM     29  C   UNL     1      31.125  -9.439 -22.042  0.00  0.00    +0.099 C 
ENDBRANCH  19  21
ENDBRANCH   1  19
TORSDOF 6
ENDMDL
MODEL 7
REMARK VINA RESULT:     -10.5      4.790     10.591
REMARK  Name = 17754438
REMARK  6 active torsions:
REMARK  status: ('A' for Active; 'I' for Inactive)
REMARK    1  A    between atoms: N_1  and  C_19
REMARK    2  A    between atoms: C_7  and  C_12
REMARK    3  A    between atoms: N_10  and  C_15
REMARK    4  A    between atoms: C_15  and  C_16
REMARK    5  A    between atoms: C_16  and  O_17
REMARK    6  A    between atoms: C_19  and  C_21
REMARK                            x       y       z     vdW  Elec       q    Type
REMARK                         _______ _______ _______ _____ _____    ______ ____
ROOT
ATOM      1  N   UNL     1      35.139 -16.497 -22.676  0.00  0.00    -0.163 N 
ATOM      2  N   UNL     1      34.350 -14.187 -22.775  0.00  0.00    -0.378 NA
ATOM      3  N   UNL     1      35.183 -17.545 -23.523  0.00  0.00    -0.033 NA
ATOM      4  N   UNL     1      33.684 -15.046 -25.460  0.00  0.00    -0.208 NA
ATOM      5  N   UNL     1      34.648 -17.157 -24.680  0.00  0.00    -0.086 NA
ATOM      6  C   UNL     1      34.575 -15.413 -23.270  0.00  0.00    +0.267 C 
ATOM      7  C   UNL     1      33.764 -13.391 -23.699  0.00  0.00    +0.140 C 
ATOM      8  C   UNL     1      34.270 -15.853 -24.544  0.00  0.00    +0.098 C 
ATOM      9  C   UNL     1      33.445 -13.802 -24.985  0.00  0.00    +0.195 C 
ENDROOT
BRANCH   7  12
ATOM     10  N   UNL     1      32.590 -10.370 -22.198  0.00  0.00    -0.208 N 
ATOM     11  N   UNL     1      33.457  -9.779 -23.039  0.00  0.00    -0.176 NA
ATOM     12  C   UNL     1      33.477 -12.051 -23.274  0.00  0.00    +0.064 C 
ATOM     13  C   UNL     1      32.564 -11.729 -22.299  0.00  0.00    +0.088 C 
ATOM     14  C   UNL     1      33.995 -10.811 -23.694  0.00  0.00    +0.121 C 
BRANCH  10  15
ATOM     15  C   UNL     1      31.800  -9.562 -21.299  0.00  0.00    +0.148 C 
BRANCH  15  16
ATOM     16  C   UNL     1      31.890  -8.076 -21.619  0.00  0.00    +0.161 C 
BRANCH  16  17
ATOM     17  O   UNL     1      33.077  -7.535 -21.053  0.00  0.00    -0.380 OA
ATOM     18  H   UNL     1      33.191  -7.875 -20.153  0.00  0.00    +0.211 HD
ENDBRANCH  16  17
ENDBRANCH  15  16
ENDBRANCH  10  15
ENDBRANCH   7  12
BRANCH   1  19
ATOM     19  C   UNL     1      35.660 -16.617 -21.310  0.00  0.00    +0.145 C 
BRANCH  19  21
ATOM     20  N   UNL     1      35.510 -21.956 -19.439  0.00  0.00    -0.244 NA
ATOM     21  C   UNL     1      35.610 -18.024 -20.818  0.00  0.00    -0.000 C 
ATOM     22  C   UNL     1      34.385 -18.636 -20.568  0.00  0.00    -0.001 C 
ATOM     23  C   UNL     1      34.334 -19.961 -20.103  0.00  0.00    +0.017 C 
ATOM     24  C   UNL     1      36.786 -18.732 -20.604  0.00  0.00    -0.001 C 
ATOM     25  C   UNL     1      35.524 -20.685 -19.885  0.00  0.00    +0.081 C 
ATOM     26  C   UNL     1      36.735 -20.049 -20.142  0.00  0.00    +0.019 C 
ATOM     27  C   UNL     1      33.114 -20.601 -19.845  0.00  0.00    +0.003 C 
ATOM     28  C   UNL     1      33.096 -21.910 -19.386  0.00  0.00    +0.021 C 
ATOM     29  C   UNL     1      34.312 -22.538 -19.202  0.00  0.00    +0.099 C 
ENDBRANCH  19  21
ENDBRANCH   1  19
TORSDOF 6
ENDMDL
MODEL 8
REMARK VINA RESULT:     -10.4      3.682      9.641
REMARK  Name = 17754438
REMARK  6 active torsions:
REMARK  status: ('A' for Active; 'I' for Inactive)
REMARK    1  A    between atoms: N_1  and  C_19
REMARK    2  A    between atoms: C_7  and  C_12
REMARK    3  A    between atoms: N_10  and  C_15
REMARK    4  A    between atoms: C_15  and  C_16
REMARK    5  A    between atoms: C_16  and  O_17
REMARK    6  A    between atoms: C_19  and  C_21
REMARK                            x       y       z     vdW  Elec       q    Type
REMARK                         _______ _______ _______ _____ _____    ______ ____
ROOT
ATOM      1  N   UNL     1      34.811 -21.297 -19.169  0.00  0.00    -0.163 N 
ATOM      2  N   UNL     1      34.612 -19.752 -21.051  0.00  0.00    -0.378 NA
ATOM      3  N   UNL     1      35.769 -21.626 -18.280  0.00  0.00    -0.033 NA
ATOM      4  N   UNL     1      37.338 -19.192 -20.246  0.00  0.00    -0.208 NA
ATOM      5  N   UNL     1      36.847 -20.891 -18.552  0.00  0.00    -0.086 NA
ATOM      6  C   UNL     1      35.251 -20.344 -20.032  0.00  0.00    +0.267 C 
ATOM      7  C   UNL     1      35.411 -18.849 -21.666  0.00  0.00    +0.140 C 
ATOM      8  C   UNL     1      36.548 -20.100 -19.622  0.00  0.00    +0.098 C 
ATOM      9  C   UNL     1      36.717 -18.581 -21.280  0.00  0.00    +0.195 C 
ENDROOT
BRANCH   7  12
ATOM     10  N   UNL     1      34.219 -16.538 -24.114  0.00  0.00    -0.208 N 
ATOM     11  N   UNL     1      33.722 -17.637 -24.708  0.00  0.00    -0.176 NA
ATOM     12  C   UNL     1      34.826 -18.154 -22.776  0.00  0.00    +0.064 C 
ATOM     13  C   UNL     1      34.889 -16.793 -22.954  0.00  0.00    +0.088 C 
ATOM     14  C   UNL     1      34.097 -18.621 -23.886  0.00  0.00    +0.121 C 
BRANCH  10  15
ATOM     15  C   UNL     1      34.018 -15.244 -24.721  0.00  0.00    +0.148 C 
BRANCH  15  16
ATOM     16  C   UNL     1      34.044 -14.112 -23.702  0.00  0.00    +0.161 C 
BRANCH  16  17
ATOM     17  O   UNL     1      32.718 -13.667 -23.446  0.00  0.00    -0.380 OA
ATOM     18  H   UNL     1      32.689 -13.212 -22.590  0.00  0.00    +0.211 HD
ENDBRANCH  16  17
ENDBRANCH  15  16
ENDBRANCH  10  15
ENDBRANCH   7  12
BRANCH   1  19
ATOM     19  C   UNL     1      33.495 -21.944 -19.124  0.00  0.00    +0.145 C 
BRANCH  19  21
ATOM     20  N   UNL     1      32.298 -23.847 -13.930  0.00  0.00    -0.244 NA
ATOM     21  C   UNL     1      33.169 -22.445 -17.757  0.00  0.00    -0.000 C 
ATOM     22  C   UNL     1      31.852 -22.451 -17.309  0.00  0.00    -0.001 C 
ATOM     23  C   UNL     1      31.541 -22.921 -16.022  0.00  0.00    +0.017 C 
ATOM     24  C   UNL     1      34.180 -22.906 -16.922  0.00  0.00    -0.001 C 
ATOM     25  C   UNL     1      32.561 -23.390 -15.169  0.00  0.00    +0.081 C 
ATOM     26  C   UNL     1      33.871 -23.373 -15.643  0.00  0.00    +0.019 C 
ATOM     27  C   UNL     1      30.223 -22.939 -15.546  0.00  0.00    +0.003 C 
ATOM     28  C   UNL     1      29.948 -23.408 -14.269  0.00  0.00    +0.021 C 
ATOM     29  C   UNL     1      31.012 -23.847 -13.509  0.00  0.00    +0.099 C 
ENDBRANCH  19  21
ENDBRANCH   1  19
TORSDOF 6
ENDMDL
MODEL 9
REMARK VINA RESULT:     -10.2      3.358      9.898
REMARK  Name = 17754438
REMARK  6 active torsions:
REMARK  status: ('A' for Active; 'I' for Inactive)
REMARK    1  A    between atoms: N_1  and  C_19
REMARK    2  A    between atoms: C_7  and  C_12
REMARK    3  A    between atoms: N_10  and  C_15
REMARK    4  A    between atoms: C_15  and  C_16
REMARK    5  A    between atoms: C_16  and  O_17
REMARK    6  A    between atoms: C_19  and  C_21
REMARK                            x       y       z     vdW  Elec       q    Type
REMARK                         _______ _______ _______ _____ _____    ______ ____
ROOT
ATOM      1  N   UNL     1      35.589 -22.309 -17.049  0.00  0.00    -0.163 N 
ATOM      2  N   UNL     1      35.439 -20.815 -18.977  0.00  0.00    -0.378 NA
ATOM      3  N   UNL     1      34.784 -23.213 -16.456  0.00  0.00    -0.033 NA
ATOM      4  N   UNL     1      32.826 -22.057 -19.116  0.00  0.00    -0.208 NA
ATOM      5  N   UNL     1      33.640 -23.249 -17.138  0.00  0.00    -0.086 NA
ATOM      6  C   UNL     1      34.982 -21.746 -18.126  0.00  0.00    +0.267 C 
ATOM      7  C   UNL     1      34.514 -20.525 -19.921  0.00  0.00    +0.140 C 
ATOM      8  C   UNL     1      33.743 -22.357 -18.165  0.00  0.00    +0.098 C 
ATOM      9  C   UNL     1      33.262 -21.120 -19.988  0.00  0.00    +0.195 C 
ENDROOT
BRANCH   7  12
ATOM     10  N   UNL     1      34.933 -18.330 -22.707  0.00  0.00    -0.208 N 
ATOM     11  N   UNL     1      35.952 -17.833 -21.985  0.00  0.00    -0.176 NA
ATOM     12  C   UNL     1      34.899 -19.537 -20.887  0.00  0.00    +0.064 C 
ATOM     13  C   UNL     1      34.270 -19.352 -22.094  0.00  0.00    +0.088 C 
ATOM     14  C   UNL     1      35.927 -18.575 -20.874  0.00  0.00    +0.121 C 
BRANCH  10  15
ATOM     15  C   UNL     1      34.634 -17.770 -24.004  0.00  0.00    +0.148 C 
BRANCH  15  16
ATOM     16  C   UNL     1      34.660 -16.248 -24.002  0.00  0.00    +0.161 C 
BRANCH  16  17
ATOM     17  O   UNL     1      34.015 -15.757 -25.171  0.00  0.00    -0.380 OA
ATOM     18  H   UNL     1      33.191 -15.310 -24.922  0.00  0.00    +0.211 HD
ENDBRANCH  16  17
ENDBRANCH  15  16
ENDBRANCH  10  15
ENDBRANCH   7  12
BRANCH   1  19
ATOM     19  C   UNL     1      36.932 -22.044 -16.521  0.00  0.00    +0.145 C 
BRANCH  19  21
ATOM     20  N   UNL     1      38.092 -25.198 -11.967  0.00  0.00    -0.244 NA
ATOM     21  C   UNL     1      37.229 -22.872 -15.317  0.00  0.00    -0.000 C 
ATOM     22  C   UNL     1      36.424 -22.776 -14.185  0.00  0.00    -0.001 C 
ATOM     23  C   UNL     1      36.701 -23.554 -13.048  0.00  0.00    +0.017 C 
ATOM     24  C   UNL     1      38.313 -23.742 -15.316  0.00  0.00    -0.001 C 
ATOM     25  C   UNL     1      37.799 -24.439 -13.041  0.00  0.00    +0.081 C 
ATOM     26  C   UNL     1      38.588 -24.515 -14.185  0.00  0.00    +0.019 C 
ATOM     27  C   UNL     1      35.906 -23.478 -11.897  0.00  0.00    +0.003 C 
ATOM     28  C   UNL     1      36.206 -24.259 -10.789  0.00  0.00    +0.021 C 
ATOM     29  C   UNL     1      37.300 -25.095 -10.876  0.00  0.00    +0.099 C 
ENDBRANCH  19  21
ENDBRANCH   1  19
TORSDOF 6
ENDMDL
