MODEL 1
REMARK VINA RESULT:     -11.4      0.000      0.000
REMARK  Name = 54689025
REMARK  9 active torsions:
REMARK  status: ('A' for Active; 'I' for Inactive)
REMARK    1  A    between atoms: C_1  and  C_21
REMARK    2  A    between atoms: C_4  and  N_8
REMARK    3  A    between atoms: C_9  and  C_11
REMARK    4  A    between atoms: C_11  and  N_13
REMARK    5  A    between atoms: C_14  and  O_16
REMARK    6  A    between atoms: O_16  and  C_17
REMARK    7  A    between atoms: C_21  and  C_24
REMARK    8  A    between atoms: C_21  and  C_35
REMARK    9  A    between atoms: C_25  and  O_33
REMARK                            x       y       z     vdW  Elec       q    Type
REMARK                         _______ _______ _______ _____ _____    ______ ____
ROOT
ATOM      1  C   UNL     1      34.990 -16.495 -22.010  0.00  0.00    -0.017 C 
ATOM      2  C   UNL     1      34.822 -15.430 -22.894  0.00  0.00    +0.011 C 
ATOM      3  C   UNL     1      34.805 -16.302 -20.641  0.00  0.00    -0.004 C 
ATOM      4  C   UNL     1      34.468 -14.171 -22.409  0.00  0.00    +0.050 C 
ATOM      5  C   UNL     1      34.452 -15.043 -20.156  0.00  0.00    +0.001 C 
ATOM      6  C   UNL     1      34.283 -13.978 -21.040  0.00  0.00    +0.015 C 
ENDROOT
BRANCH   4   8
ATOM      7  O   UNL     1      33.148 -14.064 -25.106  0.00  0.00    -0.273 OA
ATOM      8  N   UNL     1      34.301 -13.103 -23.293  0.00  0.00    -0.283 N 
ATOM      9  C   UNL     1      33.673 -13.106 -24.549  0.00  0.00    +0.246 C 
ATOM     10  H   UNL     1      34.668 -12.239 -22.997  0.00  0.00    +0.155 HD
BRANCH   9  11
ATOM     11  C   UNL     1      33.712 -11.725 -25.177  0.00  0.00    +0.179 C 
BRANCH  11  13
ATOM     12  O   UNL     1      35.580  -9.514 -25.429  0.00  0.00    -0.226 OA
ATOM     13  N   UNL     1      34.042 -10.736 -24.192  0.00  0.00    -0.262 N 
ATOM     14  C   UNL     1      34.949  -9.710 -24.395  0.00  0.00    +0.402 C 
ATOM     15  H   UNL     1      33.595 -10.791 -23.317  0.00  0.00    +0.153 HD
BRANCH  14  16
ATOM     16  O   UNL     1      35.043  -8.938 -23.271  0.00  0.00    -0.442 OA
BRANCH  16  17
ATOM     17  C   UNL     1      34.103  -7.862 -23.174  0.00  0.00    +0.138 C 
ATOM     18  C   UNL     1      34.500  -6.777 -24.173  0.00  0.00    +0.044 C 
ATOM     19  C   UNL     1      34.165  -7.326 -21.745  0.00  0.00    +0.044 C 
ATOM     20  C   UNL     1      32.709  -8.405 -23.484  0.00  0.00    +0.044 C 
ENDBRANCH  16  17
ENDBRANCH  14  16
ENDBRANCH  11  13
ENDBRANCH   9  11
ENDBRANCH   4   8
BRANCH   1  21
ATOM     21  C   UNL     1      35.375 -17.866 -22.538  0.00  0.00    +0.054 C 
BRANCH  21  24
ATOM     22  O   UNL     1      36.859 -20.013 -19.796  0.00  0.00    -0.421 OA
ATOM     23  O   UNL     1      37.736 -18.456 -21.204  0.00  0.00    -0.245 OA
ATOM     24  C   UNL     1      35.404 -18.881 -21.428  0.00  0.00    +0.091 A 
ATOM     25  C   UNL     1      34.345 -19.581 -20.978  0.00  0.00    +0.139 A 
ATOM     26  C   UNL     1      36.752 -19.082 -20.821  0.00  0.00    +0.345 A 
ATOM     27  C   UNL     1      34.493 -20.555 -19.894  0.00  0.00    +0.068 A 
ATOM     28  C   UNL     1      35.752 -20.743 -19.333  0.00  0.00    +0.152 A 
ATOM     29  C   UNL     1      33.430 -21.315 -19.386  0.00  0.00    +0.006 C 
ATOM     30  C   UNL     1      35.978 -21.651 -18.298  0.00  0.00    +0.038 C 
ATOM     31  C   UNL     1      33.640 -22.230 -18.348  0.00  0.00    +0.000 C 
ATOM     32  C   UNL     1      34.913 -22.398 -17.806  0.00  0.00    +0.003 C 
BRANCH  25  33
ATOM     33  O   UNL     1      33.062 -19.460 -21.467  0.00  0.00    -0.506 OA
ATOM     34  H   UNL     1      32.450 -20.161 -21.357  0.00  0.00    +0.292 HD
ENDBRANCH  25  33
ENDBRANCH  21  24
BRANCH  21  35
ATOM     35  C   UNL     1      34.469 -18.365 -23.683  0.00  0.00    +0.009 C 
ATOM     36  C   UNL     1      34.898 -19.723 -24.230  0.00  0.00    +0.001 C 
ENDBRANCH  21  35
ENDBRANCH   1  21
TORSDOF 9
ENDMDL
MODEL 2
REMARK VINA RESULT:     -10.8      3.502      6.320
REMARK  Name = 54689025
REMARK  9 active torsions:
REMARK  status: ('A' for Active; 'I' for Inactive)
REMARK    1  A    between atoms: C_1  and  C_21
REMARK    2  A    between atoms: C_4  and  N_8
REMARK    3  A    between atoms: C_9  and  C_11
REMARK    4  A    between atoms: C_11  and  N_13
REMARK    5  A    between atoms: C_14  and  O_16
REMARK    6  A    between atoms: O_16  and  C_17
REMARK    7  A    between atoms: C_21  and  C_24
REMARK    8  A    between atoms: C_21  and  C_35
REMARK    9  A    between atoms: C_25  and  O_33
REMARK                            x       y       z     vdW  Elec       q    Type
REMARK                         _______ _______ _______ _____ _____    ______ ____
ROOT
ATOM      1  C   UNL     1      33.043 -11.397 -22.678  0.00  0.00    -0.017 C 
ATOM      2  C   UNL     1      32.890 -10.038 -22.404  0.00  0.00    +0.011 C 
ATOM      3  C   UNL     1      32.210 -12.331 -22.062  0.00  0.00    -0.004 C 
ATOM      4  C   UNL     1      31.904  -9.612 -21.515  0.00  0.00    +0.050 C 
ATOM      5  C   UNL     1      31.224 -11.905 -21.171  0.00  0.00    +0.001 C 
ATOM      6  C   UNL     1      31.070 -10.546 -20.898  0.00  0.00    +0.015 C 
ENDROOT
BRANCH   4   8
ATOM      7  O   UNL     1      32.814  -7.988 -19.156  0.00  0.00    -0.273 OA
ATOM      8  N   UNL     1      31.751  -8.253 -21.240  0.00  0.00    -0.283 N 
ATOM      9  C   UNL     1      32.197  -7.538 -20.116  0.00  0.00    +0.246 C 
ATOM     10  H   UNL     1      31.271  -7.728 -21.921  0.00  0.00    +0.155 HD
BRANCH   9  11
ATOM     11  C   UNL     1      31.818  -6.072 -20.220  0.00  0.00    +0.179 C 
BRANCH  11  13
ATOM     12  O   UNL     1      30.653  -4.199 -22.111  0.00  0.00    -0.226 OA
ATOM     13  N   UNL     1      32.444  -5.474 -21.364  0.00  0.00    -0.262 N 
ATOM     14  C   UNL     1      31.813  -4.586 -22.219  0.00  0.00    +0.402 C 
ATOM     15  H   UNL     1      33.381  -5.710 -21.554  0.00  0.00    +0.153 HD
BRANCH  14  16
ATOM     16  O   UNL     1      32.672  -4.196 -23.208  0.00  0.00    -0.442 OA
BRANCH  16  17
ATOM     17  C   UNL     1      32.735  -5.055 -24.352  0.00  0.00    +0.138 C 
ATOM     18  C   UNL     1      34.103  -5.736 -24.374  0.00  0.00    +0.044 C 
ATOM     19  C   UNL     1      32.549  -4.183 -25.592  0.00  0.00    +0.044 C 
ATOM     20  C   UNL     1      31.614  -6.088 -24.248  0.00  0.00    +0.044 C 
ENDBRANCH  16  17
ENDBRANCH  14  16
ENDBRANCH  11  13
ENDBRANCH   9  11
ENDBRANCH   4   8
BRANCH   1  21
ATOM     21  C   UNL     1      34.116 -11.860 -23.646  0.00  0.00    +0.054 C 
BRANCH  21  24
ATOM     22  O   UNL     1      33.650 -15.334 -25.077  0.00  0.00    -0.421 OA
ATOM     23  O   UNL     1      33.188 -13.250 -25.862  0.00  0.00    -0.245 OA
ATOM     24  C   UNL     1      34.179 -13.363 -23.700  0.00  0.00    +0.091 A 
ATOM     25  C   UNL     1      34.668 -14.162 -22.733  0.00  0.00    +0.139 A 
ATOM     26  C   UNL     1      33.634 -13.951 -24.959  0.00  0.00    +0.345 A 
ATOM     27  C   UNL     1      34.670 -15.618 -22.890  0.00  0.00    +0.068 A 
ATOM     28  C   UNL     1      34.158 -16.163 -24.062  0.00  0.00    +0.152 A 
ATOM     29  C   UNL     1      35.161 -16.501 -21.917  0.00  0.00    +0.006 C 
ATOM     30  C   UNL     1      34.122 -17.540 -24.290  0.00  0.00    +0.038 C 
ATOM     31  C   UNL     1      35.133 -17.884 -22.131  0.00  0.00    +0.000 C 
ATOM     32  C   UNL     1      34.613 -18.402 -23.315  0.00  0.00    +0.003 C 
BRANCH  25  33
ATOM     33  O   UNL     1      35.199 -13.714 -21.541  0.00  0.00    -0.506 OA
ATOM     34  H   UNL     1      34.859 -12.940 -21.139  0.00  0.00    +0.292 HD
ENDBRANCH  25  33
ENDBRANCH  21  24
BRANCH  21  35
ATOM     35  C   UNL     1      33.953 -11.290 -25.071  0.00  0.00    +0.009 C 
ATOM     36  C   UNL     1      35.049 -10.296 -25.442  0.00  0.00    +0.001 C 
ENDBRANCH  21  35
ENDBRANCH   1  21
TORSDOF 9
ENDMDL
MODEL 3
REMARK VINA RESULT:     -10.6      2.830     11.548
REMARK  Name = 54689025
REMARK  9 active torsions:
REMARK  status: ('A' for Active; 'I' for Inactive)
REMARK    1  A    between atoms: C_1  and  C_21
REMARK    2  A    between atoms: C_4  and  N_8
REMARK    3  A    between atoms: C_9  and  C_11
REMARK    4  A    between atoms: C_11  and  N_13
REMARK    5  A    between atoms: C_14  and  O_16
REMARK    6  A    between atoms: O_16  and  C_17
REMARK    7  A    between atoms: C_21  and  C_24
REMARK    8  A    between atoms: C_21  and  C_35
REMARK    9  A    between atoms: C_25  and  O_33
REMARK                            x       y       z     vdW  Elec       q    Type
REMARK                         _______ _______ _______ _____ _____    ______ ____
ROOT
ATOM      1  C   UNL     1      33.352  -9.516 -22.838  0.00  0.00    -0.017 C 
ATOM      2  C   UNL     1      33.255 -10.885 -23.085  0.00  0.00    +0.011 C 
ATOM      3  C   UNL     1      34.225  -8.731 -23.592  0.00  0.00    -0.004 C 
ATOM      4  C   UNL     1      34.029 -11.470 -24.087  0.00  0.00    +0.050 C 
ATOM      5  C   UNL     1      35.000  -9.317 -24.593  0.00  0.00    +0.001 C 
ATOM      6  C   UNL     1      34.901 -10.685 -24.841  0.00  0.00    +0.015 C 
ENDROOT
BRANCH   4   8
ATOM      7  O   UNL     1      34.682 -13.817 -22.328  0.00  0.00    -0.273 OA
ATOM      8  N   UNL     1      33.932 -12.840 -24.334  0.00  0.00    -0.283 N 
ATOM      9  C   UNL     1      34.252 -13.903 -23.474  0.00  0.00    +0.246 C 
ATOM     10  H   UNL     1      33.595 -13.093 -25.224  0.00  0.00    +0.155 HD
BRANCH   9  11
ATOM     11  C   UNL     1      33.995 -15.240 -24.145  0.00  0.00    +0.179 C 
BRANCH  11  13
ATOM     12  O   UNL     1      33.589 -18.104 -23.881  0.00  0.00    -0.226 OA
ATOM     13  N   UNL     1      34.931 -16.221 -23.679  0.00  0.00    -0.262 N 
ATOM     14  C   UNL     1      34.655 -17.575 -23.584  0.00  0.00    +0.402 C 
ATOM     15  H   UNL     1      35.827 -15.913 -23.411  0.00  0.00    +0.153 HD
BRANCH  14  16
ATOM     16  O   UNL     1      35.748 -18.244 -23.108  0.00  0.00    -0.442 OA
BRANCH  16  17
ATOM     17  C   UNL     1      35.796 -18.429 -21.689  0.00  0.00    +0.138 C 
ATOM     18  C   UNL     1      35.287 -17.156 -21.014  0.00  0.00    +0.044 C 
ATOM     19  C   UNL     1      37.253 -18.693 -21.310  0.00  0.00    +0.044 C 
ATOM     20  C   UNL     1      34.920 -19.627 -21.325  0.00  0.00    +0.044 C 
ENDBRANCH  16  17
ENDBRANCH  14  16
ENDBRANCH  11  13
ENDBRANCH   9  11
ENDBRANCH   4   8
BRANCH   1  21
ATOM     21  C   UNL     1      32.509  -8.879 -21.748  0.00  0.00    +0.054 C 
BRANCH  21  24
ATOM     22  O   UNL     1      32.575  -5.159 -21.051  0.00  0.00    -0.421 OA
ATOM     23  O   UNL     1      33.216  -6.981 -19.850  0.00  0.00    -0.245 OA
ATOM     24  C   UNL     1      32.310  -7.411 -22.010  0.00  0.00    +0.091 A 
ATOM     25  C   UNL     1      31.796  -6.878 -23.135  0.00  0.00    +0.139 A 
ATOM     26  C   UNL     1      32.737  -6.528 -20.886  0.00  0.00    +0.345 A 
ATOM     27  C   UNL     1      31.638  -5.429 -23.277  0.00  0.00    +0.068 A 
ATOM     28  C   UNL     1      32.034  -4.609 -22.226  0.00  0.00    +0.152 A 
ATOM     29  C   UNL     1      31.107  -4.817 -24.421  0.00  0.00    +0.006 C 
ATOM     30  C   UNL     1      31.917  -3.219 -22.280  0.00  0.00    +0.038 C 
ATOM     31  C   UNL     1      30.983  -3.425 -24.492  0.00  0.00    +0.000 C 
ATOM     32  C   UNL     1      31.386  -2.628 -23.423  0.00  0.00    +0.003 C 
BRANCH  25  33
ATOM     33  O   UNL     1      31.381  -7.609 -24.228  0.00  0.00    -0.506 OA
ATOM     34  H   UNL     1      31.655  -7.361 -25.089  0.00  0.00    +0.292 HD
ENDBRANCH  25  33
ENDBRANCH  21  24
BRANCH  21  35
ATOM     35  C   UNL     1      31.143  -9.565 -21.541  0.00  0.00    +0.009 C 
ATOM     36  C   UNL     1      31.078 -10.386 -20.257  0.00  0.00    +0.001 C 
ENDBRANCH  21  35
ENDBRANCH   1  21
TORSDOF 9
ENDMDL
MODEL 4
REMARK VINA RESULT:     -10.5      4.538     11.509
REMARK  Name = 54689025
REMARK  9 active torsions:
REMARK  status: ('A' for Active; 'I' for Inactive)
REMARK    1  A    between atoms: C_1  and  C_21
REMARK    2  A    between atoms: C_4  and  N_8
REMARK    3  A    between atoms: C_9  and  C_11
REMARK    4  A    between atoms: C_11  and  N_13
REMARK    5  A    between atoms: C_14  and  O_16
REMARK    6  A    between atoms: O_16  and  C_17
REMARK    7  A    between atoms: C_21  and  C_24
REMARK    8  A    between atoms: C_21  and  C_35
REMARK    9  A    between atoms: C_25  and  O_33
REMARK                            x       y       z     vdW  Elec       q    Type
REMARK                         _______ _______ _______ _____ _____    ______ ____
ROOT
ATOM      1  C   UNL     1      34.620 -20.073 -20.661  0.00  0.00    -0.017 C 
ATOM      2  C   UNL     1      34.961 -20.852 -19.556  0.00  0.00    +0.011 C 
ATOM      3  C   UNL     1      33.278 -19.849 -20.970  0.00  0.00    -0.004 C 
ATOM      4  C   UNL     1      33.961 -21.409 -18.759  0.00  0.00    +0.050 C 
ATOM      5  C   UNL     1      32.277 -20.407 -20.173  0.00  0.00    +0.001 C 
ATOM      6  C   UNL     1      32.619 -21.185 -19.068  0.00  0.00    +0.015 C 
ENDROOT
BRANCH   4   8
ATOM      7  O   UNL     1      36.553 -21.630 -17.257  0.00  0.00    -0.273 OA
ATOM      8  N   UNL     1      34.302 -22.190 -17.654  0.00  0.00    -0.283 N 
ATOM      9  C   UNL     1      35.534 -22.258 -16.985  0.00  0.00    +0.246 C 
ATOM     10  H   UNL     1      33.586 -22.765 -17.297  0.00  0.00    +0.155 HD
BRANCH   9  11
ATOM     11  C   UNL     1      35.471 -23.239 -15.829  0.00  0.00    +0.179 C 
BRANCH  11  13
ATOM     12  O   UNL     1      36.530 -23.035 -13.131  0.00  0.00    -0.226 OA
ATOM     13  N   UNL     1      36.792 -23.564 -15.376  0.00  0.00    -0.262 N 
ATOM     14  C   UNL     1      37.218 -23.436 -14.064  0.00  0.00    +0.402 C 
ATOM     15  H   UNL     1      37.438 -23.898 -16.040  0.00  0.00    +0.153 HD
BRANCH  14  16
ATOM     16  O   UNL     1      38.523 -23.825 -13.955  0.00  0.00    -0.442 OA
BRANCH  16  17
ATOM     17  C   UNL     1      38.764 -24.977 -13.140  0.00  0.00    +0.138 C 
ATOM     18  C   UNL     1      38.626 -24.573 -11.673  0.00  0.00    +0.044 C 
ATOM     19  C   UNL     1      40.184 -25.458 -13.433  0.00  0.00    +0.044 C 
ATOM     20  C   UNL     1      37.745 -26.054 -13.507  0.00  0.00    +0.044 C 
ENDBRANCH  16  17
ENDBRANCH  14  16
ENDBRANCH  11  13
ENDBRANCH   9  11
ENDBRANCH   4   8
BRANCH   1  21
ATOM     21  C   UNL     1      35.708 -19.467 -21.528  0.00  0.00    +0.054 C 
BRANCH  21  24
ATOM     22  O   UNL     1      34.387 -17.365 -24.386  0.00  0.00    -0.421 OA
ATOM     23  O   UNL     1      34.944 -19.562 -24.194  0.00  0.00    -0.245 OA
ATOM     24  C   UNL     1      35.210 -18.235 -22.235  0.00  0.00    +0.091 A 
ATOM     25  C   UNL     1      35.083 -17.013 -21.685  0.00  0.00    +0.139 A 
ATOM     26  C   UNL     1      34.847 -18.459 -23.665  0.00  0.00    +0.345 A 
ATOM     27  C   UNL     1      34.596 -15.880 -22.474  0.00  0.00    +0.068 A 
ATOM     28  C   UNL     1      34.261 -16.091 -23.808  0.00  0.00    +0.152 A 
ATOM     29  C   UNL     1      34.446 -14.584 -21.959  0.00  0.00    +0.006 C 
ATOM     30  C   UNL     1      33.789 -15.065 -24.629  0.00  0.00    +0.038 C 
ATOM     31  C   UNL     1      33.974 -13.545 -22.768  0.00  0.00    +0.000 C 
ATOM     32  C   UNL     1      33.648 -13.785 -24.102  0.00  0.00    +0.003 C 
BRANCH  25  33
ATOM     33  O   UNL     1      35.385 -16.709 -20.375  0.00  0.00    -0.506 OA
ATOM     34  H   UNL     1      36.220 -16.343 -20.159  0.00  0.00    +0.292 HD
ENDBRANCH  25  33
ENDBRANCH  21  24
BRANCH  21  35
ATOM     35  C   UNL     1      37.005 -19.141 -20.757  0.00  0.00    +0.009 C 
ATOM     36  C   UNL     1      38.086 -18.533 -21.644  0.00  0.00    +0.001 C 
ENDBRANCH  21  35
ENDBRANCH   1  21
TORSDOF 9
ENDMDL
MODEL 5
REMARK VINA RESULT:     -10.3      4.441     10.967
REMARK  Name = 54689025
REMARK  9 active torsions:
REMARK  status: ('A' for Active; 'I' for Inactive)
REMARK    1  A    between atoms: C_1  and  C_21
REMARK    2  A    between atoms: C_4  and  N_8
REMARK    3  A    between atoms: C_9  and  C_11
REMARK    4  A    between atoms: C_11  and  N_13
REMARK    5  A    between atoms: C_14  and  O_16
REMARK    6  A    between atoms: O_16  and  C_17
REMARK    7  A    between atoms: C_21  and  C_24
REMARK    8  A    between atoms: C_21  and  C_35
REMARK    9  A    between atoms: C_25  and  O_33
REMARK                            x       y       z     vdW  Elec       q    Type
REMARK                         _______ _______ _______ _____ _____    ______ ____
ROOT
ATOM      1  C   UNL     1      34.767 -20.071 -20.687  0.00  0.00    -0.017 C 
ATOM      2  C   UNL     1      35.174 -20.805 -19.573  0.00  0.00    +0.011 C 
ATOM      3  C   UNL     1      33.408 -19.915 -20.962  0.00  0.00    -0.004 C 
ATOM      4  C   UNL     1      34.222 -21.381 -18.732  0.00  0.00    +0.050 C 
ATOM      5  C   UNL     1      32.456 -20.493 -20.121  0.00  0.00    +0.001 C 
ATOM      6  C   UNL     1      32.863 -21.225 -19.007  0.00  0.00    +0.015 C 
ENDROOT
BRANCH   4   8
ATOM      7  O   UNL     1      36.860 -21.443 -17.296  0.00  0.00    -0.273 OA
ATOM      8  N   UNL     1      34.628 -22.116 -17.617  0.00  0.00    -0.283 N 
ATOM      9  C   UNL     1      35.880 -22.110 -16.981  0.00  0.00    +0.246 C 
ATOM     10  H   UNL     1      33.950 -22.714 -17.226  0.00  0.00    +0.155 HD
BRANCH   9  11
ATOM     11  C   UNL     1      35.893 -23.061 -15.799  0.00  0.00    +0.179 C 
BRANCH  11  13
ATOM     12  O   UNL     1      34.413 -25.092 -14.341  0.00  0.00    -0.226 OA
ATOM     13  N   UNL     1      34.712 -22.887 -15.004  0.00  0.00    -0.262 N 
ATOM     14  C   UNL     1      34.065 -23.915 -14.338  0.00  0.00    +0.402 C 
ATOM     15  H   UNL     1      34.337 -21.980 -14.927  0.00  0.00    +0.153 HD
BRANCH  14  16
ATOM     16  O   UNL     1      32.976 -23.429 -13.671  0.00  0.00    -0.442 OA
BRANCH  16  17
ATOM     17  C   UNL     1      31.706 -23.689 -14.280  0.00  0.00    +0.138 C 
ATOM     18  C   UNL     1      31.872 -23.630 -15.798  0.00  0.00    +0.044 C 
ATOM     19  C   UNL     1      30.738 -22.607 -13.802  0.00  0.00    +0.044 C 
ATOM     20  C   UNL     1      31.228 -25.071 -13.837  0.00  0.00    +0.044 C 
ENDBRANCH  16  17
ENDBRANCH  14  16
ENDBRANCH  11  13
ENDBRANCH   9  11
ENDBRANCH   4   8
BRANCH   1  21
ATOM     21  C   UNL     1      35.803 -19.443 -21.602  0.00  0.00    +0.054 C 
BRANCH  21  24
ATOM     22  O   UNL     1      34.356 -17.303 -24.369  0.00  0.00    -0.421 OA
ATOM     23  O   UNL     1      34.967 -19.491 -24.248  0.00  0.00    -0.245 OA
ATOM     24  C   UNL     1      35.257 -18.207 -22.264  0.00  0.00    +0.091 A 
ATOM     25  C   UNL     1      35.118 -17.002 -21.680  0.00  0.00    +0.139 A 
ATOM     26  C   UNL     1      34.860 -18.404 -23.688  0.00  0.00    +0.345 A 
ATOM     27  C   UNL     1      34.583 -15.861 -22.426  0.00  0.00    +0.068 A 
ATOM     28  C   UNL     1      34.216 -16.047 -23.755  0.00  0.00    +0.152 A 
ATOM     29  C   UNL     1      34.419 -14.583 -21.874  0.00  0.00    +0.006 C 
ATOM     30  C   UNL     1      33.699 -15.012 -24.537  0.00  0.00    +0.038 C 
ATOM     31  C   UNL     1      33.901 -13.535 -22.644  0.00  0.00    +0.000 C 
ATOM     32  C   UNL     1      33.543 -13.750 -23.974  0.00  0.00    +0.003 C 
BRANCH  25  33
ATOM     33  O   UNL     1      35.450 -16.723 -20.370  0.00  0.00    -0.506 OA
ATOM     34  H   UNL     1      36.349 -16.699 -20.109  0.00  0.00    +0.292 HD
ENDBRANCH  25  33
ENDBRANCH  21  24
BRANCH  21  35
ATOM     35  C   UNL     1      37.135 -19.116 -20.896  0.00  0.00    +0.009 C 
ATOM     36  C   UNL     1      38.176 -18.520 -21.838  0.00  0.00    +0.001 C 
ENDBRANCH  21  35
ENDBRANCH   1  21
TORSDOF 9
ENDMDL
MODEL 6
REMARK VINA RESULT:     -10.0      6.189     11.086
REMARK  Name = 54689025
REMARK  9 active torsions:
REMARK  status: ('A' for Active; 'I' for Inactive)
REMARK    1  A    between atoms: C_1  and  C_21
REMARK    2  A    between atoms: C_4  and  N_8
REMARK    3  A    between atoms: C_9  and  C_11
REMARK    4  A    between atoms: C_11  and  N_13
REMARK    5  A    between atoms: C_14  and  O_16
REMARK    6  A    between atoms: O_16  and  C_17
REMARK    7  A    between atoms: C_21  and  C_24
REMARK    8  A    between atoms: C_21  and  C_35
REMARK    9  A    between atoms: C_25  and  O_33
REMARK                            x       y       z     vdW  Elec       q    Type
REMARK                         _______ _______ _______ _____ _____    ______ ____
ROOT
ATOM      1  C   UNL     1      34.786 -23.722 -13.598  0.00  0.00    -0.017 C 
ATOM      2  C   UNL     1      34.939 -23.385 -14.942  0.00  0.00    +0.011 C 
ATOM      3  C   UNL     1      33.515 -23.972 -13.081  0.00  0.00    -0.004 C 
ATOM      4  C   UNL     1      33.820 -23.298 -15.771  0.00  0.00    +0.050 C 
ATOM      5  C   UNL     1      32.396 -23.884 -13.909  0.00  0.00    +0.001 C 
ATOM      6  C   UNL     1      32.549 -23.548 -15.254  0.00  0.00    +0.015 C 
ENDROOT
BRANCH   4   8
ATOM      7  O   UNL     1      31.872 -22.072 -17.702  0.00  0.00    -0.273 OA
ATOM      8  N   UNL     1      33.972 -22.960 -17.116  0.00  0.00    -0.283 N 
ATOM      9  C   UNL     1      33.025 -22.387 -17.980  0.00  0.00    +0.246 C 
ATOM     10  H   UNL     1      34.856 -23.146 -17.509  0.00  0.00    +0.155 HD
BRANCH   9  11
ATOM     11  C   UNL     1      33.609 -22.182 -19.367  0.00  0.00    +0.179 C 
BRANCH  11  13
ATOM     12  O   UNL     1      36.315 -21.412 -20.090  0.00  0.00    -0.226 OA
ATOM     13  N   UNL     1      34.140 -20.857 -19.495  0.00  0.00    -0.262 N 
ATOM     14  C   UNL     1      35.451 -20.576 -19.846  0.00  0.00    +0.402 C 
ATOM     15  H   UNL     1      33.537 -20.099 -19.322  0.00  0.00    +0.153 HD
BRANCH  14  16
ATOM     16  O   UNL     1      35.647 -19.224 -19.883  0.00  0.00    -0.442 OA
BRANCH  16  17
ATOM     17  C   UNL     1      35.760 -18.646 -21.188  0.00  0.00    +0.138 C 
ATOM     18  C   UNL     1      37.222 -18.717 -21.626  0.00  0.00    +0.044 C 
ATOM     19  C   UNL     1      35.298 -17.193 -21.088  0.00  0.00    +0.044 C 
ATOM     20  C   UNL     1      34.865 -19.430 -22.146  0.00  0.00    +0.044 C 
ENDBRANCH  16  17
ENDBRANCH  14  16
ENDBRANCH  11  13
ENDBRANCH   9  11
ENDBRANCH   4   8
BRANCH   1  21
ATOM     21  C   UNL     1      36.004 -23.817 -12.696  0.00  0.00    +0.054 C 
BRANCH  21  24
ATOM     22  O   UNL     1      37.181 -27.139 -11.313  0.00  0.00    -0.421 OA
ATOM     23  O   UNL     1      36.255 -25.293 -10.360  0.00  0.00    -0.245 OA
ATOM     24  C   UNL     1      36.581 -25.206 -12.716  0.00  0.00    +0.091 A 
ATOM     25  C   UNL     1      37.017 -25.858 -13.811  0.00  0.00    +0.139 A 
ATOM     26  C   UNL     1      36.650 -25.857 -11.376  0.00  0.00    +0.345 A 
ATOM     27  C   UNL     1      37.572 -27.210 -13.711  0.00  0.00    +0.068 A 
ATOM     28  C   UNL     1      37.638 -27.812 -12.459  0.00  0.00    +0.152 A 
ATOM     29  C   UNL     1      38.045 -27.936 -14.813  0.00  0.00    +0.006 C 
ATOM     30  C   UNL     1      38.153 -29.097 -12.276  0.00  0.00    +0.038 C 
ATOM     31  C   UNL     1      38.564 -29.226 -14.647  0.00  0.00    +0.000 C 
ATOM     32  C   UNL     1      38.618 -29.804 -13.380  0.00  0.00    +0.003 C 
BRANCH  25  33
ATOM     33  O   UNL     1      36.989 -25.345 -15.091  0.00  0.00    -0.506 OA
ATOM     34  H   UNL     1      36.443 -25.740 -15.742  0.00  0.00    +0.292 HD
ENDBRANCH  25  33
ENDBRANCH  21  24
BRANCH  21  35
ATOM     35  C   UNL     1      37.103 -22.787 -13.030  0.00  0.00    +0.009 C 
ATOM     36  C   UNL     1      37.955 -22.415 -11.821  0.00  0.00    +0.001 C 
ENDBRANCH  21  35
ENDBRANCH   1  21
TORSDOF 9
ENDMDL
MODEL 7
REMARK VINA RESULT:      -9.6      3.372      5.938
REMARK  Name = 54689025
REMARK  9 active torsions:
REMARK  status: ('A' for Active; 'I' for Inactive)
REMARK    1  A    between atoms: C_1  and  C_21
REMARK    2  A    between atoms: C_4  and  N_8
REMARK    3  A    between atoms: C_9  and  C_11
REMARK    4  A    between atoms: C_11  and  N_13
REMARK    5  A    between atoms: C_14  and  O_16
REMARK    6  A    between atoms: O_16  and  C_17
REMARK    7  A    between atoms: C_21  and  C_24
REMARK    8  A    between atoms: C_21  and  C_35
REMARK    9  A    between atoms: C_25  and  O_33
REMARK                            x       y       z     vdW  Elec       q    Type
REMARK                         _______ _______ _______ _____ _____    ______ ____
ROOT
ATOM      1  C   UNL     1      32.938 -11.623 -22.510  0.00  0.00    -0.017 C 
ATOM      2  C   UNL     1      32.872 -10.253 -22.256  0.00  0.00    +0.011 C 
ATOM      3  C   UNL     1      32.010 -12.486 -21.927  0.00  0.00    -0.004 C 
ATOM      4  C   UNL     1      31.878  -9.745 -21.421  0.00  0.00    +0.050 C 
ATOM      5  C   UNL     1      31.016 -11.978 -21.090  0.00  0.00    +0.001 C 
ATOM      6  C   UNL     1      30.949 -10.608 -20.838  0.00  0.00    +0.015 C 
ENDROOT
BRANCH   4   8
ATOM      7  O   UNL     1      32.777  -8.163 -19.030  0.00  0.00    -0.273 OA
ATOM      8  N   UNL     1      31.811  -8.375 -21.166  0.00  0.00    -0.283 N 
ATOM      9  C   UNL     1      32.248  -7.681 -20.027  0.00  0.00    +0.246 C 
ATOM     10  H   UNL     1      31.408  -7.825 -21.877  0.00  0.00    +0.155 HD
BRANCH   9  11
ATOM     11  C   UNL     1      31.985  -6.192 -20.164  0.00  0.00    +0.179 C 
BRANCH  11  13
ATOM     12  O   UNL     1      30.790  -4.376 -22.091  0.00  0.00    -0.226 OA
ATOM     13  N   UNL     1      32.564  -5.692 -21.376  0.00  0.00    -0.262 N 
ATOM     14  C   UNL     1      31.922  -4.824 -22.244  0.00  0.00    +0.402 C 
ATOM     15  H   UNL     1      33.476  -5.984 -21.607  0.00  0.00    +0.153 HD
BRANCH  14  16
ATOM     16  O   UNL     1      32.734  -4.535 -23.304  0.00  0.00    -0.442 OA
BRANCH  16  17
ATOM     17  C   UNL     1      32.781  -5.521 -24.341  0.00  0.00    +0.138 C 
ATOM     18  C   UNL     1      34.000  -6.412 -24.110  0.00  0.00    +0.044 C 
ATOM     19  C   UNL     1      32.900  -4.781 -25.673  0.00  0.00    +0.044 C 
ATOM     20  C   UNL     1      31.491  -6.338 -24.294  0.00  0.00    +0.044 C 
ENDBRANCH  16  17
ENDBRANCH  14  16
ENDBRANCH  11  13
ENDBRANCH   9  11
ENDBRANCH   4   8
BRANCH   1  21
ATOM     21  C   UNL     1      34.021 -12.175 -23.420  0.00  0.00    +0.054 C 
BRANCH  21  24
ATOM     22  O   UNL     1      34.943 -15.316 -21.519  0.00  0.00    -0.421 OA
ATOM     23  O   UNL     1      34.924 -13.109 -20.968  0.00  0.00    -0.245 OA
ATOM     24  C   UNL     1      34.226 -13.646 -23.180  0.00  0.00    +0.091 A 
ATOM     25  C   UNL     1      34.007 -14.625 -24.078  0.00  0.00    +0.139 A 
ATOM     26  C   UNL     1      34.720 -13.977 -21.811  0.00  0.00    +0.345 A 
ATOM     27  C   UNL     1      34.252 -16.028 -23.737  0.00  0.00    +0.068 A 
ATOM     28  C   UNL     1      34.715 -16.333 -22.461  0.00  0.00    +0.152 A 
ATOM     29  C   UNL     1      34.045 -17.089 -24.629  0.00  0.00    +0.006 C 
ATOM     30  C   UNL     1      34.975 -17.643 -22.056  0.00  0.00    +0.038 C 
ATOM     31  C   UNL     1      34.300 -18.409 -24.238  0.00  0.00    +0.000 C 
ATOM     32  C   UNL     1      34.765 -18.685 -22.954  0.00  0.00    +0.003 C 
BRANCH  25  33
ATOM     33  O   UNL     1      33.545 -14.421 -25.361  0.00  0.00    -0.506 OA
ATOM     34  H   UNL     1      34.106 -14.586 -26.093  0.00  0.00    +0.292 HD
ENDBRANCH  25  33
ENDBRANCH  21  24
BRANCH  21  35
ATOM     35  C   UNL     1      33.760 -11.919 -24.919  0.00  0.00    +0.009 C 
ATOM     36  C   UNL     1      34.628 -10.803 -25.491  0.00  0.00    +0.001 C 
ENDBRANCH  21  35
ENDBRANCH   1  21
TORSDOF 9
ENDMDL
MODEL 8
REMARK VINA RESULT:      -9.3      2.218     10.701
REMARK  Name = 54689025
REMARK  9 active torsions:
REMARK  status: ('A' for Active; 'I' for Inactive)
REMARK    1  A    between atoms: C_1  and  C_21
REMARK    2  A    between atoms: C_4  and  N_8
REMARK    3  A    between atoms: C_9  and  C_11
REMARK    4  A    between atoms: C_11  and  N_13
REMARK    5  A    between atoms: C_14  and  O_16
REMARK    6  A    between atoms: O_16  and  C_17
REMARK    7  A    between atoms: C_21  and  C_24
REMARK    8  A    between atoms: C_21  and  C_35
REMARK    9  A    between atoms: C_25  and  O_33
REMARK                            x       y       z     vdW  Elec       q    Type
REMARK                         _______ _______ _______ _____ _____    ______ ____
ROOT
ATOM      1  C   UNL     1      33.255 -11.879 -23.624  0.00  0.00    -0.017 C 
ATOM      2  C   UNL     1      33.314 -13.271 -23.566  0.00  0.00    +0.011 C 
ATOM      3  C   UNL     1      33.354 -11.227 -24.853  0.00  0.00    -0.004 C 
ATOM      4  C   UNL     1      33.469 -14.012 -24.737  0.00  0.00    +0.050 C 
ATOM      5  C   UNL     1      33.511 -11.968 -26.024  0.00  0.00    +0.001 C 
ATOM      6  C   UNL     1      33.568 -13.360 -25.966  0.00  0.00    +0.015 C 
ENDROOT
BRANCH   4   8
ATOM      7  O   UNL     1      35.508 -15.824 -23.478  0.00  0.00    -0.273 OA
ATOM      8  N   UNL     1      33.528 -15.405 -24.680  0.00  0.00    -0.283 N 
ATOM      9  C   UNL     1      34.508 -16.209 -24.076  0.00  0.00    +0.246 C 
ATOM     10  H   UNL     1      32.788 -15.885 -25.117  0.00  0.00    +0.155 HD
BRANCH   9  11
ATOM     11  C   UNL     1      34.183 -17.682 -24.247  0.00  0.00    +0.179 C 
BRANCH  11  13
ATOM     12  O   UNL     1      33.381 -19.409 -22.053  0.00  0.00    -0.226 OA
ATOM     13  N   UNL     1      35.025 -18.480 -23.404  0.00  0.00    -0.262 N 
ATOM     14  C   UNL     1      34.558 -19.281 -22.374  0.00  0.00    +0.402 C 
ATOM     15  H   UNL     1      35.996 -18.458 -23.567  0.00  0.00    +0.153 HD
BRANCH  14  16
ATOM     16  O   UNL     1      35.603 -19.913 -21.761  0.00  0.00    -0.442 OA
BRANCH  16  17
ATOM     17  C   UNL     1      36.375 -19.110 -20.860  0.00  0.00    +0.138 C 
ATOM     18  C   UNL     1      35.562 -17.869 -20.495  0.00  0.00    +0.044 C 
ATOM     19  C   UNL     1      37.661 -18.716 -21.584  0.00  0.00    +0.044 C 
ATOM     20  C   UNL     1      36.690 -19.941 -19.617  0.00  0.00    +0.044 C 
ENDBRANCH  16  17
ENDBRANCH  14  16
ENDBRANCH  11  13
ENDBRANCH   9  11
ENDBRANCH   4   8
BRANCH   1  21
ATOM     21  C   UNL     1      33.085 -11.072 -22.349  0.00  0.00    +0.054 C 
BRANCH  21  24
ATOM     22  O   UNL     1      31.375  -7.710 -22.670  0.00  0.00    -0.421 OA
ATOM     23  O   UNL     1      30.671  -9.757 -21.970  0.00  0.00    -0.245 OA
ATOM     24  C   UNL     1      32.946  -9.606 -22.655  0.00  0.00    +0.091 A 
ATOM     25  C   UNL     1      33.924  -8.806 -23.121  0.00  0.00    +0.139 A 
ATOM     26  C   UNL     1      31.582  -9.057 -22.401  0.00  0.00    +0.345 A 
ATOM     27  C   UNL     1      33.672  -7.390 -23.395  0.00  0.00    +0.068 A 
ATOM     28  C   UNL     1      32.398  -6.882 -23.160  0.00  0.00    +0.152 A 
ATOM     29  C   UNL     1      34.648  -6.510 -23.883  0.00  0.00    +0.006 C 
ATOM     30  C   UNL     1      32.075  -5.544 -23.395  0.00  0.00    +0.038 C 
ATOM     31  C   UNL     1      34.340  -5.166 -24.124  0.00  0.00    +0.000 C 
ATOM     32  C   UNL     1      33.054  -4.685 -23.881  0.00  0.00    +0.003 C 
BRANCH  25  33
ATOM     33  O   UNL     1      35.215  -9.217 -23.379  0.00  0.00    -0.506 OA
ATOM     34  H   UNL     1      35.909  -8.975 -22.799  0.00  0.00    +0.292 HD
ENDBRANCH  25  33
ENDBRANCH  21  24
BRANCH  21  35
ATOM     35  C   UNL     1      31.904 -11.540 -21.473  0.00  0.00    +0.009 C 
ATOM     36  C   UNL     1      32.329 -12.499 -20.366  0.00  0.00    +0.001 C 
ENDBRANCH  21  35
ENDBRANCH   1  21
TORSDOF 9
ENDMDL
MODEL 9
REMARK VINA RESULT:      -9.3      2.171     10.855
REMARK  Name = 54689025
REMARK  9 active torsions:
REMARK  status: ('A' for Active; 'I' for Inactive)
REMARK    1  A    between atoms: C_1  and  C_21
REMARK    2  A    between atoms: C_4  and  N_8
REMARK    3  A    between atoms: C_9  and  C_11
REMARK    4  A    between atoms: C_11  and  N_13
REMARK    5  A    between atoms: C_14  and  O_16
REMARK    6  A    between atoms: O_16  and  C_17
REMARK    7  A    between atoms: C_21  and  C_24
REMARK    8  A    between atoms: C_21  and  C_35
REMARK    9  A    between atoms: C_25  and  O_33
REMARK                            x       y       z     vdW  Elec       q    Type
REMARK                         _______ _______ _______ _____ _____    ______ ____
ROOT
ATOM      1  C   UNL     1      33.312 -11.420 -23.866  0.00  0.00    -0.017 C 
ATOM      2  C   UNL     1      33.304 -12.808 -23.729  0.00  0.00    +0.011 C 
ATOM      3  C   UNL     1      33.457 -10.845 -25.128  0.00  0.00    -0.004 C 
ATOM      4  C   UNL     1      33.440 -13.621 -24.854  0.00  0.00    +0.050 C 
ATOM      5  C   UNL     1      33.594 -11.658 -26.254  0.00  0.00    +0.001 C 
ATOM      6  C   UNL     1      33.585 -13.045 -26.116  0.00  0.00    +0.015 C 
ENDROOT
BRANCH   4   8
ATOM      7  O   UNL     1      35.343 -15.445 -23.413  0.00  0.00    -0.273 OA
ATOM      8  N   UNL     1      33.433 -15.010 -24.717  0.00  0.00    -0.283 N 
ATOM      9  C   UNL     1      34.351 -15.820 -24.030  0.00  0.00    +0.246 C 
ATOM     10  H   UNL     1      32.688 -15.481 -25.157  0.00  0.00    +0.155 HD
BRANCH   9  11
ATOM     11  C   UNL     1      33.965 -17.284 -24.132  0.00  0.00    +0.179 C 
BRANCH  11  13
ATOM     12  O   UNL     1      33.457 -19.448 -22.262  0.00  0.00    -0.226 OA
ATOM     13  N   UNL     1      34.927 -18.103 -23.453  0.00  0.00    -0.262 N 
ATOM     14  C   UNL     1      34.598 -19.119 -22.572  0.00  0.00    +0.402 C 
ATOM     15  H   UNL     1      35.881 -17.931 -23.623  0.00  0.00    +0.153 HD
BRANCH  14  16
ATOM     16  O   UNL     1      35.733 -19.710 -22.092  0.00  0.00    -0.442 OA
BRANCH  16  17
ATOM     17  C   UNL     1      36.355 -19.056 -20.981  0.00  0.00    +0.138 C 
ATOM     18  C   UNL     1      35.503 -17.849 -20.588  0.00  0.00    +0.044 C 
ATOM     19  C   UNL     1      37.745 -18.609 -21.431  0.00  0.00    +0.044 C 
ATOM     20  C   UNL     1      36.457 -20.050 -19.826  0.00  0.00    +0.044 C 
ENDBRANCH  16  17
ENDBRANCH  14  16
ENDBRANCH  11  13
ENDBRANCH   9  11
ENDBRANCH   4   8
BRANCH   1  21
ATOM     21  C   UNL     1      33.163 -10.535 -22.641  0.00  0.00    +0.054 C 
BRANCH  21  24
ATOM     22  O   UNL     1      34.720  -7.261 -23.733  0.00  0.00    -0.421 OA
ATOM     23  O   UNL     1      35.560  -9.345 -23.376  0.00  0.00    -0.245 OA
ATOM     24  C   UNL     1      33.221  -9.080 -23.019  0.00  0.00    +0.091 A 
ATOM     25  C   UNL     1      32.174  -8.234 -23.044  0.00  0.00    +0.139 A 
ATOM     26  C   UNL     1      34.586  -8.598 -23.382  0.00  0.00    +0.345 A 
ATOM     27  C   UNL     1      32.349  -6.829 -23.419  0.00  0.00    +0.068 A 
ATOM     28  C   UNL     1      33.623  -6.383 -23.753  0.00  0.00    +0.152 A 
ATOM     29  C   UNL     1      31.299  -5.902 -23.460  0.00  0.00    +0.006 C 
ATOM     30  C   UNL     1      33.877  -5.060 -24.121  0.00  0.00    +0.038 C 
ATOM     31  C   UNL     1      31.536  -4.572 -23.827  0.00  0.00    +0.000 C 
ATOM     32  C   UNL     1      32.823  -4.153 -24.156  0.00  0.00    +0.003 C 
BRANCH  25  33
ATOM     33  O   UNL     1      30.877  -8.585 -22.734  0.00  0.00    -0.506 OA
ATOM     34  H   UNL     1      30.498  -8.311 -21.922  0.00  0.00    +0.292 HD
ENDBRANCH  25  33
ENDBRANCH  21  24
BRANCH  21  35
ATOM     35  C   UNL     1      31.884 -10.815 -21.826  0.00  0.00    +0.009 C 
ATOM     36  C   UNL     1      32.089 -11.868 -20.742  0.00  0.00    +0.001 C 
ENDBRANCH  21  35
ENDBRANCH   1  21
TORSDOF 9
ENDMDL
