MODEL 1
REMARK VINA RESULT:     -11.4      0.000      0.000
REMARK  Name = 6450813
REMARK  4 active torsions:
REMARK  status: ('A' for Active; 'I' for Inactive)
REMARK    1  A    between atoms: C_4  and  C_10
REMARK    2  A    between atoms: C_6  and  C_22
REMARK    3  A    between atoms: C_12  and  N_17
REMARK    4  A    between atoms: C_22  and  C_24
REMARK                            x       y       z     vdW  Elec       q    Type
REMARK                         _______ _______ _______ _____ _____    ______ ____
ROOT
ATOM      1  N   UNL     1      34.720 -15.922 -22.312  0.00  0.00    -0.191 N 
ATOM      2  N   UNL     1      34.852 -15.358 -21.079  0.00  0.00    -0.179 NA
ATOM      3  N   UNL     1      34.063 -15.310 -24.551  0.00  0.00    -0.231 NA
ATOM      4  C   UNL     1      34.961 -17.256 -22.683  0.00  0.00    +0.143 C 
ATOM      5  C   UNL     1      34.277 -14.981 -23.246  0.00  0.00    +0.141 C 
ATOM      6  C   UNL     1      34.140 -13.790 -22.568  0.00  0.00    +0.161 C 
ATOM      7  C   UNL     1      34.761 -17.624 -23.960  0.00  0.00    +0.020 C 
ATOM      8  C   UNL     1      34.504 -14.083 -21.250  0.00  0.00    +0.106 C 
ATOM      9  C   UNL     1      34.291 -16.548 -24.866  0.00  0.00    +0.097 C 
ENDROOT
BRANCH   4  10
ATOM     10  C   UNL     1      35.440 -18.256 -21.712  0.00  0.00    +0.003 C 
ATOM     11  C   UNL     1      34.535 -19.121 -21.095  0.00  0.00    +0.013 C 
ATOM     12  C   UNL     1      34.988 -20.068 -20.177  0.00  0.00    +0.054 C 
ATOM     13  C   UNL     1      36.799 -18.341 -21.410  0.00  0.00    -0.002 C 
ATOM     14  C   UNL     1      36.347 -20.151 -19.875  0.00  0.00    +0.015 C 
ATOM     15  C   UNL     1      37.253 -19.287 -20.492  0.00  0.00    +0.001 C 
BRANCH  12  17
ATOM     16  O   UNL     1      35.641 -22.123 -18.245  0.00  0.00    -0.275 OA
ATOM     17  N   UNL     1      34.083 -20.932 -19.558  0.00  0.00    -0.257 N 
ATOM     18  C   UNL     1      32.627 -20.775 -19.862  0.00  0.00    +0.120 C 
ATOM     19  C   UNL     1      34.472 -21.907 -18.577  0.00  0.00    +0.230 C 
ATOM     20  C   UNL     1      33.385 -22.691 -17.879  0.00  0.00    +0.095 C 
ENDBRANCH  12  17
ENDBRANCH   4  10
BRANCH   6  22
ATOM     21  O   UNL     1      34.118 -12.145 -24.239  0.00  0.00    -0.290 OA
ATOM     22  C   UNL     1      33.710 -12.546 -23.131  0.00  0.00    +0.191 C 
BRANCH  22  24
ATOM     23  S   UNL     1      32.693 -10.073 -22.690  0.00  0.00    -0.084 S 
ATOM     24  C   UNL     1      32.747 -11.725 -22.358  0.00  0.00    +0.065 C 
ATOM     25  C   UNL     1      31.898 -12.153 -21.408  0.00  0.00    +0.010 C 
ATOM     26  C   UNL     1      31.137 -11.061 -20.901  0.00  0.00    +0.008 C 
ATOM     27  C   UNL     1      31.468  -9.871 -21.510  0.00  0.00    +0.036 C 
ENDBRANCH  22  24
ENDBRANCH   6  22
TORSDOF 4
ENDMDL
MODEL 2
REMARK VINA RESULT:     -10.5      3.237      8.806
REMARK  Name = 6450813
REMARK  4 active torsions:
REMARK  status: ('A' for Active; 'I' for Inactive)
REMARK    1  A    between atoms: C_4  and  C_10
REMARK    2  A    between atoms: C_6  and  C_22
REMARK    3  A    between atoms: C_12  and  N_17
REMARK    4  A    between atoms: C_22  and  C_24
REMARK                            x       y       z     vdW  Elec       q    Type
REMARK                         _______ _______ _______ _____ _____    ______ ____
ROOT
ATOM      1  N   UNL     1      34.466 -15.328 -22.208  0.00  0.00    -0.191 N 
ATOM      2  N   UNL     1      34.583 -15.141 -20.864  0.00  0.00    -0.179 NA
ATOM      3  N   UNL     1      34.967 -16.991 -23.882  0.00  0.00    -0.231 NA
ATOM      4  C   UNL     1      33.939 -14.441 -23.162  0.00  0.00    +0.143 C 
ATOM      5  C   UNL     1      34.968 -16.578 -22.583  0.00  0.00    +0.141 C 
ATOM      6  C   UNL     1      35.402 -17.189 -21.429  0.00  0.00    +0.161 C 
ATOM      7  C   UNL     1      33.919 -14.808 -24.454  0.00  0.00    +0.020 C 
ATOM      8  C   UNL     1      35.142 -16.263 -20.413  0.00  0.00    +0.106 C 
ATOM      9  C   UNL     1      34.476 -16.153 -24.742  0.00  0.00    +0.097 C 
ENDROOT
BRANCH   4  10
ATOM     10  C   UNL     1      33.394 -13.125 -22.780  0.00  0.00    +0.003 C 
ATOM     11  C   UNL     1      33.969 -11.957 -23.285  0.00  0.00    +0.013 C 
ATOM     12  C   UNL     1      33.454 -10.713 -22.924  0.00  0.00    +0.054 C 
ATOM     13  C   UNL     1      32.304 -13.046 -21.914  0.00  0.00    -0.002 C 
ATOM     14  C   UNL     1      32.364 -10.634 -22.057  0.00  0.00    +0.015 C 
ATOM     15  C   UNL     1      31.788 -11.801 -21.551  0.00  0.00    +0.001 C 
BRANCH  12  17
ATOM     16  O   UNL     1      33.059  -8.037 -21.892  0.00  0.00    -0.275 OA
ATOM     17  N   UNL     1      34.028  -9.545 -23.427  0.00  0.00    -0.257 N 
ATOM     18  C   UNL     1      34.980  -9.657 -24.575  0.00  0.00    +0.120 C 
ATOM     19  C   UNL     1      33.818  -8.249 -22.841  0.00  0.00    +0.230 C 
ATOM     20  C   UNL     1      34.601  -7.081 -23.394  0.00  0.00    +0.095 C 
ENDBRANCH  12  17
ENDBRANCH   4  10
BRANCH   6  22
ATOM     21  O   UNL     1      37.100 -18.752 -21.840  0.00  0.00    -0.290 OA
ATOM     22  C   UNL     1      35.990 -18.491 -21.335  0.00  0.00    +0.191 C 
BRANCH  22  24
ATOM     23  S   UNL     1      36.135 -20.617 -19.661  0.00  0.00    -0.084 S 
ATOM     24  C   UNL     1      35.243 -19.545 -20.609  0.00  0.00    +0.065 C 
ATOM     25  C   UNL     1      33.915 -19.748 -20.617  0.00  0.00    +0.010 C 
ATOM     26  C   UNL     1      33.581 -20.860 -19.793  0.00  0.00    +0.008 C 
ATOM     27  C   UNL     1      34.694 -21.427 -19.212  0.00  0.00    +0.036 C 
ENDBRANCH  22  24
ENDBRANCH   6  22
TORSDOF 4
ENDMDL
MODEL 3
REMARK VINA RESULT:     -10.5      3.130      8.798
REMARK  Name = 6450813
REMARK  4 active torsions:
REMARK  status: ('A' for Active; 'I' for Inactive)
REMARK    1  A    between atoms: C_4  and  C_10
REMARK    2  A    between atoms: C_6  and  C_22
REMARK    3  A    between atoms: C_12  and  N_17
REMARK    4  A    between atoms: C_22  and  C_24
REMARK                            x       y       z     vdW  Elec       q    Type
REMARK                         _______ _______ _______ _____ _____    ______ ____
ROOT
ATOM      1  N   UNL     1      34.793 -15.879 -22.381  0.00  0.00    -0.191 N 
ATOM      2  N   UNL     1      35.036 -16.524 -23.556  0.00  0.00    -0.179 NA
ATOM      3  N   UNL     1      34.908 -16.283 -20.006  0.00  0.00    -0.231 NA
ATOM      4  C   UNL     1      34.312 -14.572 -22.196  0.00  0.00    +0.143 C 
ATOM      5  C   UNL     1      35.079 -16.705 -21.290  0.00  0.00    +0.141 C 
ATOM      6  C   UNL     1      35.524 -17.900 -21.809  0.00  0.00    +0.161 C 
ATOM      7  C   UNL     1      34.127 -14.115 -20.946  0.00  0.00    +0.020 C 
ATOM      8  C   UNL     1      35.474 -17.730 -23.197  0.00  0.00    +0.106 C 
ATOM      9  C   UNL     1      34.461 -15.073 -19.863  0.00  0.00    +0.097 C 
ENDROOT
BRANCH   4  10
ATOM     10  C   UNL     1      34.018 -13.685 -23.337  0.00  0.00    +0.003 C 
ATOM     11  C   UNL     1      34.198 -12.306 -23.214  0.00  0.00    +0.013 C 
ATOM     12  C   UNL     1      33.920 -11.467 -24.293  0.00  0.00    +0.054 C 
ATOM     13  C   UNL     1      33.561 -14.223 -24.539  0.00  0.00    -0.002 C 
ATOM     14  C   UNL     1      33.462 -12.006 -25.495  0.00  0.00    +0.015 C 
ATOM     15  C   UNL     1      33.282 -13.384 -25.619  0.00  0.00    +0.001 C 
BRANCH  12  17
ATOM     16  O   UNL     1      32.238  -9.657 -22.783  0.00  0.00    -0.275 OA
ATOM     17  N   UNL     1      34.099 -10.088 -24.171  0.00  0.00    -0.257 N 
ATOM     18  C   UNL     1      35.287  -9.463 -24.827  0.00  0.00    +0.120 C 
ATOM     19  C   UNL     1      33.244  -9.252 -23.371  0.00  0.00    +0.230 C 
ATOM     20  C   UNL     1      33.619  -7.797 -23.209  0.00  0.00    +0.095 C 
ENDBRANCH  12  17
ENDBRANCH   4  10
BRANCH   6  22
ATOM     21  O   UNL     1      37.135 -19.331 -20.887  0.00  0.00    -0.290 OA
ATOM     22  C   UNL     1      35.933 -19.045 -21.054  0.00  0.00    +0.191 C 
BRANCH  22  24
ATOM     23  S   UNL     1      35.376 -21.118 -19.399  0.00  0.00    -0.084 S 
ATOM     24  C   UNL     1      34.881 -19.903 -20.459  0.00  0.00    +0.065 C 
ATOM     25  C   UNL     1      33.556 -19.823 -20.668  0.00  0.00    +0.010 C 
ATOM     26  C   UNL     1      32.877 -20.822 -19.915  0.00  0.00    +0.008 C 
ATOM     27  C   UNL     1      33.746 -21.597 -19.180  0.00  0.00    +0.036 C 
ENDBRANCH  22  24
ENDBRANCH   6  22
TORSDOF 4
ENDMDL
MODEL 4
REMARK VINA RESULT:     -10.5      4.423     10.614
REMARK  Name = 6450813
REMARK  4 active torsions:
REMARK  status: ('A' for Active; 'I' for Inactive)
REMARK    1  A    between atoms: C_4  and  C_10
REMARK    2  A    between atoms: C_6  and  C_22
REMARK    3  A    between atoms: C_12  and  N_17
REMARK    4  A    between atoms: C_22  and  C_24
REMARK                            x       y       z     vdW  Elec       q    Type
REMARK                         _______ _______ _______ _____ _____    ______ ____
ROOT
ATOM      1  N   UNL     1      32.819 -10.481 -22.537  0.00  0.00    -0.191 N 
ATOM      2  N   UNL     1      33.648  -9.992 -23.501  0.00  0.00    -0.179 NA
ATOM      3  N   UNL     1      31.882 -12.583 -21.812  0.00  0.00    -0.231 NA
ATOM      4  C   UNL     1      32.152  -9.767 -21.527  0.00  0.00    +0.143 C 
ATOM      5  C   UNL     1      32.672 -11.866 -22.661  0.00  0.00    +0.141 C 
ATOM      6  C   UNL     1      33.446 -12.248 -23.733  0.00  0.00    +0.161 C 
ATOM      7  C   UNL     1      31.362 -10.435 -20.669  0.00  0.00    +0.020 C 
ATOM      8  C   UNL     1      34.016 -11.061 -24.206  0.00  0.00    +0.106 C 
ATOM      9  C   UNL     1      31.277 -11.900 -20.891  0.00  0.00    +0.097 C 
ENDROOT
BRANCH   4  10
ATOM     10  C   UNL     1      32.307  -8.309 -21.376  0.00  0.00    +0.003 C 
ATOM     11  C   UNL     1      32.393  -7.494 -22.506  0.00  0.00    +0.013 C 
ATOM     12  C   UNL     1      32.539  -6.115 -22.364  0.00  0.00    +0.054 C 
ATOM     13  C   UNL     1      32.367  -7.742 -20.103  0.00  0.00    -0.002 C 
ATOM     14  C   UNL     1      32.599  -5.549 -21.090  0.00  0.00    +0.015 C 
ATOM     15  C   UNL     1      32.513  -6.362 -19.959  0.00  0.00    +0.001 C 
BRANCH  12  17
ATOM     16  O   UNL     1      34.908  -5.675 -23.969  0.00  0.00    -0.275 OA
ATOM     17  N   UNL     1      32.627  -5.300 -23.493  0.00  0.00    -0.257 N 
ATOM     18  C   UNL     1      31.388  -4.615 -23.974  0.00  0.00    +0.120 C 
ATOM     19  C   UNL     1      33.829  -5.157 -24.268  0.00  0.00    +0.230 C 
ATOM     20  C   UNL     1      33.763  -4.353 -25.546  0.00  0.00    +0.095 C 
ENDBRANCH  12  17
ENDBRANCH   4  10
BRANCH   6  22
ATOM     21  O   UNL     1      33.248 -13.907 -25.378  0.00  0.00    -0.290 OA
ATOM     22  C   UNL     1      33.601 -13.583 -24.227  0.00  0.00    +0.191 C 
BRANCH  22  24
ATOM     23  S   UNL     1      34.632 -16.079 -24.004  0.00  0.00    -0.084 S 
ATOM     24  C   UNL     1      34.204 -14.595 -23.328  0.00  0.00    +0.065 C 
ATOM     25  C   UNL     1      34.454 -14.465 -22.014  0.00  0.00    +0.010 C 
ATOM     26  C   UNL     1      35.040 -15.658 -21.503  0.00  0.00    +0.008 C 
ATOM     27  C   UNL     1      35.193 -16.618 -22.478  0.00  0.00    +0.036 C 
ENDBRANCH  22  24
ENDBRANCH   6  22
TORSDOF 4
ENDMDL
MODEL 5
REMARK VINA RESULT:     -10.4      5.746      9.174
REMARK  Name = 6450813
REMARK  4 active torsions:
REMARK  status: ('A' for Active; 'I' for Inactive)
REMARK    1  A    between atoms: C_4  and  C_10
REMARK    2  A    between atoms: C_6  and  C_22
REMARK    3  A    between atoms: C_12  and  N_17
REMARK    4  A    between atoms: C_22  and  C_24
REMARK                            x       y       z     vdW  Elec       q    Type
REMARK                         _______ _______ _______ _____ _____    ______ ____
ROOT
ATOM      1  N   UNL     1      34.293 -22.766 -16.603  0.00  0.00    -0.191 N 
ATOM      2  N   UNL     1      35.602 -22.524 -16.894  0.00  0.00    -0.179 NA
ATOM      3  N   UNL     1      32.101 -22.342 -17.515  0.00  0.00    -0.231 NA
ATOM      4  C   UNL     1      33.765 -23.438 -15.488  0.00  0.00    +0.143 C 
ATOM      5  C   UNL     1      33.457 -22.233 -17.589  0.00  0.00    +0.141 C 
ATOM      6  C   UNL     1      34.279 -21.650 -18.527  0.00  0.00    +0.161 C 
ATOM      7  C   UNL     1      32.432 -23.567 -15.375  0.00  0.00    +0.020 C 
ATOM      8  C   UNL     1      35.576 -21.859 -18.047  0.00  0.00    +0.106 C 
ATOM      9  C   UNL     1      31.639 -22.965 -16.475  0.00  0.00    +0.097 C 
ENDROOT
BRANCH   4  10
ATOM     10  C   UNL     1      34.634 -24.016 -14.447  0.00  0.00    +0.003 C 
ATOM     11  C   UNL     1      35.739 -24.788 -14.809  0.00  0.00    +0.013 C 
ATOM     12  C   UNL     1      36.562 -25.334 -13.825  0.00  0.00    +0.054 C 
ATOM     13  C   UNL     1      34.354 -23.791 -13.100  0.00  0.00    -0.002 C 
ATOM     14  C   UNL     1      36.280 -25.109 -12.477  0.00  0.00    +0.015 C 
ATOM     15  C   UNL     1      35.176 -24.338 -12.114  0.00  0.00    +0.001 C 
BRANCH  12  17
ATOM     16  O   UNL     1      39.267 -24.373 -14.199  0.00  0.00    -0.275 OA
ATOM     17  N   UNL     1      37.666 -26.107 -14.185  0.00  0.00    -0.257 N 
ATOM     18  C   UNL     1      37.480 -27.581 -14.354  0.00  0.00    +0.120 C 
ATOM     19  C   UNL     1      38.993 -25.570 -14.317  0.00  0.00    +0.230 C 
ATOM     20  C   UNL     1      40.130 -26.530 -14.580  0.00  0.00    +0.095 C 
ENDBRANCH  12  17
ENDBRANCH   4  10
BRANCH   6  22
ATOM     21  O   UNL     1      32.695 -21.097 -20.165  0.00  0.00    -0.290 OA
ATOM     22  C   UNL     1      33.854 -20.980 -19.719  0.00  0.00    +0.191 C 
BRANCH  22  24
ATOM     23  S   UNL     1      34.334 -19.390 -21.860  0.00  0.00    -0.084 S 
ATOM     24  C   UNL     1      34.835 -20.124 -20.427  0.00  0.00    +0.065 C 
ATOM     25  C   UNL     1      36.098 -19.859 -20.053  0.00  0.00    +0.010 C 
ATOM     26  C   UNL     1      36.720 -18.994 -20.996  0.00  0.00    +0.008 C 
ATOM     27  C   UNL     1      35.874 -18.660 -22.030  0.00  0.00    +0.036 C 
ENDBRANCH  22  24
ENDBRANCH   6  22
TORSDOF 4
ENDMDL
MODEL 6
REMARK VINA RESULT:     -10.4      3.537      9.553
REMARK  Name = 6450813
REMARK  4 active torsions:
REMARK  status: ('A' for Active; 'I' for Inactive)
REMARK    1  A    between atoms: C_4  and  C_10
REMARK    2  A    between atoms: C_6  and  C_22
REMARK    3  A    between atoms: C_12  and  N_17
REMARK    4  A    between atoms: C_22  and  C_24
REMARK                            x       y       z     vdW  Elec       q    Type
REMARK                         _______ _______ _______ _____ _____    ______ ____
ROOT
ATOM      1  N   UNL     1      33.737 -13.360 -23.332  0.00  0.00    -0.191 N 
ATOM      2  N   UNL     1      33.960 -13.633 -22.016  0.00  0.00    -0.179 NA
ATOM      3  N   UNL     1      33.891 -14.440 -25.484  0.00  0.00    -0.231 NA
ATOM      4  C   UNL     1      33.288 -12.157 -23.902  0.00  0.00    +0.143 C 
ATOM      5  C   UNL     1      34.029 -14.472 -24.128  0.00  0.00    +0.141 C 
ATOM      6  C   UNL     1      34.438 -15.470 -23.273  0.00  0.00    +0.161 C 
ATOM      7  C   UNL     1      33.138 -12.081 -25.235  0.00  0.00    +0.020 C 
ATOM      8  C   UNL     1      34.376 -14.899 -21.998  0.00  0.00    +0.106 C 
ATOM      9  C   UNL     1      33.477 -13.317 -25.984  0.00  0.00    +0.097 C 
ENDROOT
BRANCH   4  10
ATOM     10  C   UNL     1      32.964 -10.981 -23.074  0.00  0.00    +0.003 C 
ATOM     11  C   UNL     1      33.422  -9.716 -23.446  0.00  0.00    +0.013 C 
ATOM     12  C   UNL     1      33.115  -8.603 -22.664  0.00  0.00    +0.054 C 
ATOM     13  C   UNL     1      32.198 -11.131 -21.918  0.00  0.00    -0.002 C 
ATOM     14  C   UNL     1      32.349  -8.754 -21.508  0.00  0.00    +0.015 C 
ATOM     15  C   UNL     1      31.890 -10.018 -21.134  0.00  0.00    +0.001 C 
BRANCH  12  17
ATOM     16  O   UNL     1      31.566  -6.551 -23.995  0.00  0.00    -0.275 OA
ATOM     17  N   UNL     1      33.573  -7.339 -23.035  0.00  0.00    -0.257 N 
ATOM     18  C   UNL     1      34.976  -6.958 -22.683  0.00  0.00    +0.120 C 
ATOM     19  C   UNL     1      32.737  -6.351 -23.661  0.00  0.00    +0.230 C 
ATOM     20  C   UNL     1      33.311  -4.972 -23.893  0.00  0.00    +0.095 C 
ENDBRANCH  12  17
ENDBRANCH   4  10
BRANCH   6  22
ATOM     21  O   UNL     1      34.884 -17.152 -24.844  0.00  0.00    -0.290 OA
ATOM     22  C   UNL     1      34.836 -16.792 -23.652  0.00  0.00    +0.191 C 
BRANCH  22  24
ATOM     23  S   UNL     1      34.317 -19.177 -22.473  0.00  0.00    -0.084 S 
ATOM     24  C   UNL     1      35.203 -17.746 -22.578  0.00  0.00    +0.065 C 
ATOM     25  C   UNL     1      36.177 -17.600 -21.663  0.00  0.00    +0.010 C 
ATOM     26  C   UNL     1      36.217 -18.734 -20.802  0.00  0.00    +0.008 C 
ATOM     27  C   UNL     1      35.260 -19.668 -21.130  0.00  0.00    +0.036 C 
ENDBRANCH  22  24
ENDBRANCH   6  22
TORSDOF 4
ENDMDL
MODEL 7
REMARK VINA RESULT:     -10.3      1.381      1.877
REMARK  Name = 6450813
REMARK  4 active torsions:
REMARK  status: ('A' for Active; 'I' for Inactive)
REMARK    1  A    between atoms: C_4  and  C_10
REMARK    2  A    between atoms: C_6  and  C_22
REMARK    3  A    between atoms: C_12  and  N_17
REMARK    4  A    between atoms: C_22  and  C_24
REMARK                            x       y       z     vdW  Elec       q    Type
REMARK                         _______ _______ _______ _____ _____    ______ ____
ROOT
ATOM      1  N   UNL     1      34.419 -15.403 -22.229  0.00  0.00    -0.191 N 
ATOM      2  N   UNL     1      34.538 -14.990 -20.936  0.00  0.00    -0.179 NA
ATOM      3  N   UNL     1      33.594 -14.595 -24.346  0.00  0.00    -0.231 NA
ATOM      4  C   UNL     1      34.800 -16.638 -22.780  0.00  0.00    +0.143 C 
ATOM      5  C   UNL     1      33.826 -14.412 -23.016  0.00  0.00    +0.141 C 
ATOM      6  C   UNL     1      33.578 -13.344 -22.183  0.00  0.00    +0.161 C 
ATOM      7  C   UNL     1      34.589 -16.862 -24.088  0.00  0.00    +0.020 C 
ATOM      8  C   UNL     1      34.034 -13.757 -20.926  0.00  0.00    +0.106 C 
ATOM      9  C   UNL     1      33.954 -15.744 -24.830  0.00  0.00    +0.097 C 
ENDROOT
BRANCH   4  10
ATOM     10  C   UNL     1      35.438 -17.688 -21.965  0.00  0.00    +0.003 C 
ATOM     11  C   UNL     1      34.652 -18.630 -21.299  0.00  0.00    +0.013 C 
ATOM     12  C   UNL     1      35.255 -19.623 -20.529  0.00  0.00    +0.054 C 
ATOM     13  C   UNL     1      36.828 -17.741 -21.860  0.00  0.00    -0.002 C 
ATOM     14  C   UNL     1      36.645 -19.676 -20.423  0.00  0.00    +0.015 C 
ATOM     15  C   UNL     1      37.432 -18.735 -21.089  0.00  0.00    +0.001 C 
BRANCH  12  17
ATOM     16  O   UNL     1      36.205 -21.613 -18.653  0.00  0.00    -0.275 OA
ATOM     17  N   UNL     1      34.470 -20.565 -19.862  0.00  0.00    -0.257 N 
ATOM     18  C   UNL     1      32.991 -20.539 -20.077  0.00  0.00    +0.120 C 
ATOM     19  C   UNL     1      35.004 -21.502 -18.912  0.00  0.00    +0.230 C 
ATOM     20  C   UNL     1      34.035 -22.381 -18.155  0.00  0.00    +0.095 C 
ENDBRANCH  12  17
ENDBRANCH   4  10
BRANCH   6  22
ATOM     21  O   UNL     1      31.842 -11.769 -22.172  0.00  0.00    -0.290 OA
ATOM     22  C   UNL     1      32.979 -12.101 -22.562  0.00  0.00    +0.191 C 
BRANCH  22  24
ATOM     23  S   UNL     1      33.880  -9.579 -22.976  0.00  0.00    -0.084 S 
ATOM     24  C   UNL     1      33.750 -11.193 -23.444  0.00  0.00    +0.065 C 
ATOM     25  C   UNL     1      34.369 -11.514 -24.593  0.00  0.00    +0.010 C 
ATOM     26  C   UNL     1      35.003 -10.366 -25.148  0.00  0.00    +0.008 C 
ATOM     27  C   UNL     1      34.816  -9.245 -24.370  0.00  0.00    +0.036 C 
ENDBRANCH  22  24
ENDBRANCH   6  22
TORSDOF 4
ENDMDL
MODEL 8
REMARK VINA RESULT:     -10.2      4.510     10.078
REMARK  Name = 6450813
REMARK  4 active torsions:
REMARK  status: ('A' for Active; 'I' for Inactive)
REMARK    1  A    between atoms: C_4  and  C_10
REMARK    2  A    between atoms: C_6  and  C_22
REMARK    3  A    between atoms: C_12  and  N_17
REMARK    4  A    between atoms: C_22  and  C_24
REMARK                            x       y       z     vdW  Elec       q    Type
REMARK                         _______ _______ _______ _____ _____    ______ ____
ROOT
ATOM      1  N   UNL     1      35.349 -21.550 -18.090  0.00  0.00    -0.191 N 
ATOM      2  N   UNL     1      36.632 -21.360 -17.674  0.00  0.00    -0.179 NA
ATOM      3  N   UNL     1      33.357 -22.735 -17.422  0.00  0.00    -0.231 NA
ATOM      4  C   UNL     1      34.724 -21.023 -19.233  0.00  0.00    +0.143 C 
ATOM      5  C   UNL     1      34.658 -22.391 -17.212  0.00  0.00    +0.141 C 
ATOM      6  C   UNL     1      35.544 -22.725 -16.212  0.00  0.00    +0.161 C 
ATOM      7  C   UNL     1      33.441 -21.337 -19.480  0.00  0.00    +0.020 C 
ATOM      8  C   UNL     1      36.732 -22.067 -16.549  0.00  0.00    +0.106 C 
ATOM      9  C   UNL     1      32.805 -22.237 -18.485  0.00  0.00    +0.097 C 
ENDROOT
BRANCH   4  10
ATOM     10  C   UNL     1      35.435 -20.125 -20.162  0.00  0.00    +0.003 C 
ATOM     11  C   UNL     1      34.738 -19.487 -21.189  0.00  0.00    +0.013 C 
ATOM     12  C   UNL     1      35.410 -18.637 -22.066  0.00  0.00    +0.054 C 
ATOM     13  C   UNL     1      36.805 -19.911 -20.013  0.00  0.00    -0.002 C 
ATOM     14  C   UNL     1      36.780 -18.424 -21.918  0.00  0.00    +0.015 C 
ATOM     15  C   UNL     1      37.479 -19.061 -20.891  0.00  0.00    +0.001 C 
BRANCH  12  17
ATOM     16  O   UNL     1      35.231 -15.779 -22.488  0.00  0.00    -0.275 OA
ATOM     17  N   UNL     1      34.713 -18.000 -23.094  0.00  0.00    -0.257 N 
ATOM     18  C   UNL     1      34.026 -18.844 -24.118  0.00  0.00    +0.120 C 
ATOM     19  C   UNL     1      34.698 -16.573 -23.267  0.00  0.00    +0.230 C 
ATOM     20  C   UNL     1      34.021 -16.009 -24.495  0.00  0.00    +0.095 C 
ENDBRANCH  12  17
ENDBRANCH   4  10
BRANCH   6  22
ATOM     21  O   UNL     1      34.102 -23.822 -14.724  0.00  0.00    -0.290 OA
ATOM     22  C   UNL     1      35.267 -23.571 -15.091  0.00  0.00    +0.191 C 
BRANCH  22  24
ATOM     23  S   UNL     1      36.961 -23.347 -12.987  0.00  0.00    -0.084 S 
ATOM     24  C   UNL     1      36.414 -24.160 -14.359  0.00  0.00    +0.065 C 
ATOM     25  C   UNL     1      37.079 -25.286 -14.668  0.00  0.00    +0.010 C 
ATOM     26  C   UNL     1      38.119 -25.519 -13.723  0.00  0.00    +0.008 C 
ATOM     27  C   UNL     1      38.167 -24.541 -12.755  0.00  0.00    +0.036 C 
ENDBRANCH  22  24
ENDBRANCH   6  22
TORSDOF 4
ENDMDL
MODEL 9
REMARK VINA RESULT:     -10.2      3.681      8.577
REMARK  Name = 6450813
REMARK  4 active torsions:
REMARK  status: ('A' for Active; 'I' for Inactive)
REMARK    1  A    between atoms: C_4  and  C_10
REMARK    2  A    between atoms: C_6  and  C_22
REMARK    3  A    between atoms: C_12  and  N_17
REMARK    4  A    between atoms: C_22  and  C_24
REMARK                            x       y       z     vdW  Elec       q    Type
REMARK                         _______ _______ _______ _____ _____    ______ ____
ROOT
ATOM      1  N   UNL     1      33.997 -12.815 -23.857  0.00  0.00    -0.191 N 
ATOM      2  N   UNL     1      34.275 -13.043 -22.543  0.00  0.00    -0.179 NA
ATOM      3  N   UNL     1      33.704 -14.044 -25.912  0.00  0.00    -0.231 NA
ATOM      4  C   UNL     1      33.776 -11.582 -24.493  0.00  0.00    +0.143 C 
ATOM      5  C   UNL     1      33.957 -14.015 -24.574  0.00  0.00    +0.141 C 
ATOM      6  C   UNL     1      34.211 -15.021 -23.669  0.00  0.00    +0.161 C 
ATOM      7  C   UNL     1      33.523 -11.564 -25.813  0.00  0.00    +0.020 C 
ATOM      8  C   UNL     1      34.397 -14.366 -22.446  0.00  0.00    +0.106 C 
ATOM      9  C   UNL     1      33.506 -12.892 -26.475  0.00  0.00    +0.097 C 
ENDROOT
BRANCH   4  10
ATOM     10  C   UNL     1      33.801 -10.309 -23.749  0.00  0.00    +0.003 C 
ATOM     11  C   UNL     1      33.015 -10.152 -22.606  0.00  0.00    +0.013 C 
ATOM     12  C   UNL     1      33.039  -8.950 -21.902  0.00  0.00    +0.054 C 
ATOM     13  C   UNL     1      34.612  -9.262 -24.185  0.00  0.00    -0.002 C 
ATOM     14  C   UNL     1      33.850  -7.902 -22.339  0.00  0.00    +0.015 C 
ATOM     15  C   UNL     1      34.636  -8.058 -23.481  0.00  0.00    +0.001 C 
BRANCH  12  17
ATOM     16  O   UNL     1      31.814 -11.077 -20.368  0.00  0.00    -0.275 OA
ATOM     17  N   UNL     1      32.253  -8.791 -20.760  0.00  0.00    -0.257 N 
ATOM     18  C   UNL     1      32.045  -7.411 -20.224  0.00  0.00    +0.120 C 
ATOM     19  C   UNL     1      31.705  -9.897 -20.023  0.00  0.00    +0.230 C 
ATOM     20  C   UNL     1      30.984  -9.605 -18.728  0.00  0.00    +0.095 C 
ENDBRANCH  12  17
ENDBRANCH   4  10
BRANCH   6  22
ATOM     21  O   UNL     1      33.880 -16.886 -25.050  0.00  0.00    -0.290 OA
ATOM     22  C   UNL     1      34.267 -16.421 -23.960  0.00  0.00    +0.191 C 
BRANCH  22  24
ATOM     23  S   UNL     1      34.457 -18.973 -23.066  0.00  0.00    -0.084 S 
ATOM     24  C   UNL     1      34.808 -17.330 -22.921  0.00  0.00    +0.065 C 
ATOM     25  C   UNL     1      35.559 -16.991 -21.860  0.00  0.00    +0.010 C 
ATOM     26  C   UNL     1      35.882 -18.147 -21.095  0.00  0.00    +0.008 C 
ATOM     27  C   UNL     1      35.346 -19.294 -21.638  0.00  0.00    +0.036 C 
ENDBRANCH  22  24
ENDBRANCH   6  22
TORSDOF 4
ENDMDL
