MODEL 1
REMARK VINA RESULT:     -13.3      0.000      0.000
REMARK  Name = 11840906
REMARK  7 active torsions:
REMARK  status: ('A' for Active; 'I' for Inactive)
REMARK    1  A    between atoms: O_1  and  C_3
REMARK    2  A    between atoms: O_1  and  C_18
REMARK    3  A    between atoms: C_5  and  C_9
REMARK    4  A    between atoms: C_18  and  C_19
REMARK    5  A    between atoms: C_19  and  N_20
REMARK    6  A    between atoms: C_19  and  C_24
REMARK    7  A    between atoms: C_24  and  C_26
REMARK                            x       y       z     vdW  Elec       q    Type
REMARK                         _______ _______ _______ _____ _____    ______ ____
ROOT
ATOM      1  O   UNL     1      35.312 -15.133 -23.108  0.00  0.00    -0.476 OA
ENDROOT
BRANCH   1   3
ATOM      2  N   UNL     1      34.147 -18.301 -24.482  0.00  0.00    -0.239 NA
ATOM      3  C   UNL     1      34.991 -16.464 -23.180  0.00  0.00    +0.158 C 
ATOM      4  C   UNL     1      35.174 -17.290 -22.086  0.00  0.00    +0.040 C 
ATOM      5  C   UNL     1      34.839 -18.636 -22.189  0.00  0.00    +0.022 C 
ATOM      6  C   UNL     1      34.483 -16.999 -24.344  0.00  0.00    +0.136 C 
ATOM      7  C   UNL     1      34.334 -19.087 -23.397  0.00  0.00    +0.099 C 
BRANCH   5   9
ATOM      8  N   UNL     1      34.417 -22.765 -17.218  0.00  0.00    -0.242 NA
ATOM      9  C   UNL     1      35.013 -19.534 -21.072  0.00  0.00    +0.002 C 
ATOM     10  C   UNL     1      34.054 -21.020 -19.398  0.00  0.00    +0.003 C 
ATOM     11  C   UNL     1      33.901 -20.146 -20.487  0.00  0.00    +0.000 C 
ATOM     12  C   UNL     1      35.347 -21.275 -18.899  0.00  0.00    +0.019 C 
ATOM     13  C   UNL     1      36.290 -19.789 -20.574  0.00  0.00    +0.000 C 
ATOM     14  C   UNL     1      36.459 -20.655 -19.493  0.00  0.00    +0.002 C 
ATOM     15  C   UNL     1      32.959 -21.648 -18.792  0.00  0.00    +0.021 C 
ATOM     16  C   UNL     1      35.461 -22.149 -17.817  0.00  0.00    +0.099 C 
ATOM     17  C   UNL     1      33.193 -22.498 -17.723  0.00  0.00    +0.099 C 
ENDBRANCH   5   9
ENDBRANCH   1   3
BRANCH   1  18
ATOM     18  C   UNL     1      34.323 -14.264 -22.571  0.00  0.00    +0.184 C 
BRANCH  18  19
ATOM     19  C   UNL     1      33.967 -13.184 -23.598  0.00  0.00    -0.021 C 
BRANCH  19  20
ATOM     20  N   UNL     1      33.030 -13.752 -24.568  0.00  0.00    +0.384 N 
ATOM     21  H   UNL     1      32.817 -13.055 -25.283  0.00  0.00    -0.089 HD
ATOM     22  H   UNL     1      32.170 -14.024 -24.092  0.00  0.00    -0.089 HD
ATOM     23  H   UNL     1      33.450 -14.572 -25.006  0.00  0.00    -0.089 HD
ENDBRANCH  19  20
BRANCH  19  24
ATOM     24  C   UNL     1      33.370 -11.934 -22.917  0.00  0.00    -0.012 C 
BRANCH  24  26
ATOM     25  N   UNL     1      35.208  -9.479 -24.512  0.00  0.00    -0.270 NA
ATOM     26  C   UNL     1      33.284 -10.722 -23.826  0.00  0.00    +0.046 C 
ATOM     27  C   UNL     1      33.352  -9.415 -23.104  0.00  0.00    -0.007 C 
ATOM     28  C   UNL     1      34.545 -10.584 -24.672  0.00  0.00    +0.130 C 
ATOM     29  C   UNL     1      34.493  -8.739 -23.553  0.00  0.00    +0.071 C 
ATOM     30  C   UNL     1      32.505  -8.862 -22.163  0.00  0.00    -0.024 C 
ATOM     31  C   UNL     1      34.816  -7.487 -23.058  0.00  0.00    +0.014 C 
ATOM     32  C   UNL     1      32.824  -7.600 -21.659  0.00  0.00    +0.052 C 
ATOM     33  C   UNL     1      33.970  -6.918 -22.102  0.00  0.00    -0.020 C 
ENDBRANCH  24  26
ENDBRANCH  19  24
ENDBRANCH  18  19
ENDBRANCH   1  18
TORSDOF 7
ENDMDL
MODEL 2
REMARK VINA RESULT:     -12.6      1.544      2.323
REMARK  Name = 11840906
REMARK  7 active torsions:
REMARK  status: ('A' for Active; 'I' for Inactive)
REMARK    1  A    between atoms: O_1  and  C_3
REMARK    2  A    between atoms: O_1  and  C_18
REMARK    3  A    between atoms: C_5  and  C_9
REMARK    4  A    between atoms: C_18  and  C_19
REMARK    5  A    between atoms: C_19  and  N_20
REMARK    6  A    between atoms: C_19  and  C_24
REMARK    7  A    between atoms: C_24  and  C_26
REMARK                            x       y       z     vdW  Elec       q    Type
REMARK                         _______ _______ _______ _____ _____    ______ ____
ROOT
ATOM      1  O   UNL     1      34.549 -13.515 -22.822  0.00  0.00    -0.476 OA
ENDROOT
BRANCH   1   3
ATOM      2  N   UNL     1      34.210 -16.495 -24.894  0.00  0.00    -0.239 NA
ATOM      3  C   UNL     1      34.561 -14.836 -23.187  0.00  0.00    +0.158 C 
ATOM      4  C   UNL     1      34.917 -15.814 -22.276  0.00  0.00    +0.040 C 
ATOM      5  C   UNL     1      34.920 -17.145 -22.676  0.00  0.00    +0.022 C 
ATOM      6  C   UNL     1      34.219 -15.211 -24.469  0.00  0.00    +0.136 C 
ATOM      7  C   UNL     1      34.562 -17.430 -23.983  0.00  0.00    +0.099 C 
BRANCH   5   9
ATOM      8  N   UNL     1      35.370 -22.087 -18.515  0.00  0.00    -0.242 NA
ATOM      9  C   UNL     1      35.284 -18.197 -21.756  0.00  0.00    +0.002 C 
ATOM     10  C   UNL     1      34.636 -20.043 -20.307  0.00  0.00    +0.003 C 
ATOM     11  C   UNL     1      34.296 -19.017 -21.204  0.00  0.00    +0.000 C 
ATOM     12  C   UNL     1      35.990 -20.239 -19.969  0.00  0.00    +0.019 C 
ATOM     13  C   UNL     1      36.622 -18.395 -21.417  0.00  0.00    +0.000 C 
ATOM     14  C   UNL     1      36.976 -19.411 -20.528  0.00  0.00    +0.002 C 
ATOM     15  C   UNL     1      33.668 -20.880 -19.738  0.00  0.00    +0.021 C 
ATOM     16  C   UNL     1      36.290 -21.269 -19.075  0.00  0.00    +0.099 C 
ATOM     17  C   UNL     1      34.083 -21.871 -18.863  0.00  0.00    +0.099 C 
ENDBRANCH   5   9
ENDBRANCH   1   3
BRANCH   1  18
ATOM     18  C   UNL     1      33.536 -12.700 -23.400  0.00  0.00    +0.184 C 
BRANCH  18  19
ATOM     19  C   UNL     1      34.023 -11.250 -23.488  0.00  0.00    -0.021 C 
BRANCH  19  20
ATOM     20  N   UNL     1      34.713 -11.065 -24.765  0.00  0.00    +0.384 N 
ATOM     21  H   UNL     1      34.098 -11.350 -25.528  0.00  0.00    -0.089 HD
ATOM     22  H   UNL     1      35.560 -11.634 -24.780  0.00  0.00    -0.089 HD
ATOM     23  H   UNL     1      34.962 -10.083 -24.878  0.00  0.00    -0.089 HD
ENDBRANCH  19  20
BRANCH  19  24
ATOM     24  C   UNL     1      32.855 -10.253 -23.340  0.00  0.00    -0.012 C 
BRANCH  24  26
ATOM     25  N   UNL     1      31.487  -7.479 -21.796  0.00  0.00    -0.270 NA
ATOM     26  C   UNL     1      33.107  -9.157 -22.321  0.00  0.00    +0.046 C 
ATOM     27  C   UNL     1      33.495  -7.845 -22.922  0.00  0.00    -0.007 C 
ATOM     28  C   UNL     1      31.808  -8.729 -21.648  0.00  0.00    +0.130 C 
ATOM     29  C   UNL     1      32.511  -6.910 -22.575  0.00  0.00    +0.071 C 
ATOM     30  C   UNL     1      34.593  -7.494 -23.683  0.00  0.00    -0.024 C 
ATOM     31  C   UNL     1      32.606  -5.594 -22.993  0.00  0.00    +0.014 C 
ATOM     32  C   UNL     1      34.695  -6.167 -24.109  0.00  0.00    +0.052 C 
ATOM     33  C   UNL     1      33.710  -5.226 -23.767  0.00  0.00    -0.020 C 
ENDBRANCH  24  26
ENDBRANCH  19  24
ENDBRANCH  18  19
ENDBRANCH   1  18
TORSDOF 7
ENDMDL
MODEL 3
REMARK VINA RESULT:     -12.3      1.420      1.823
REMARK  Name = 11840906
REMARK  7 active torsions:
REMARK  status: ('A' for Active; 'I' for Inactive)
REMARK    1  A    between atoms: O_1  and  C_3
REMARK    2  A    between atoms: O_1  and  C_18
REMARK    3  A    between atoms: C_5  and  C_9
REMARK    4  A    between atoms: C_18  and  C_19
REMARK    5  A    between atoms: C_19  and  N_20
REMARK    6  A    between atoms: C_19  and  C_24
REMARK    7  A    between atoms: C_24  and  C_26
REMARK                            x       y       z     vdW  Elec       q    Type
REMARK                         _______ _______ _______ _____ _____    ______ ____
ROOT
ATOM      1  O   UNL     1      34.944 -14.902 -23.074  0.00  0.00    -0.476 OA
ENDROOT
BRANCH   1   3
ATOM      2  N   UNL     1      34.300 -18.144 -24.610  0.00  0.00    -0.239 NA
ATOM      3  C   UNL     1      34.804 -16.260 -23.202  0.00  0.00    +0.158 C 
ATOM      4  C   UNL     1      35.014 -17.093 -22.119  0.00  0.00    +0.040 C 
ATOM      5  C   UNL     1      34.865 -18.466 -22.281  0.00  0.00    +0.022 C 
ATOM      6  C   UNL     1      34.454 -16.816 -24.414  0.00  0.00    +0.136 C 
ATOM      7  C   UNL     1      34.510 -18.937 -23.534  0.00  0.00    +0.099 C 
BRANCH   5   9
ATOM      8  N   UNL     1      34.603 -22.675 -17.365  0.00  0.00    -0.242 NA
ATOM      9  C   UNL     1      35.073 -19.372 -21.176  0.00  0.00    +0.002 C 
ATOM     10  C   UNL     1      34.173 -20.914 -19.520  0.00  0.00    +0.003 C 
ATOM     11  C   UNL     1      33.985 -20.031 -20.596  0.00  0.00    +0.000 C 
ATOM     12  C   UNL     1      35.476 -21.130 -19.029  0.00  0.00    +0.019 C 
ATOM     13  C   UNL     1      36.360 -19.590 -20.685  0.00  0.00    +0.000 C 
ATOM     14  C   UNL     1      36.563 -20.464 -19.616  0.00  0.00    +0.002 C 
ATOM     15  C   UNL     1      33.102 -21.588 -18.920  0.00  0.00    +0.021 C 
ATOM     16  C   UNL     1      35.624 -22.015 -17.959  0.00  0.00    +0.099 C 
ATOM     17  C   UNL     1      33.369 -22.444 -17.863  0.00  0.00    +0.099 C 
ENDBRANCH   5   9
ENDBRANCH   1   3
BRANCH   1  18
ATOM     18  C   UNL     1      33.950 -14.095 -23.692  0.00  0.00    +0.184 C 
BRANCH  18  19
ATOM     19  C   UNL     1      33.246 -13.237 -22.635  0.00  0.00    -0.021 C 
BRANCH  19  20
ATOM     20  N   UNL     1      33.563 -13.773 -21.311  0.00  0.00    +0.384 N 
ATOM     21  H   UNL     1      33.773 -13.004 -20.673  0.00  0.00    -0.089 HD
ATOM     22  H   UNL     1      34.374 -14.389 -21.378  0.00  0.00    -0.089 HD
ATOM     23  H   UNL     1      32.764 -14.299 -20.957  0.00  0.00    -0.089 HD
ENDBRANCH  19  20
BRANCH  19  24
ATOM     24  C   UNL     1      33.660 -11.754 -22.745  0.00  0.00    -0.012 C 
BRANCH  24  26
ATOM     25  N   UNL     1      32.775  -8.413 -22.739  0.00  0.00    -0.270 NA
ATOM     26  C   UNL     1      32.492 -10.787 -22.727  0.00  0.00    +0.046 C 
ATOM     27  C   UNL     1      32.197 -10.214 -21.379  0.00  0.00    -0.007 C 
ATOM     28  C   UNL     1      32.843  -9.494 -23.456  0.00  0.00    +0.130 C 
ATOM     29  C   UNL     1      32.377  -8.828 -21.456  0.00  0.00    +0.071 C 
ATOM     30  C   UNL     1      31.802 -10.830 -20.207  0.00  0.00    -0.024 C 
ATOM     31  C   UNL     1      32.169  -8.024 -20.348  0.00  0.00    +0.014 C 
ATOM     32  C   UNL     1      31.591 -10.026 -19.085  0.00  0.00    +0.052 C 
ATOM     33  C   UNL     1      31.773  -8.634 -19.155  0.00  0.00    -0.020 C 
ENDBRANCH  24  26
ENDBRANCH  19  24
ENDBRANCH  18  19
ENDBRANCH   1  18
TORSDOF 7
ENDMDL
MODEL 4
REMARK VINA RESULT:     -12.3      1.519     10.763
REMARK  Name = 11840906
REMARK  7 active torsions:
REMARK  status: ('A' for Active; 'I' for Inactive)
REMARK    1  A    between atoms: O_1  and  C_3
REMARK    2  A    between atoms: O_1  and  C_18
REMARK    3  A    between atoms: C_5  and  C_9
REMARK    4  A    between atoms: C_18  and  C_19
REMARK    5  A    between atoms: C_19  and  N_20
REMARK    6  A    between atoms: C_19  and  C_24
REMARK    7  A    between atoms: C_24  and  C_26
REMARK                            x       y       z     vdW  Elec       q    Type
REMARK                         _______ _______ _______ _____ _____    ______ ____
ROOT
ATOM      1  O   UNL     1      34.495 -15.389 -22.597  0.00  0.00    -0.476 OA
ENDROOT
BRANCH   1   3
ATOM      2  N   UNL     1      33.313 -13.744 -25.628  0.00  0.00    -0.239 NA
ATOM      3  C   UNL     1      34.119 -14.387 -23.455  0.00  0.00    +0.158 C 
ATOM      4  C   UNL     1      34.157 -13.065 -23.050  0.00  0.00    +0.040 C 
ATOM      5  C   UNL     1      33.769 -12.071 -23.942  0.00  0.00    +0.022 C 
ATOM      6  C   UNL     1      33.696 -14.682 -24.733  0.00  0.00    +0.136 C 
ATOM      7  C   UNL     1      33.360 -12.459 -25.207  0.00  0.00    +0.099 C 
BRANCH   5   9
ATOM      8  N   UNL     1      32.873  -6.088 -21.632  0.00  0.00    -0.242 NA
ATOM      9  C   UNL     1      33.795 -10.679 -23.561  0.00  0.00    +0.002 C 
ATOM     10  C   UNL     1      32.803  -8.807 -22.360  0.00  0.00    +0.003 C 
ATOM     11  C   UNL     1      32.792 -10.160 -22.737  0.00  0.00    +0.000 C 
ATOM     12  C   UNL     1      33.841  -7.974 -22.823  0.00  0.00    +0.019 C 
ATOM     13  C   UNL     1      34.819  -9.849 -24.017  0.00  0.00    +0.000 C 
ATOM     14  C   UNL     1      34.845  -8.503 -23.651  0.00  0.00    +0.002 C 
ATOM     15  C   UNL     1      31.813  -8.261 -21.535  0.00  0.00    +0.021 C 
ATOM     16  C   UNL     1      33.820  -6.636 -22.427  0.00  0.00    +0.099 C 
ATOM     17  C   UNL     1      31.895  -6.917 -21.206  0.00  0.00    +0.099 C 
ENDBRANCH   5   9
ENDBRANCH   1   3
BRANCH   1  18
ATOM     18  C   UNL     1      35.289 -16.434 -23.144  0.00  0.00    +0.184 C 
BRANCH  18  19
ATOM     19  C   UNL     1      34.521 -17.759 -23.077  0.00  0.00    -0.021 C 
BRANCH  19  20
ATOM     20  N   UNL     1      34.099 -18.124 -24.429  0.00  0.00    +0.384 N 
ATOM     21  H   UNL     1      34.287 -19.115 -24.588  0.00  0.00    -0.089 HD
ATOM     22  H   UNL     1      34.618 -17.568 -25.109  0.00  0.00    -0.089 HD
ATOM     23  H   UNL     1      33.101 -17.946 -24.534  0.00  0.00    -0.089 HD
ENDBRANCH  19  20
BRANCH  19  24
ATOM     24  C   UNL     1      35.377 -18.876 -22.442  0.00  0.00    -0.012 C 
BRANCH  24  26
ATOM     25  N   UNL     1      36.854 -20.235 -19.628  0.00  0.00    -0.270 NA
ATOM     26  C   UNL     1      35.413 -18.836 -20.926  0.00  0.00    +0.046 C 
ATOM     27  C   UNL     1      34.634 -19.929 -20.270  0.00  0.00    -0.007 C 
ATOM     28  C   UNL     1      36.801 -19.195 -20.404  0.00  0.00    +0.130 C 
ATOM     29  C   UNL     1      35.532 -20.705 -19.526  0.00  0.00    +0.071 C 
ATOM     30  C   UNL     1      33.283 -20.216 -20.304  0.00  0.00    -0.024 C 
ATOM     31  C   UNL     1      35.091 -21.799 -18.800  0.00  0.00    +0.014 C 
ATOM     32  C   UNL     1      32.831 -21.318 -19.575  0.00  0.00    +0.052 C 
ATOM     33  C   UNL     1      33.727 -22.103 -18.830  0.00  0.00    -0.020 C 
ENDBRANCH  24  26
ENDBRANCH  19  24
ENDBRANCH  18  19
ENDBRANCH   1  18
TORSDOF 7
ENDMDL
MODEL 5
REMARK VINA RESULT:     -12.3      1.591      2.224
REMARK  Name = 11840906
REMARK  7 active torsions:
REMARK  status: ('A' for Active; 'I' for Inactive)
REMARK    1  A    between atoms: O_1  and  C_3
REMARK    2  A    between atoms: O_1  and  C_18
REMARK    3  A    between atoms: C_5  and  C_9
REMARK    4  A    between atoms: C_18  and  C_19
REMARK    5  A    between atoms: C_19  and  N_20
REMARK    6  A    between atoms: C_19  and  C_24
REMARK    7  A    between atoms: C_24  and  C_26
REMARK                            x       y       z     vdW  Elec       q    Type
REMARK                         _______ _______ _______ _____ _____    ______ ____
ROOT
ATOM      1  O   UNL     1      34.553 -13.686 -22.971  0.00  0.00    -0.476 OA
ENDROOT
BRANCH   1   3
ATOM      2  N   UNL     1      34.184 -16.750 -24.912  0.00  0.00    -0.239 NA
ATOM      3  C   UNL     1      34.560 -15.022 -23.281  0.00  0.00    +0.158 C 
ATOM      4  C   UNL     1      34.930 -15.961 -22.335  0.00  0.00    +0.040 C 
ATOM      5  C   UNL     1      34.927 -17.308 -22.680  0.00  0.00    +0.022 C 
ATOM      6  C   UNL     1      34.199 -15.450 -24.541  0.00  0.00    +0.136 C 
ATOM      7  C   UNL     1      34.550 -17.647 -23.968  0.00  0.00    +0.099 C 
BRANCH   5   9
ATOM      8  N   UNL     1      35.445 -22.100 -18.355  0.00  0.00    -0.242 NA
ATOM      9  C   UNL     1      35.305 -18.321 -21.722  0.00  0.00    +0.002 C 
ATOM     10  C   UNL     1      34.683 -20.134 -20.220  0.00  0.00    +0.003 C 
ATOM     11  C   UNL     1      34.331 -19.145 -21.154  0.00  0.00    +0.000 C 
ATOM     12  C   UNL     1      36.038 -20.287 -19.862  0.00  0.00    +0.019 C 
ATOM     13  C   UNL     1      36.644 -18.476 -21.363  0.00  0.00    +0.000 C 
ATOM     14  C   UNL     1      37.011 -19.453 -20.437  0.00  0.00    +0.002 C 
ATOM     15  C   UNL     1      33.729 -20.974 -19.635  0.00  0.00    +0.021 C 
ATOM     16  C   UNL     1      36.351 -21.280 -18.932  0.00  0.00    +0.099 C 
ATOM     17  C   UNL     1      34.157 -21.926 -18.723  0.00  0.00    +0.099 C 
ENDBRANCH   5   9
ENDBRANCH   1   3
BRANCH   1  18
ATOM     18  C   UNL     1      33.514 -12.902 -23.544  0.00  0.00    +0.184 C 
BRANCH  18  19
ATOM     19  C   UNL     1      34.119 -11.772 -24.383  0.00  0.00    -0.021 C 
BRANCH  19  20
ATOM     20  N   UNL     1      33.267 -11.549 -25.551  0.00  0.00    +0.384 N 
ATOM     21  H   UNL     1      33.850 -11.440 -26.382  0.00  0.00    -0.089 HD
ATOM     22  H   UNL     1      32.713 -10.704 -25.412  0.00  0.00    -0.089 HD
ATOM     23  H   UNL     1      32.644 -12.347 -25.675  0.00  0.00    -0.089 HD
ENDBRANCH  19  20
BRANCH  19  24
ATOM     24  C   UNL     1      34.276 -10.478 -23.556  0.00  0.00    -0.012 C 
BRANCH  24  26
ATOM     25  N   UNL     1      32.875  -7.592 -22.269  0.00  0.00    -0.270 NA
ATOM     26  C   UNL     1      32.973  -9.735 -23.324  0.00  0.00    +0.046 C 
ATOM     27  C   UNL     1      32.443  -9.857 -21.932  0.00  0.00    -0.007 C 
ATOM     28  C   UNL     1      33.192  -8.226 -23.357  0.00  0.00    +0.130 C 
ATOM     29  C   UNL     1      32.407  -8.572 -21.376  0.00  0.00    +0.071 C 
ATOM     30  C   UNL     1      32.024 -10.966 -21.224  0.00  0.00    -0.024 C 
ATOM     31  C   UNL     1      31.953  -8.372 -20.084  0.00  0.00    +0.014 C 
ATOM     32  C   UNL     1      31.564 -10.772 -19.919  0.00  0.00    +0.052 C 
ATOM     33  C   UNL     1      31.529  -9.487 -19.354  0.00  0.00    -0.020 C 
ENDBRANCH  24  26
ENDBRANCH  19  24
ENDBRANCH  18  19
ENDBRANCH   1  18
TORSDOF 7
ENDMDL
MODEL 6
REMARK VINA RESULT:     -12.3      1.804     10.796
REMARK  Name = 11840906
REMARK  7 active torsions:
REMARK  status: ('A' for Active; 'I' for Inactive)
REMARK    1  A    between atoms: O_1  and  C_3
REMARK    2  A    between atoms: O_1  and  C_18
REMARK    3  A    between atoms: C_5  and  C_9
REMARK    4  A    between atoms: C_18  and  C_19
REMARK    5  A    between atoms: C_19  and  N_20
REMARK    6  A    between atoms: C_19  and  C_24
REMARK    7  A    between atoms: C_24  and  C_26
REMARK                            x       y       z     vdW  Elec       q    Type
REMARK                         _______ _______ _______ _____ _____    ______ ____
ROOT
ATOM      1  O   UNL     1      35.686 -17.167 -22.137  0.00  0.00    -0.476 OA
ENDROOT
BRANCH   1   3
ATOM      2  N   UNL     1      34.115 -15.712 -25.088  0.00  0.00    -0.239 NA
ATOM      3  C   UNL     1      34.991 -16.282 -22.921  0.00  0.00    +0.158 C 
ATOM      4  C   UNL     1      34.478 -15.117 -22.380  0.00  0.00    +0.040 C 
ATOM      5  C   UNL     1      33.777 -14.240 -23.200  0.00  0.00    +0.022 C 
ATOM      6  C   UNL     1      34.791 -16.541 -24.260  0.00  0.00    +0.136 C 
ATOM      7  C   UNL     1      33.625 -14.580 -24.534  0.00  0.00    +0.099 C 
BRANCH   5   9
ATOM      8  N   UNL     1      31.887  -8.213 -21.771  0.00  0.00    -0.242 NA
ATOM      9  C   UNL     1      33.226 -13.012 -22.677  0.00  0.00    +0.002 C 
ATOM     10  C   UNL     1      32.971 -10.594 -22.811  0.00  0.00    +0.003 C 
ATOM     11  C   UNL     1      33.499 -11.796 -23.310  0.00  0.00    +0.000 C 
ATOM     12  C   UNL     1      32.159 -10.627 -21.660  0.00  0.00    +0.019 C 
ATOM     13  C   UNL     1      32.422 -13.038 -21.538  0.00  0.00    +0.000 C 
ATOM     14  C   UNL     1      31.890 -11.852 -21.029  0.00  0.00    +0.002 C 
ATOM     15  C   UNL     1      33.228  -9.362 -23.425  0.00  0.00    +0.021 C 
ATOM     16  C   UNL     1      31.651  -9.413 -21.194  0.00  0.00    +0.099 C 
ATOM     17  C   UNL     1      32.669  -8.220 -22.873  0.00  0.00    +0.099 C 
ENDBRANCH   5   9
ENDBRANCH   1   3
BRANCH   1  18
ATOM     18  C   UNL     1      35.342 -18.541 -22.264  0.00  0.00    +0.184 C 
BRANCH  18  19
ATOM     19  C   UNL     1      35.799 -19.307 -21.018  0.00  0.00    -0.021 C 
BRANCH  19  20
ATOM     20  N   UNL     1      36.687 -18.444 -20.238  0.00  0.00    +0.384 N 
ATOM     21  H   UNL     1      37.363 -19.020 -19.733  0.00  0.00    -0.089 HD
ATOM     22  H   UNL     1      36.137 -17.904 -19.571  0.00  0.00    -0.089 HD
ATOM     23  H   UNL     1      37.182 -17.810 -20.864  0.00  0.00    -0.089 HD
ENDBRANCH  19  20
BRANCH  19  24
ATOM     24  C   UNL     1      34.596 -19.774 -20.171  0.00  0.00    -0.012 C 
BRANCH  24  26
ATOM     25  N   UNL     1      32.991 -22.297 -18.436  0.00  0.00    -0.270 NA
ATOM     26  C   UNL     1      34.584 -21.265 -19.891  0.00  0.00    +0.046 C 
ATOM     27  C   UNL     1      35.224 -21.646 -18.595  0.00  0.00    -0.007 C 
ATOM     28  C   UNL     1      33.169 -21.755 -19.603  0.00  0.00    +0.130 C 
ATOM     29  C   UNL     1      34.242 -22.246 -17.796  0.00  0.00    +0.071 C 
ATOM     30  C   UNL     1      36.525 -21.499 -18.157  0.00  0.00    -0.024 C 
ATOM     31  C   UNL     1      34.547 -22.708 -16.527  0.00  0.00    +0.014 C 
ATOM     32  C   UNL     1      36.840 -21.963 -16.878  0.00  0.00    +0.052 C 
ATOM     33  C   UNL     1      35.860 -22.561 -16.070  0.00  0.00    -0.020 C 
ENDBRANCH  24  26
ENDBRANCH  19  24
ENDBRANCH  18  19
ENDBRANCH   1  18
TORSDOF 7
ENDMDL
MODEL 7
REMARK VINA RESULT:     -11.9      3.338     11.942
REMARK  Name = 11840906
REMARK  7 active torsions:
REMARK  status: ('A' for Active; 'I' for Inactive)
REMARK    1  A    between atoms: O_1  and  C_3
REMARK    2  A    between atoms: O_1  and  C_18
REMARK    3  A    between atoms: C_5  and  C_9
REMARK    4  A    between atoms: C_18  and  C_19
REMARK    5  A    between atoms: C_19  and  N_20
REMARK    6  A    between atoms: C_19  and  C_24
REMARK    7  A    between atoms: C_24  and  C_26
REMARK                            x       y       z     vdW  Elec       q    Type
REMARK                         _______ _______ _______ _____ _____    ______ ____
ROOT
ATOM      1  O   UNL     1      31.618 -11.781 -21.762  0.00  0.00    -0.476 OA
ENDROOT
BRANCH   1   3
ATOM      2  N   UNL     1      31.933  -9.206 -19.201  0.00  0.00    -0.239 NA
ATOM      3  C   UNL     1      31.779 -10.543 -21.195  0.00  0.00    +0.158 C 
ATOM      4  C   UNL     1      31.945  -9.423 -21.989  0.00  0.00    +0.040 C 
ATOM      5  C   UNL     1      32.106  -8.181 -21.384  0.00  0.00    +0.022 C 
ATOM      6  C   UNL     1      31.780 -10.395 -19.824  0.00  0.00    +0.136 C 
ATOM      7  C   UNL     1      32.093  -8.126 -20.001  0.00  0.00    +0.099 C 
BRANCH   5   9
ATOM      8  N   UNL     1      33.827  -3.409 -25.410  0.00  0.00    -0.242 NA
ATOM      9  C   UNL     1      32.281  -6.985 -22.176  0.00  0.00    +0.002 C 
ATOM     10  C   UNL     1      33.505  -5.751 -23.880  0.00  0.00    +0.003 C 
ATOM     11  C   UNL     1      33.322  -6.907 -23.105  0.00  0.00    +0.000 C 
ATOM     12  C   UNL     1      32.623  -4.664 -23.711  0.00  0.00    +0.019 C 
ATOM     13  C   UNL     1      31.412  -5.907 -22.012  0.00  0.00    +0.000 C 
ATOM     14  C   UNL     1      31.580  -4.751 -22.775  0.00  0.00    +0.002 C 
ATOM     15  C   UNL     1      34.539  -5.644 -24.819  0.00  0.00    +0.021 C 
ATOM     16  C   UNL     1      32.835  -3.532 -24.500  0.00  0.00    +0.099 C 
ATOM     17  C   UNL     1      34.652  -4.470 -25.546  0.00  0.00    +0.099 C 
ENDBRANCH   5   9
ENDBRANCH   1   3
BRANCH   1  18
ATOM     18  C   UNL     1      32.467 -12.818 -21.286  0.00  0.00    +0.184 C 
BRANCH  18  19
ATOM     19  C   UNL     1      33.339 -13.341 -22.432  0.00  0.00    -0.021 C 
BRANCH  19  20
ATOM     20  N   UNL     1      34.154 -12.237 -22.941  0.00  0.00    +0.384 N 
ATOM     21  H   UNL     1      33.951 -11.391 -22.408  0.00  0.00    -0.089 HD
ATOM     22  H   UNL     1      33.935 -12.079 -23.925  0.00  0.00    -0.089 HD
ATOM     23  H   UNL     1      35.142 -12.471 -22.845  0.00  0.00    -0.089 HD
ENDBRANCH  19  20
BRANCH  19  24
ATOM     24  C   UNL     1      34.226 -14.518 -21.973  0.00  0.00    -0.012 C 
BRANCH  24  26
ATOM     25  N   UNL     1      33.768 -16.321 -24.887  0.00  0.00    -0.270 NA
ATOM     26  C   UNL     1      34.937 -15.231 -23.108  0.00  0.00    +0.046 C 
ATOM     27  C   UNL     1      35.001 -16.715 -22.949  0.00  0.00    -0.007 C 
ATOM     28  C   UNL     1      34.113 -15.171 -24.390  0.00  0.00    +0.130 C 
ATOM     29  C   UNL     1      34.304 -17.289 -24.020  0.00  0.00    +0.071 C 
ATOM     30  C   UNL     1      35.610 -17.490 -21.981  0.00  0.00    -0.024 C 
ATOM     31  C   UNL     1      34.197 -18.664 -24.139  0.00  0.00    +0.014 C 
ATOM     32  C   UNL     1      35.506 -18.878 -22.095  0.00  0.00    +0.052 C 
ATOM     33  C   UNL     1      34.805 -19.460 -23.165  0.00  0.00    -0.020 C 
ENDBRANCH  24  26
ENDBRANCH  19  24
ENDBRANCH  18  19
ENDBRANCH   1  18
TORSDOF 7
ENDMDL
MODEL 8
REMARK VINA RESULT:     -11.7      3.016     11.727
REMARK  Name = 11840906
REMARK  7 active torsions:
REMARK  status: ('A' for Active; 'I' for Inactive)
REMARK    1  A    between atoms: O_1  and  C_3
REMARK    2  A    between atoms: O_1  and  C_18
REMARK    3  A    between atoms: C_5  and  C_9
REMARK    4  A    between atoms: C_18  and  C_19
REMARK    5  A    between atoms: C_19  and  N_20
REMARK    6  A    between atoms: C_19  and  C_24
REMARK    7  A    between atoms: C_24  and  C_26
REMARK                            x       y       z     vdW  Elec       q    Type
REMARK                         _______ _______ _______ _____ _____    ______ ____
ROOT
ATOM      1  O   UNL     1      34.665 -21.527 -19.830  0.00  0.00    -0.476 OA
ENDROOT
BRANCH   1   3
ATOM      2  N   UNL     1      37.433 -19.158 -19.962  0.00  0.00    -0.239 NA
ATOM      3  C   UNL     1      35.394 -20.417 -20.173  0.00  0.00    +0.158 C 
ATOM      4  C   UNL     1      34.870 -19.471 -21.034  0.00  0.00    +0.040 C 
ATOM      5  C   UNL     1      35.634 -18.356 -21.363  0.00  0.00    +0.022 C 
ATOM      6  C   UNL     1      36.662 -20.228 -19.665  0.00  0.00    +0.136 C 
ATOM      7  C   UNL     1      36.897 -18.248 -20.805  0.00  0.00    +0.099 C 
BRANCH   5   9
ATOM      8  N   UNL     1      33.505 -13.070 -24.440  0.00  0.00    -0.242 NA
ATOM      9  C   UNL     1      35.124 -17.343 -22.258  0.00  0.00    +0.002 C 
ATOM     10  C   UNL     1      34.502 -15.027 -22.678  0.00  0.00    +0.003 C 
ATOM     11  C   UNL     1      34.997 -16.022 -21.820  0.00  0.00    +0.000 C 
ATOM     12  C   UNL     1      34.133 -15.376 -23.993  0.00  0.00    +0.019 C 
ATOM     13  C   UNL     1      34.757 -17.683 -23.559  0.00  0.00    +0.000 C 
ATOM     14  C   UNL     1      34.263 -16.706 -24.425  0.00  0.00    +0.002 C 
ATOM     15  C   UNL     1      34.365 -13.695 -22.267  0.00  0.00    +0.021 C 
ATOM     16  C   UNL     1      33.646 -14.360 -24.818  0.00  0.00    +0.099 C 
ATOM     17  C   UNL     1      33.870 -12.772 -23.174  0.00  0.00    +0.099 C 
ENDBRANCH   5   9
ENDBRANCH   1   3
BRANCH   1  18
ATOM     18  C   UNL     1      34.843 -22.027 -18.511  0.00  0.00    +0.184 C 
BRANCH  18  19
ATOM     19  C   UNL     1      33.496 -22.058 -17.782  0.00  0.00    -0.021 C 
BRANCH  19  20
ATOM     20  N   UNL     1      32.424 -22.062 -18.778  0.00  0.00    +0.384 N 
ATOM     21  H   UNL     1      31.544 -22.321 -18.330  0.00  0.00    -0.089 HD
ATOM     22  H   UNL     1      32.643 -22.738 -19.511  0.00  0.00    -0.089 HD
ATOM     23  H   UNL     1      32.337 -21.133 -19.188  0.00  0.00    -0.089 HD
ENDBRANCH  19  20
BRANCH  19  24
ATOM     24  C   UNL     1      33.389 -23.282 -16.848  0.00  0.00    -0.012 C 
BRANCH  24  26
ATOM     25  N   UNL     1      32.778 -24.542 -13.687  0.00  0.00    -0.270 NA
ATOM     26  C   UNL     1      32.798 -22.967 -15.487  0.00  0.00    +0.046 C 
ATOM     27  C   UNL     1      31.422 -23.513 -15.279  0.00  0.00    -0.007 C 
ATOM     28  C   UNL     1      33.520 -23.738 -14.387  0.00  0.00    +0.130 C 
ATOM     29  C   UNL     1      31.480 -24.421 -14.215  0.00  0.00    +0.071 C 
ATOM     30  C   UNL     1      30.239 -23.243 -15.939  0.00  0.00    -0.024 C 
ATOM     31  C   UNL     1      30.343 -25.087 -13.789  0.00  0.00    +0.014 C 
ATOM     32  C   UNL     1      29.088 -23.911 -15.516  0.00  0.00    +0.052 C 
ATOM     33  C   UNL     1      29.140 -24.826 -14.451  0.00  0.00    -0.020 C 
ENDBRANCH  24  26
ENDBRANCH  19  24
ENDBRANCH  18  19
ENDBRANCH   1  18
TORSDOF 7
ENDMDL
MODEL 9
REMARK VINA RESULT:     -11.3      2.904      5.884
REMARK  Name = 11840906
REMARK  7 active torsions:
REMARK  status: ('A' for Active; 'I' for Inactive)
REMARK    1  A    between atoms: O_1  and  C_3
REMARK    2  A    between atoms: O_1  and  C_18
REMARK    3  A    between atoms: C_5  and  C_9
REMARK    4  A    between atoms: C_18  and  C_19
REMARK    5  A    between atoms: C_19  and  N_20
REMARK    6  A    between atoms: C_19  and  C_24
REMARK    7  A    between atoms: C_24  and  C_26
REMARK                            x       y       z     vdW  Elec       q    Type
REMARK                         _______ _______ _______ _____ _____    ______ ____
ROOT
ATOM      1  O   UNL     1      31.985 -10.421 -21.309  0.00  0.00    -0.476 OA
ENDROOT
BRANCH   1   3
ATOM      2  N   UNL     1      33.819 -10.783 -24.438  0.00  0.00    -0.239 NA
ATOM      3  C   UNL     1      32.697 -11.009 -22.322  0.00  0.00    +0.158 C 
ATOM      4  C   UNL     1      33.010 -12.355 -22.273  0.00  0.00    +0.040 C 
ATOM      5  C   UNL     1      33.734 -12.922 -23.316  0.00  0.00    +0.022 C 
ATOM      6  C   UNL     1      33.115 -10.266 -23.406  0.00  0.00    +0.136 C 
ATOM      7  C   UNL     1      34.110 -12.101 -24.365  0.00  0.00    +0.099 C 
BRANCH   5   9
ATOM      8  N   UNL     1      35.597 -19.008 -22.117  0.00  0.00    -0.242 NA
ATOM      9  C   UNL     1      34.080 -14.324 -23.304  0.00  0.00    +0.002 C 
ATOM     10  C   UNL     1      34.927 -16.273 -22.115  0.00  0.00    +0.003 C 
ATOM     11  C   UNL     1      34.584 -14.911 -22.140  0.00  0.00    +0.000 C 
ATOM     12  C   UNL     1      34.755 -17.046 -23.281  0.00  0.00    +0.019 C 
ATOM     13  C   UNL     1      33.914 -15.093 -24.455  0.00  0.00    +0.000 C 
ATOM     14  C   UNL     1      34.249 -16.448 -24.447  0.00  0.00    +0.002 C 
ATOM     15  C   UNL     1      35.433 -16.888 -20.963  0.00  0.00    +0.021 C 
ATOM     16  C   UNL     1      35.106 -18.395 -23.219  0.00  0.00    +0.099 C 
ATOM     17  C   UNL     1      35.746 -18.237 -21.019  0.00  0.00    +0.099 C 
ENDBRANCH   5   9
ENDBRANCH   1   3
BRANCH   1  18
ATOM     18  C   UNL     1      31.428  -9.141 -21.577  0.00  0.00    +0.184 C 
BRANCH  18  19
ATOM     19  C   UNL     1      31.956  -8.122 -20.561  0.00  0.00    -0.021 C 
BRANCH  19  20
ATOM     20  N   UNL     1      32.281  -8.824 -19.320  0.00  0.00    +0.384 N 
ATOM     21  H   UNL     1      31.960  -8.273 -18.523  0.00  0.00    -0.089 HD
ATOM     22  H   UNL     1      33.291  -8.955 -19.257  0.00  0.00    -0.089 HD
ATOM     23  H   UNL     1      31.819  -9.734 -19.312  0.00  0.00    -0.089 HD
ENDBRANCH  19  20
BRANCH  19  24
ATOM     24  C   UNL     1      33.185  -7.365 -21.108  0.00  0.00    -0.012 C 
BRANCH  24  26
ATOM     25  N   UNL     1      30.834  -5.177 -22.385  0.00  0.00    -0.270 NA
ATOM     26  C   UNL     1      32.910  -5.914 -21.455  0.00  0.00    +0.046 C 
ATOM     27  C   UNL     1      33.066  -5.596 -22.907  0.00  0.00    -0.007 C 
ATOM     28  C   UNL     1      31.427  -5.590 -21.305  0.00  0.00    +0.130 C 
ATOM     29  C   UNL     1      31.821  -5.169 -23.386  0.00  0.00    +0.071 C 
ATOM     30  C   UNL     1      34.175  -5.660 -23.727  0.00  0.00    -0.024 C 
ATOM     31  C   UNL     1      31.661  -4.799 -24.710  0.00  0.00    +0.014 C 
ATOM     32  C   UNL     1      34.021  -5.288 -25.065  0.00  0.00    +0.052 C 
ATOM     33  C   UNL     1      32.774  -4.862 -25.552  0.00  0.00    -0.020 C 
ENDBRANCH  24  26
ENDBRANCH  19  24
ENDBRANCH  18  19
ENDBRANCH   1  18
TORSDOF 7
ENDMDL
