MODEL 1
REMARK VINA RESULT:     -11.4      0.000      0.000
REMARK  Name = 448841
REMARK  3 active torsions:
REMARK  status: ('A' for Active; 'I' for Inactive)
REMARK    1  A    between atoms: C_1  and  C_17
REMARK    2  A    between atoms: C_9  and  C_13
REMARK    3  A    between atoms: C_18  and  C_20
REMARK                            x       y       z     vdW  Elec       q    Type
REMARK                         _______ _______ _______ _____ _____    ______ ____
ROOT
ATOM      1  C   UNL     1      35.650 -21.005 -19.329  0.00  0.00    -0.022 C 
ATOM      2  C   UNL     1      34.343 -21.420 -19.074  0.00  0.00    -0.004 C 
ATOM      3  C   UNL     1      36.656 -21.261 -18.401  0.00  0.00    -0.004 C 
ATOM      4  C   UNL     1      34.025 -22.098 -17.885  0.00  0.00    -0.000 C 
ATOM      5  C   UNL     1      36.357 -21.934 -17.215  0.00  0.00    -0.000 C 
ATOM      6  C   UNL     1      35.048 -22.359 -16.942  0.00  0.00    +0.000 C 
ATOM      7  C   UNL     1      32.715 -22.523 -17.612  0.00  0.00    +0.000 C 
ATOM      8  C   UNL     1      34.731 -23.036 -15.754  0.00  0.00    +0.003 C 
ATOM      9  C   UNL     1      33.423 -23.452 -15.499  0.00  0.00    +0.031 C 
ATOM     10  C   UNL     1      32.417 -23.196 -16.427  0.00  0.00    +0.003 C 
ENDROOT
BRANCH   9  13
ATOM     11  N   UNL     1      31.792 -24.400 -13.883  0.00  0.00    -0.343 N 
ATOM     12  N   UNL     1      34.088 -24.567 -13.476  0.00  0.00    -0.285 NA
ATOM     13  C   UNL     1      33.111 -24.153 -14.264  0.00  0.00    +0.117 C 
ATOM     14  H   UNL     1      31.604 -24.876 -13.043  0.00  0.00    +0.144 HD
ATOM     15  H   UNL     1      31.050 -24.097 -14.455  0.00  0.00    +0.144 HD
ATOM     16  H   UNL     1      33.877 -25.043 -12.640  0.00  0.00    +0.188 HD
ENDBRANCH   9  13
BRANCH   1  17
ATOM     17  C   UNL     1      35.969 -20.286 -20.594  0.00  0.00    +0.027 C 
ATOM     18  C   UNL     1      35.580 -18.848 -20.737  0.00  0.00    +0.027 C 
ATOM     19  C   UNL     1      37.025 -19.224 -20.584  0.00  0.00    +0.009 C 
BRANCH  18  20
ATOM     20  C   UNL     1      35.092 -18.356 -22.049  0.00  0.00    -0.022 C 
ATOM     21  C   UNL     1      34.473 -19.234 -22.945  0.00  0.00    -0.004 C 
ATOM     22  C   UNL     1      35.248 -17.011 -22.400  0.00  0.00    -0.004 C 
ATOM     23  C   UNL     1      34.016 -18.772 -24.179  0.00  0.00    -0.000 C 
ATOM     24  C   UNL     1      34.792 -16.549 -23.634  0.00  0.00    -0.000 C 
ATOM     25  C   UNL     1      34.176 -17.430 -24.524  0.00  0.00    -0.000 C 
ENDBRANCH  18  20
ENDBRANCH   1  17
TORSDOF 3
ENDMDL
MODEL 2
REMARK VINA RESULT:     -11.3      0.801      2.148
REMARK  Name = 448841
REMARK  3 active torsions:
REMARK  status: ('A' for Active; 'I' for Inactive)
REMARK    1  A    between atoms: C_1  and  C_17
REMARK    2  A    between atoms: C_9  and  C_13
REMARK    3  A    between atoms: C_18  and  C_20
REMARK                            x       y       z     vdW  Elec       q    Type
REMARK                         _______ _______ _______ _____ _____    ______ ____
ROOT
ATOM      1  C   UNL     1      35.192 -20.935 -19.565  0.00  0.00    -0.022 C 
ATOM      2  C   UNL     1      36.095 -21.259 -18.554  0.00  0.00    -0.004 C 
ATOM      3  C   UNL     1      33.865 -21.347 -19.474  0.00  0.00    -0.004 C 
ATOM      4  C   UNL     1      35.683 -22.001 -17.434  0.00  0.00    -0.000 C 
ATOM      5  C   UNL     1      33.439 -22.085 -18.368  0.00  0.00    -0.000 C 
ATOM      6  C   UNL     1      34.334 -22.420 -17.340  0.00  0.00    +0.000 C 
ATOM      7  C   UNL     1      36.579 -22.337 -16.407  0.00  0.00    +0.000 C 
ATOM      8  C   UNL     1      33.921 -23.162 -16.223  0.00  0.00    +0.003 C 
ATOM      9  C   UNL     1      34.825 -23.486 -15.210  0.00  0.00    +0.031 C 
ATOM     10  C   UNL     1      36.151 -23.074 -15.302  0.00  0.00    +0.003 C 
ENDROOT
BRANCH   9  13
ATOM     11  N   UNL     1      35.287 -24.952 -13.259  0.00  0.00    -0.343 N 
ATOM     12  N   UNL     1      33.097 -24.304 -13.754  0.00  0.00    -0.285 NA
ATOM     13  C   UNL     1      34.382 -24.254 -14.058  0.00  0.00    +0.117 C 
ATOM     14  H   UNL     1      34.965 -25.466 -12.484  0.00  0.00    +0.144 HD
ATOM     15  H   UNL     1      36.248 -24.930 -13.471  0.00  0.00    +0.144 HD
ATOM     16  H   UNL     1      32.795 -24.824 -12.974  0.00  0.00    +0.188 HD
ENDBRANCH   9  13
BRANCH   1  17
ATOM     17  C   UNL     1      35.647 -20.148 -20.745  0.00  0.00    +0.027 C 
ATOM     18  C   UNL     1      35.416 -18.669 -20.772  0.00  0.00    +0.027 C 
ATOM     19  C   UNL     1      36.805 -19.210 -20.596  0.00  0.00    +0.009 C 
BRANCH  18  20
ATOM     20  C   UNL     1      35.047 -18.015 -22.052  0.00  0.00    -0.022 C 
ATOM     21  C   UNL     1      35.287 -16.651 -22.240  0.00  0.00    -0.004 C 
ATOM     22  C   UNL     1      34.455 -18.758 -23.078  0.00  0.00    -0.004 C 
ATOM     23  C   UNL     1      34.938 -16.034 -23.442  0.00  0.00    -0.000 C 
ATOM     24  C   UNL     1      34.106 -18.143 -24.280  0.00  0.00    -0.000 C 
ATOM     25  C   UNL     1      34.348 -16.781 -24.462  0.00  0.00    -0.000 C 
ENDBRANCH  18  20
ENDBRANCH   1  17
TORSDOF 3
ENDMDL
MODEL 3
REMARK VINA RESULT:     -11.1      1.213      2.008
REMARK  Name = 448841
REMARK  3 active torsions:
REMARK  status: ('A' for Active; 'I' for Inactive)
REMARK    1  A    between atoms: C_1  and  C_17
REMARK    2  A    between atoms: C_9  and  C_13
REMARK    3  A    between atoms: C_18  and  C_20
REMARK                            x       y       z     vdW  Elec       q    Type
REMARK                         _______ _______ _______ _____ _____    ______ ____
ROOT
ATOM      1  C   UNL     1      34.556 -20.106 -20.588  0.00  0.00    -0.022 C 
ATOM      2  C   UNL     1      33.485 -20.672 -19.898  0.00  0.00    -0.004 C 
ATOM      3  C   UNL     1      35.860 -20.327 -20.154  0.00  0.00    -0.004 C 
ATOM      4  C   UNL     1      33.704 -21.469 -18.762  0.00  0.00    -0.000 C 
ATOM      5  C   UNL     1      36.096 -21.116 -19.027  0.00  0.00    -0.000 C 
ATOM      6  C   UNL     1      35.030 -21.694 -18.320  0.00  0.00    +0.000 C 
ATOM      7  C   UNL     1      32.638 -22.047 -18.055  0.00  0.00    +0.000 C 
ATOM      8  C   UNL     1      35.250 -22.490 -17.185  0.00  0.00    +0.003 C 
ATOM      9  C   UNL     1      34.178 -23.057 -16.494  0.00  0.00    +0.031 C 
ATOM     10  C   UNL     1      32.875 -22.836 -16.929  0.00  0.00    +0.003 C 
ENDROOT
BRANCH   9  13
ATOM     11  N   UNL     1      33.567 -23.847 -14.221  0.00  0.00    -0.343 N 
ATOM     12  N   UNL     1      35.477 -24.675 -15.282  0.00  0.00    -0.285 NA
ATOM     13  C   UNL     1      34.423 -23.880 -15.321  0.00  0.00    +0.117 C 
ATOM     14  H   UNL     1      33.752 -24.412 -13.436  0.00  0.00    +0.144 HD
ATOM     15  H   UNL     1      32.778 -23.258 -14.229  0.00  0.00    +0.144 HD
ATOM     16  H   UNL     1      35.644 -25.233 -14.488  0.00  0.00    +0.188 HD
ENDBRANCH   9  13
BRANCH   1  17
ATOM     17  C   UNL     1      34.305 -19.263 -21.791  0.00  0.00    +0.027 C 
ATOM     18  C   UNL     1      35.344 -18.276 -22.223  0.00  0.00    +0.027 C 
ATOM     19  C   UNL     1      35.097 -19.513 -23.036  0.00  0.00    +0.009 C 
BRANCH  18  20
ATOM     20  C   UNL     1      34.917 -16.958 -22.755  0.00  0.00    -0.022 C 
ATOM     21  C   UNL     1      34.527 -16.832 -24.092  0.00  0.00    -0.004 C 
ATOM     22  C   UNL     1      34.903 -15.834 -21.925  0.00  0.00    -0.004 C 
ATOM     23  C   UNL     1      34.128 -15.593 -24.594  0.00  0.00    -0.000 C 
ATOM     24  C   UNL     1      34.505 -14.595 -22.426  0.00  0.00    -0.000 C 
ATOM     25  C   UNL     1      34.117 -14.475 -23.760  0.00  0.00    -0.000 C 
ENDBRANCH  18  20
ENDBRANCH   1  17
TORSDOF 3
ENDMDL
MODEL 4
REMARK VINA RESULT:     -10.8      0.893      1.489
REMARK  Name = 448841
REMARK  3 active torsions:
REMARK  status: ('A' for Active; 'I' for Inactive)
REMARK    1  A    between atoms: C_1  and  C_17
REMARK    2  A    between atoms: C_9  and  C_13
REMARK    3  A    between atoms: C_18  and  C_20
REMARK                            x       y       z     vdW  Elec       q    Type
REMARK                         _______ _______ _______ _____ _____    ______ ____
ROOT
ATOM      1  C   UNL     1      35.122 -21.631 -18.649  0.00  0.00    -0.022 C 
ATOM      2  C   UNL     1      33.773 -21.919 -18.443  0.00  0.00    -0.004 C 
ATOM      3  C   UNL     1      36.054 -21.910 -17.653  0.00  0.00    -0.004 C 
ATOM      4  C   UNL     1      33.337 -22.490 -17.237  0.00  0.00    -0.000 C 
ATOM      5  C   UNL     1      35.638 -22.479 -16.447  0.00  0.00    -0.000 C 
ATOM      6  C   UNL     1      34.284 -22.775 -16.223  0.00  0.00    +0.000 C 
ATOM      7  C   UNL     1      31.983 -22.786 -17.013  0.00  0.00    +0.000 C 
ATOM      8  C   UNL     1      33.849 -23.346 -15.017  0.00  0.00    +0.003 C 
ATOM      9  C   UNL     1      32.499 -23.634 -14.812  0.00  0.00    +0.031 C 
ATOM     10  C   UNL     1      31.568 -23.355 -15.808  0.00  0.00    +0.003 C 
ENDROOT
BRANCH   9  13
ATOM     11  N   UNL     1      30.728 -24.189 -13.162  0.00  0.00    -0.343 N 
ATOM     12  N   UNL     1      32.946 -24.811 -12.765  0.00  0.00    -0.285 NA
ATOM     13  C   UNL     1      32.065 -24.226 -13.557  0.00  0.00    +0.117 C 
ATOM     14  H   UNL     1      30.456 -24.597 -12.308  0.00  0.00    +0.144 HD
ATOM     15  H   UNL     1      30.057 -23.756 -13.737  0.00  0.00    +0.144 HD
ATOM     16  H   UNL     1      32.653 -25.213 -11.915  0.00  0.00    +0.188 HD
ENDBRANCH   9  13
BRANCH   1  17
ATOM     17  C   UNL     1      35.567 -21.024 -19.934  0.00  0.00    +0.027 C 
ATOM     18  C   UNL     1      35.632 -19.533 -20.056  0.00  0.00    +0.027 C 
ATOM     19  C   UNL     1      36.897 -20.339 -19.997  0.00  0.00    +0.009 C 
BRANCH  18  20
ATOM     20  C   UNL     1      35.238 -18.891 -21.335  0.00  0.00    -0.022 C 
ATOM     21  C   UNL     1      35.567 -17.555 -21.582  0.00  0.00    -0.004 C 
ATOM     22  C   UNL     1      34.533 -19.618 -22.299  0.00  0.00    -0.004 C 
ATOM     23  C   UNL     1      35.194 -16.951 -22.783  0.00  0.00    -0.000 C 
ATOM     24  C   UNL     1      34.160 -19.014 -23.500  0.00  0.00    -0.000 C 
ATOM     25  C   UNL     1      34.491 -17.680 -23.741  0.00  0.00    -0.000 C 
ENDBRANCH  18  20
ENDBRANCH   1  17
TORSDOF 3
ENDMDL
MODEL 5
REMARK VINA RESULT:     -10.6      3.981      8.684
REMARK  Name = 448841
REMARK  3 active torsions:
REMARK  status: ('A' for Active; 'I' for Inactive)
REMARK    1  A    between atoms: C_1  and  C_17
REMARK    2  A    between atoms: C_9  and  C_13
REMARK    3  A    between atoms: C_18  and  C_20
REMARK                            x       y       z     vdW  Elec       q    Type
REMARK                         _______ _______ _______ _____ _____    ______ ____
ROOT
ATOM      1  C   UNL     1      34.076 -22.594 -17.264  0.00  0.00    -0.022 C 
ATOM      2  C   UNL     1      35.259 -22.089 -17.805  0.00  0.00    -0.004 C 
ATOM      3  C   UNL     1      32.850 -22.251 -17.828  0.00  0.00    -0.004 C 
ATOM      4  C   UNL     1      35.231 -21.234 -18.918  0.00  0.00    -0.000 C 
ATOM      5  C   UNL     1      32.804 -21.402 -18.935  0.00  0.00    -0.000 C 
ATOM      6  C   UNL     1      33.984 -20.885 -19.492  0.00  0.00    +0.000 C 
ATOM      7  C   UNL     1      36.411 -20.717 -19.475  0.00  0.00    +0.000 C 
ATOM      8  C   UNL     1      33.956 -20.031 -20.605  0.00  0.00    +0.003 C 
ATOM      9  C   UNL     1      35.139 -19.526 -21.147  0.00  0.00    +0.031 C 
ATOM     10  C   UNL     1      36.364 -19.869 -20.582  0.00  0.00    +0.003 C 
ENDROOT
BRANCH   9  13
ATOM     11  N   UNL     1      35.971 -17.568 -22.426  0.00  0.00    -0.343 N 
ATOM     12  N   UNL     1      34.200 -18.850 -23.253  0.00  0.00    -0.285 NA
ATOM     13  C   UNL     1      35.092 -18.643 -22.300  0.00  0.00    +0.117 C 
ATOM     14  H   UNL     1      35.921 -16.982 -23.216  0.00  0.00    +0.144 HD
ATOM     15  H   UNL     1      36.640 -17.394 -21.726  0.00  0.00    +0.144 HD
ATOM     16  H   UNL     1      34.168 -18.252 -24.035  0.00  0.00    +0.188 HD
ENDBRANCH   9  13
BRANCH   1  17
ATOM     17  C   UNL     1      34.124 -23.499 -16.082  0.00  0.00    +0.027 C 
ATOM     18  C   UNL     1      34.738 -23.008 -14.808  0.00  0.00    +0.027 C 
ATOM     19  C   UNL     1      33.253 -23.204 -14.900  0.00  0.00    +0.009 C 
BRANCH  18  20
ATOM     20  C   UNL     1      35.546 -23.941 -13.984  0.00  0.00    -0.022 C 
ATOM     21  C   UNL     1      36.045 -25.121 -14.543  0.00  0.00    -0.004 C 
ATOM     22  C   UNL     1      35.811 -23.648 -12.643  0.00  0.00    -0.004 C 
ATOM     23  C   UNL     1      36.802 -26.000 -13.768  0.00  0.00    -0.000 C 
ATOM     24  C   UNL     1      36.568 -24.526 -11.868  0.00  0.00    -0.000 C 
ATOM     25  C   UNL     1      37.063 -25.702 -12.431  0.00  0.00    -0.000 C 
ENDBRANCH  18  20
ENDBRANCH   1  17
TORSDOF 3
ENDMDL
MODEL 6
REMARK VINA RESULT:     -10.6      5.695      9.627
REMARK  Name = 448841
REMARK  3 active torsions:
REMARK  status: ('A' for Active; 'I' for Inactive)
REMARK    1  A    between atoms: C_1  and  C_17
REMARK    2  A    between atoms: C_9  and  C_13
REMARK    3  A    between atoms: C_18  and  C_20
REMARK                            x       y       z     vdW  Elec       q    Type
REMARK                         _______ _______ _______ _____ _____    ______ ____
ROOT
ATOM      1  C   UNL     1      34.986 -17.218 -22.634  0.00  0.00    -0.022 C 
ATOM      2  C   UNL     1      34.854 -16.156 -21.740  0.00  0.00    -0.004 C 
ATOM      3  C   UNL     1      34.759 -17.018 -23.993  0.00  0.00    -0.004 C 
ATOM      4  C   UNL     1      34.492 -14.877 -22.195  0.00  0.00    -0.000 C 
ATOM      5  C   UNL     1      34.399 -15.753 -24.462  0.00  0.00    -0.000 C 
ATOM      6  C   UNL     1      34.261 -14.672 -23.576  0.00  0.00    +0.000 C 
ATOM      7  C   UNL     1      34.353 -13.796 -21.309  0.00  0.00    +0.000 C 
ATOM      8  C   UNL     1      33.899 -13.395 -24.031  0.00  0.00    +0.003 C 
ATOM      9  C   UNL     1      33.766 -12.331 -23.137  0.00  0.00    +0.031 C 
ATOM     10  C   UNL     1      33.993 -12.533 -21.778  0.00  0.00    +0.003 C 
ENDROOT
BRANCH   9  13
ATOM     11  N   UNL     1      32.625 -10.145 -22.848  0.00  0.00    -0.343 N 
ATOM     12  N   UNL     1      33.775 -10.622 -24.826  0.00  0.00    -0.285 NA
ATOM     13  C   UNL     1      33.392 -11.014 -23.624  0.00  0.00    +0.117 C 
ATOM     14  H   UNL     1      32.383  -9.258 -23.198  0.00  0.00    +0.144 HD
ATOM     15  H   UNL     1      32.327 -10.420 -21.951  0.00  0.00    +0.144 HD
ATOM     16  H   UNL     1      33.522  -9.730 -25.157  0.00  0.00    +0.188 HD
ENDBRANCH   9  13
BRANCH   1  17
ATOM     17  C   UNL     1      35.370 -18.568 -22.135  0.00  0.00    +0.027 C 
ATOM     18  C   UNL     1      34.317 -19.463 -21.560  0.00  0.00    +0.027 C 
ATOM     19  C   UNL     1      34.927 -19.780 -22.894  0.00  0.00    +0.009 C 
BRANCH  18  20
ATOM     20  C   UNL     1      34.646 -20.312 -20.388  0.00  0.00    -0.022 C 
ATOM     21  C   UNL     1      33.629 -20.963 -19.683  0.00  0.00    -0.004 C 
ATOM     22  C   UNL     1      35.975 -20.466 -19.981  0.00  0.00    -0.004 C 
ATOM     23  C   UNL     1      33.938 -21.760 -18.580  0.00  0.00    -0.000 C 
ATOM     24  C   UNL     1      36.284 -21.262 -18.878  0.00  0.00    -0.000 C 
ATOM     25  C   UNL     1      35.265 -21.909 -18.178  0.00  0.00    -0.000 C 
ENDBRANCH  18  20
ENDBRANCH   1  17
TORSDOF 3
ENDMDL
MODEL 7
REMARK VINA RESULT:     -10.2      6.069      9.403
REMARK  Name = 448841
REMARK  3 active torsions:
REMARK  status: ('A' for Active; 'I' for Inactive)
REMARK    1  A    between atoms: C_1  and  C_17
REMARK    2  A    between atoms: C_9  and  C_13
REMARK    3  A    between atoms: C_18  and  C_20
REMARK                            x       y       z     vdW  Elec       q    Type
REMARK                         _______ _______ _______ _____ _____    ______ ____
ROOT
ATOM      1  C   UNL     1      33.825 -12.884 -22.793  0.00  0.00    -0.022 C 
ATOM      2  C   UNL     1      34.177 -13.999 -23.553  0.00  0.00    -0.004 C 
ATOM      3  C   UNL     1      33.868 -12.946 -21.403  0.00  0.00    -0.004 C 
ATOM      4  C   UNL     1      34.579 -15.193 -22.932  0.00  0.00    -0.000 C 
ATOM      5  C   UNL     1      34.265 -14.124 -20.769  0.00  0.00    -0.000 C 
ATOM      6  C   UNL     1      34.623 -15.256 -21.518  0.00  0.00    +0.000 C 
ATOM      7  C   UNL     1      34.936 -16.325 -23.681  0.00  0.00    +0.000 C 
ATOM      8  C   UNL     1      35.024 -16.449 -20.896  0.00  0.00    +0.003 C 
ATOM      9  C   UNL     1      35.377 -17.565 -21.656  0.00  0.00    +0.031 C 
ATOM     10  C   UNL     1      35.333 -17.502 -23.046  0.00  0.00    +0.003 C 
ENDROOT
BRANCH   9  13
ATOM     11  N   UNL     1      36.984 -18.865 -20.280  0.00  0.00    -0.343 N 
ATOM     12  N   UNL     1      35.030 -19.871 -21.076  0.00  0.00    -0.285 NA
ATOM     13  C   UNL     1      35.790 -18.793 -20.997  0.00  0.00    +0.117 C 
ATOM     14  H   UNL     1      37.244 -19.707 -19.842  0.00  0.00    +0.144 HD
ATOM     15  H   UNL     1      37.565 -18.074 -20.213  0.00  0.00    +0.144 HD
ATOM     16  H   UNL     1      35.309 -20.703 -20.629  0.00  0.00    +0.188 HD
ENDBRANCH   9  13
BRANCH   1  17
ATOM     17  C   UNL     1      33.401 -11.626 -23.469  0.00  0.00    +0.027 C 
ATOM     18  C   UNL     1      34.359 -10.478 -23.546  0.00  0.00    +0.027 C 
ATOM     19  C   UNL     1      34.020 -11.258 -24.782  0.00  0.00    +0.009 C 
BRANCH  18  20
ATOM     20  C   UNL     1      33.845  -9.093 -23.396  0.00  0.00    -0.022 C 
ATOM     21  C   UNL     1      34.696  -8.002 -23.596  0.00  0.00    -0.004 C 
ATOM     22  C   UNL     1      32.509  -8.871 -23.051  0.00  0.00    -0.004 C 
ATOM     23  C   UNL     1      34.214  -6.700 -23.453  0.00  0.00    -0.000 C 
ATOM     24  C   UNL     1      32.027  -7.570 -22.908  0.00  0.00    -0.000 C 
ATOM     25  C   UNL     1      32.880  -6.485 -23.109  0.00  0.00    -0.000 C 
ENDBRANCH  18  20
ENDBRANCH   1  17
TORSDOF 3
ENDMDL
MODEL 8
REMARK VINA RESULT:     -10.1      7.687     11.567
REMARK  Name = 448841
REMARK  3 active torsions:
REMARK  status: ('A' for Active; 'I' for Inactive)
REMARK    1  A    between atoms: C_1  and  C_17
REMARK    2  A    between atoms: C_9  and  C_13
REMARK    3  A    between atoms: C_18  and  C_20
REMARK                            x       y       z     vdW  Elec       q    Type
REMARK                         _______ _______ _______ _____ _____    ______ ____
ROOT
ATOM      1  C   UNL     1      33.581 -10.873 -24.178  0.00  0.00    -0.022 C 
ATOM      2  C   UNL     1      33.952 -11.692 -23.111  0.00  0.00    -0.004 C 
ATOM      3  C   UNL     1      33.327 -11.430 -25.428  0.00  0.00    -0.004 C 
ATOM      4  C   UNL     1      34.073 -13.081 -23.281  0.00  0.00    -0.000 C 
ATOM      5  C   UNL     1      33.442 -12.809 -25.615  0.00  0.00    -0.000 C 
ATOM      6  C   UNL     1      33.814 -13.648 -24.553  0.00  0.00    +0.000 C 
ATOM      7  C   UNL     1      34.445 -13.920 -22.219  0.00  0.00    +0.000 C 
ATOM      8  C   UNL     1      33.934 -15.036 -24.723  0.00  0.00    +0.003 C 
ATOM      9  C   UNL     1      34.305 -15.855 -23.656  0.00  0.00    +0.031 C 
ATOM     10  C   UNL     1      34.559 -15.297 -22.406  0.00  0.00    +0.003 C 
ENDROOT
BRANCH   9  13
ATOM     11  N   UNL     1      35.291 -18.058 -23.071  0.00  0.00    -0.343 N 
ATOM     12  N   UNL     1      33.707 -17.893 -24.781  0.00  0.00    -0.285 NA
ATOM     13  C   UNL     1      34.425 -17.291 -23.849  0.00  0.00    +0.117 C 
ATOM     14  H   UNL     1      35.357 -19.028 -23.218  0.00  0.00    +0.144 HD
ATOM     15  H   UNL     1      35.837 -17.628 -22.373  0.00  0.00    +0.144 HD
ATOM     16  H   UNL     1      33.787 -18.865 -24.912  0.00  0.00    +0.188 HD
ENDBRANCH   9  13
BRANCH   1  17
ATOM     17  C   UNL     1      33.459  -9.402 -23.980  0.00  0.00    +0.027 C 
ATOM     18  C   UNL     1      33.633  -8.831 -22.607  0.00  0.00    +0.027 C 
ATOM     19  C   UNL     1      34.683  -8.604 -23.655  0.00  0.00    +0.009 C 
BRANCH  18  20
ATOM     20  C   UNL     1      32.776  -7.697 -22.178  0.00  0.00    -0.022 C 
ATOM     21  C   UNL     1      33.026  -7.045 -20.968  0.00  0.00    -0.004 C 
ATOM     22  C   UNL     1      31.712  -7.275 -22.981  0.00  0.00    -0.004 C 
ATOM     23  C   UNL     1      32.220  -5.981 -20.563  0.00  0.00    -0.000 C 
ATOM     24  C   UNL     1      30.905  -6.212 -22.577  0.00  0.00    -0.000 C 
ATOM     25  C   UNL     1      31.160  -5.565 -21.368  0.00  0.00    -0.000 C 
ENDBRANCH  18  20
ENDBRANCH   1  17
TORSDOF 3
ENDMDL
MODEL 9
REMARK VINA RESULT:     -10.1      4.043      8.776
REMARK  Name = 448841
REMARK  3 active torsions:
REMARK  status: ('A' for Active; 'I' for Inactive)
REMARK    1  A    between atoms: C_1  and  C_17
REMARK    2  A    between atoms: C_9  and  C_13
REMARK    3  A    between atoms: C_18  and  C_20
REMARK                            x       y       z     vdW  Elec       q    Type
REMARK                         _______ _______ _______ _____ _____    ______ ____
ROOT
ATOM      1  C   UNL     1      35.185 -22.588 -16.853  0.00  0.00    -0.022 C 
ATOM      2  C   UNL     1      34.108 -22.231 -17.664  0.00  0.00    -0.004 C 
ATOM      3  C   UNL     1      36.466 -22.132 -17.153  0.00  0.00    -0.004 C 
ATOM      4  C   UNL     1      34.298 -21.411 -18.788  0.00  0.00    -0.000 C 
ATOM      5  C   UNL     1      36.672 -21.316 -18.267  0.00  0.00    -0.000 C 
ATOM      6  C   UNL     1      35.600 -20.946 -19.094  0.00  0.00    +0.000 C 
ATOM      7  C   UNL     1      33.226 -21.042 -19.616  0.00  0.00    +0.000 C 
ATOM      8  C   UNL     1      35.790 -20.126 -20.217  0.00  0.00    +0.003 C 
ATOM      9  C   UNL     1      34.712 -19.768 -21.029  0.00  0.00    +0.031 C 
ATOM     10  C   UNL     1      33.433 -20.225 -20.728  0.00  0.00    +0.003 C 
ENDROOT
BRANCH   9  13
ATOM     11  N   UNL     1      36.003 -18.035 -22.252  0.00  0.00    -0.343 N 
ATOM     12  N   UNL     1      34.087 -18.972 -23.208  0.00  0.00    -0.285 NA
ATOM     13  C   UNL     1      34.926 -18.918 -22.189  0.00  0.00    +0.117 C 
ATOM     14  H   UNL     1      36.128 -17.468 -23.047  0.00  0.00    +0.144 HD
ATOM     15  H   UNL     1      36.637 -17.978 -21.501  0.00  0.00    +0.144 HD
ATOM     16  H   UNL     1      34.231 -18.397 -23.994  0.00  0.00    +0.188 HD
ENDBRANCH   9  13
BRANCH   1  17
ATOM     17  C   UNL     1      34.966 -23.459 -15.665  0.00  0.00    +0.027 C 
ATOM     18  C   UNL     1      35.343 -22.954 -14.307  0.00  0.00    +0.027 C 
ATOM     19  C   UNL     1      33.897 -23.098 -14.681  0.00  0.00    +0.009 C 
BRANCH  18  20
ATOM     20  C   UNL     1      35.936 -23.893 -13.322  0.00  0.00    -0.022 C 
ATOM     21  C   UNL     1      35.886 -23.603 -11.955  0.00  0.00    -0.004 C 
ATOM     22  C   UNL     1      36.551 -25.072 -13.754  0.00  0.00    -0.004 C 
ATOM     23  C   UNL     1      36.446 -24.483 -11.029  0.00  0.00    -0.000 C 
ATOM     24  C   UNL     1      37.111 -25.952 -12.829  0.00  0.00    -0.000 C 
ATOM     25  C   UNL     1      37.058 -25.658 -11.466  0.00  0.00    -0.000 C 
ENDBRANCH  18  20
ENDBRANCH   1  17
TORSDOF 3
ENDMDL
