MODEL 1
REMARK VINA RESULT:     -11.0      0.000      0.000
REMARK  Name = 448317
REMARK  6 active torsions:
REMARK  status: ('A' for Active; 'I' for Inactive)
REMARK    1  A    between atoms: C_1  and  C_18
REMARK    2  A    between atoms: C_4  and  N_24
REMARK    3  A    between atoms: C_5  and  S_25
REMARK    4  A    between atoms: S_25  and  C_26
REMARK    5  A    between atoms: C_27  and  O_32
REMARK    6  A    between atoms: O_32  and  C_33
REMARK                            x       y       z     vdW  Elec       q    Type
REMARK                         _______ _______ _______ _____ _____    ______ ____
ROOT
ATOM      1  C   UNL     1      34.352 -20.736 -19.478  0.00  0.00    +0.002 C 
ATOM      2  C   UNL     1      35.638 -20.200 -19.527  0.00  0.00    +0.025 C 
ATOM      3  C   UNL     1      33.417 -20.396 -20.455  0.00  0.00    +0.001 C 
ATOM      4  C   UNL     1      35.992 -19.325 -20.556  0.00  0.00    +0.149 C 
ATOM      5  C   UNL     1      35.057 -18.985 -21.533  0.00  0.00    +0.052 C 
ATOM      6  C   UNL     1      33.769 -19.521 -21.484  0.00  0.00    +0.008 C 
ENDROOT
BRANCH   1  18
ATOM      7  O   UNL     1      38.571 -23.711 -11.801  0.00  0.00    -0.275 OA
ATOM      8  N   UNL     1      35.573 -23.475 -15.633  0.00  0.00    -0.290 N 
ATOM      9  N   UNL     1      37.482 -24.350 -13.749  0.00  0.00    -0.276 N 
ATOM     10  N   UNL     1      33.277 -23.395 -16.353  0.00  0.00    -0.229 NA
ATOM     11  C   UNL     1      35.426 -24.804 -15.023  0.00  0.00    +0.114 C 
ATOM     12  C   UNL     1      36.319 -22.482 -14.844  0.00  0.00    +0.114 C 
ATOM     13  C   UNL     1      36.785 -25.339 -14.574  0.00  0.00    +0.115 C 
ATOM     14  C   UNL     1      37.663 -23.056 -14.402  0.00  0.00    +0.115 C 
ATOM     15  C   UNL     1      34.586 -23.003 -16.505  0.00  0.00    +0.132 C 
ATOM     16  C   UNL     1      37.972 -24.562 -12.463  0.00  0.00    +0.226 C 
ATOM     17  C   UNL     1      34.955 -22.121 -17.538  0.00  0.00    +0.034 C 
ATOM     18  C   UNL     1      33.986 -21.642 -18.412  0.00  0.00    +0.004 C 
ATOM     19  C   UNL     1      37.736 -25.928 -11.869  0.00  0.00    +0.095 C 
ATOM     20  C   UNL     1      32.662 -22.039 -18.258  0.00  0.00    +0.021 C 
ATOM     21  C   UNL     1      32.363 -22.910 -17.223  0.00  0.00    +0.100 C 
ENDBRANCH   1  18
BRANCH   4  24
ATOM     22  O   UNL     1      37.958 -18.806 -21.642  0.00  0.00    -0.126 OA
ATOM     23  O   UNL     1      37.796 -18.353 -19.499  0.00  0.00    -0.126 OA
ATOM     24  N   UNL     1      37.316 -18.802 -20.566  0.00  0.00    +0.058 N 
ENDBRANCH   4  24
BRANCH   5  25
ATOM     25  S   UNL     1      35.443 -17.869 -22.879  0.00  0.00    -0.082 S 
BRANCH  25  26
ATOM     26  C   UNL     1      34.920 -16.308 -22.188  0.00  0.00    +0.063 C 
ATOM     27  C   UNL     1      34.538 -15.242 -23.004  0.00  0.00    +0.144 C 
ATOM     28  C   UNL     1      34.899 -16.163 -20.799  0.00  0.00    +0.010 C 
ATOM     29  C   UNL     1      34.136 -14.035 -22.433  0.00  0.00    +0.037 C 
ATOM     30  C   UNL     1      34.496 -14.956 -20.229  0.00  0.00    +0.001 C 
ATOM     31  C   UNL     1      34.114 -13.891 -21.045  0.00  0.00    +0.003 C 
BRANCH  27  32
ATOM     32  O   UNL     1      34.544 -15.347 -24.363  0.00  0.00    -0.475 OA
BRANCH  32  33
ATOM     33  C   UNL     1      33.411 -14.831 -25.058  0.00  0.00    +0.206 C 
ATOM     34  C   UNL     1      33.736 -13.446 -25.572  0.00  0.00    +0.051 C 
ENDBRANCH  32  33
ENDBRANCH  27  32
ENDBRANCH  25  26
ENDBRANCH   5  25
TORSDOF 6
ENDMDL
MODEL 2
REMARK VINA RESULT:      -9.1      6.957     13.147
REMARK  Name = 448317
REMARK  6 active torsions:
REMARK  status: ('A' for Active; 'I' for Inactive)
REMARK    1  A    between atoms: C_1  and  C_18
REMARK    2  A    between atoms: C_4  and  N_24
REMARK    3  A    between atoms: C_5  and  S_25
REMARK    4  A    between atoms: S_25  and  C_26
REMARK    5  A    between atoms: C_27  and  O_32
REMARK    6  A    between atoms: O_32  and  C_33
REMARK                            x       y       z     vdW  Elec       q    Type
REMARK                         _______ _______ _______ _____ _____    ______ ____
ROOT
ATOM      1  C   UNL     1      33.100 -12.522 -22.038  0.00  0.00    +0.002 C 
ATOM      2  C   UNL     1      33.111 -12.513 -23.432  0.00  0.00    +0.025 C 
ATOM      3  C   UNL     1      33.636 -13.607 -21.344  0.00  0.00    +0.001 C 
ATOM      4  C   UNL     1      33.659 -13.587 -24.134  0.00  0.00    +0.149 C 
ATOM      5  C   UNL     1      34.195 -14.672 -23.440  0.00  0.00    +0.052 C 
ATOM      6  C   UNL     1      34.185 -14.682 -22.044  0.00  0.00    +0.008 C 
ENDROOT
BRANCH   1  18
ATOM      7  O   UNL     1      30.639  -3.902 -24.324  0.00  0.00    -0.275 OA
ATOM      8  N   UNL     1      32.011  -7.780 -21.715  0.00  0.00    -0.290 N 
ATOM      9  N   UNL     1      31.886  -5.206 -22.864  0.00  0.00    -0.276 N 
ATOM     10  N   UNL     1      31.434  -9.257 -19.904  0.00  0.00    -0.229 NA
ATOM     11  C   UNL     1      32.082  -6.599 -20.844  0.00  0.00    +0.114 C 
ATOM     12  C   UNL     1      31.318  -7.593 -23.000  0.00  0.00    +0.114 C 
ATOM     13  C   UNL     1      32.628  -5.398 -21.616  0.00  0.00    +0.115 C 
ATOM     14  C   UNL     1      31.879  -6.378 -23.734  0.00  0.00    +0.115 C 
ATOM     15  C   UNL     1      31.990  -9.058 -21.145  0.00  0.00    +0.132 C 
ATOM     16  C   UNL     1      31.242  -4.035 -23.256  0.00  0.00    +0.226 C 
ATOM     17  C   UNL     1      32.547 -10.133 -21.863  0.00  0.00    +0.034 C 
ATOM     18  C   UNL     1      32.532 -11.409 -21.310  0.00  0.00    +0.004 C 
ATOM     19  C   UNL     1      31.299  -2.878 -22.291  0.00  0.00    +0.095 C 
ATOM     20  C   UNL     1      31.969 -11.610 -20.055  0.00  0.00    +0.021 C 
ATOM     21  C   UNL     1      31.439 -10.511 -19.398  0.00  0.00    +0.100 C 
ENDBRANCH   1  18
BRANCH   4  24
ATOM     22  O   UNL     1      33.453 -12.433 -26.119  0.00  0.00    -0.126 OA
ATOM     23  O   UNL     1      33.835 -14.594 -26.201  0.00  0.00    -0.126 OA
ATOM     24  N   UNL     1      33.648 -13.535 -25.557  0.00  0.00    +0.058 N 
ENDBRANCH   4  24
BRANCH   5  25
ATOM     25  S   UNL     1      34.914 -16.083 -24.278  0.00  0.00    -0.082 S 
BRANCH  25  26
ATOM     26  C   UNL     1      34.974 -17.273 -22.949  0.00  0.00    +0.063 C 
ATOM     27  C   UNL     1      34.483 -18.569 -23.110  0.00  0.00    +0.144 C 
ATOM     28  C   UNL     1      35.526 -16.885 -21.725  0.00  0.00    +0.010 C 
ATOM     29  C   UNL     1      34.544 -19.476 -22.052  0.00  0.00    +0.037 C 
ATOM     30  C   UNL     1      35.586 -17.793 -20.667  0.00  0.00    +0.001 C 
ATOM     31  C   UNL     1      35.095 -19.088 -20.830  0.00  0.00    +0.003 C 
BRANCH  27  32
ATOM     32  O   UNL     1      33.939 -18.985 -24.289  0.00  0.00    -0.475 OA
BRANCH  32  33
ATOM     33  C   UNL     1      32.703 -18.390 -24.678  0.00  0.00    +0.206 C 
ATOM     34  C   UNL     1      31.852 -19.431 -25.371  0.00  0.00    +0.051 C 
ENDBRANCH  32  33
ENDBRANCH  27  32
ENDBRANCH  25  26
ENDBRANCH   5  25
TORSDOF 6
ENDMDL
MODEL 3
REMARK VINA RESULT:      -8.5      3.239      4.153
REMARK  Name = 448317
REMARK  6 active torsions:
REMARK  status: ('A' for Active; 'I' for Inactive)
REMARK    1  A    between atoms: C_1  and  C_18
REMARK    2  A    between atoms: C_4  and  N_24
REMARK    3  A    between atoms: C_5  and  S_25
REMARK    4  A    between atoms: S_25  and  C_26
REMARK    5  A    between atoms: C_27  and  O_32
REMARK    6  A    between atoms: O_32  and  C_33
REMARK                            x       y       z     vdW  Elec       q    Type
REMARK                         _______ _______ _______ _____ _____    ______ ____
ROOT
ATOM      1  C   UNL     1      35.469 -19.581 -20.653  0.00  0.00    +0.002 C 
ATOM      2  C   UNL     1      34.818 -19.948 -21.830  0.00  0.00    +0.025 C 
ATOM      3  C   UNL     1      35.943 -18.279 -20.495  0.00  0.00    +0.001 C 
ATOM      4  C   UNL     1      34.639 -19.013 -22.850  0.00  0.00    +0.149 C 
ATOM      5  C   UNL     1      35.113 -17.711 -22.693  0.00  0.00    +0.052 C 
ATOM      6  C   UNL     1      35.765 -17.343 -21.515  0.00  0.00    +0.008 C 
ENDROOT
BRANCH   1  18
ATOM      7  O   UNL     1      29.740 -24.846 -15.647  0.00  0.00    -0.275 OA
ATOM      8  N   UNL     1      33.662 -22.317 -17.043  0.00  0.00    -0.290 N 
ATOM      9  N   UNL     1      31.465 -23.296 -15.567  0.00  0.00    -0.276 N 
ATOM     10  N   UNL     1      36.013 -22.422 -17.551  0.00  0.00    -0.229 NA
ATOM     11  C   UNL     1      33.858 -22.723 -15.644  0.00  0.00    +0.114 C 
ATOM     12  C   UNL     1      32.543 -22.959 -17.751  0.00  0.00    +0.114 C 
ATOM     13  C   UNL     1      32.548 -22.604 -14.865  0.00  0.00    +0.115 C 
ATOM     14  C   UNL     1      31.257 -22.833 -16.937  0.00  0.00    +0.115 C 
ATOM     15  C   UNL     1      34.764 -21.908 -17.804  0.00  0.00    +0.132 C 
ATOM     16  C   UNL     1      30.656 -24.295 -15.033  0.00  0.00    +0.226 C 
ATOM     17  C   UNL     1      34.569 -20.965 -18.830  0.00  0.00    +0.034 C 
ATOM     18  C   UNL     1      35.654 -20.550 -19.596  0.00  0.00    +0.004 C 
ATOM     19  C   UNL     1      30.947 -24.710 -13.613  0.00  0.00    +0.095 C 
ATOM     20  C   UNL     1      36.918 -21.070 -19.340  0.00  0.00    +0.021 C 
ATOM     21  C   UNL     1      37.043 -21.995 -18.315  0.00  0.00    +0.100 C 
ENDBRANCH   1  18
BRANCH   4  24
ATOM     22  O   UNL     1      32.850 -18.937 -24.304  0.00  0.00    -0.126 OA
ATOM     23  O   UNL     1      34.521 -20.283 -24.771  0.00  0.00    -0.126 OA
ATOM     24  N   UNL     1      33.969 -19.432 -24.035  0.00  0.00    +0.058 N 
ENDBRANCH   4  24
BRANCH   5  25
ATOM     25  S   UNL     1      34.918 -16.462 -23.962  0.00  0.00    -0.082 S 
BRANCH  25  26
ATOM     26  C   UNL     1      34.259 -15.106 -23.006  0.00  0.00    +0.063 C 
ATOM     27  C   UNL     1      33.533 -14.077 -23.607  0.00  0.00    +0.144 C 
ATOM     28  C   UNL     1      34.483 -15.086 -21.627  0.00  0.00    +0.010 C 
ATOM     29  C   UNL     1      33.031 -13.031 -22.833  0.00  0.00    +0.037 C 
ATOM     30  C   UNL     1      33.981 -14.039 -20.854  0.00  0.00    +0.001 C 
ATOM     31  C   UNL     1      33.255 -13.011 -21.456  0.00  0.00    +0.003 C 
BRANCH  27  32
ATOM     32  O   UNL     1      33.292 -14.063 -24.949  0.00  0.00    -0.475 OA
BRANCH  32  33
ATOM     33  C   UNL     1      33.045 -12.795 -25.551  0.00  0.00    +0.206 C 
ATOM     34  C   UNL     1      34.064 -12.561 -26.645  0.00  0.00    +0.051 C 
ENDBRANCH  32  33
ENDBRANCH  27  32
ENDBRANCH  25  26
ENDBRANCH   5  25
TORSDOF 6
ENDMDL
MODEL 4
REMARK VINA RESULT:      -8.4      6.603     11.403
REMARK  Name = 448317
REMARK  6 active torsions:
REMARK  status: ('A' for Active; 'I' for Inactive)
REMARK    1  A    between atoms: C_1  and  C_18
REMARK    2  A    between atoms: C_4  and  N_24
REMARK    3  A    between atoms: C_5  and  S_25
REMARK    4  A    between atoms: S_25  and  C_26
REMARK    5  A    between atoms: C_27  and  O_32
REMARK    6  A    between atoms: O_32  and  C_33
REMARK                            x       y       z     vdW  Elec       q    Type
REMARK                         _______ _______ _______ _____ _____    ______ ____
ROOT
ATOM      1  C   UNL     1      33.823 -10.539 -23.966  0.00  0.00    +0.002 C 
ATOM      2  C   UNL     1      32.802 -10.039 -23.159  0.00  0.00    +0.025 C 
ATOM      3  C   UNL     1      34.897  -9.721 -24.318  0.00  0.00    +0.001 C 
ATOM      4  C   UNL     1      32.855  -8.722 -22.700  0.00  0.00    +0.149 C 
ATOM      5  C   UNL     1      33.929  -7.904 -23.052  0.00  0.00    +0.052 C 
ATOM      6  C   UNL     1      34.951  -8.404 -23.861  0.00  0.00    +0.008 C 
ENDROOT
BRANCH   1  18
ATOM      7  O   UNL     1      34.576 -18.819 -19.908  0.00  0.00    -0.275 OA
ATOM      8  N   UNL     1      34.605 -15.303 -23.279  0.00  0.00    -0.290 N 
ATOM      9  N   UNL     1      35.357 -17.452 -21.614  0.00  0.00    -0.276 N 
ATOM     10  N   UNL     1      33.662 -14.541 -25.360  0.00  0.00    -0.229 NA
ATOM     11  C   UNL     1      35.178 -16.514 -23.882  0.00  0.00    +0.114 C 
ATOM     12  C   UNL     1      33.933 -15.483 -21.982  0.00  0.00    +0.114 C 
ATOM     13  C   UNL     1      36.069 -17.242 -22.876  0.00  0.00    +0.115 C 
ATOM     14  C   UNL     1      34.847 -16.225 -21.009  0.00  0.00    +0.115 C 
ATOM     15  C   UNL     1      34.154 -14.267 -24.106  0.00  0.00    +0.132 C 
ATOM     16  C   UNL     1      35.166 -18.678 -20.981  0.00  0.00    +0.226 C 
ATOM     17  C   UNL     1      34.213 -12.943 -23.632  0.00  0.00    +0.034 C 
ATOM     18  C   UNL     1      33.768 -11.903 -24.441  0.00  0.00    +0.004 C 
ATOM     19  C   UNL     1      35.725 -19.891 -21.681  0.00  0.00    +0.095 C 
ATOM     20  C   UNL     1      33.271 -12.182 -25.709  0.00  0.00    +0.021 C 
ATOM     21  C   UNL     1      33.240 -13.505 -26.118  0.00  0.00    +0.100 C 
ENDBRANCH   1  18
BRANCH   4  24
ATOM     22  O   UNL     1      30.733  -7.864 -22.424  0.00  0.00    -0.126 OA
ATOM     23  O   UNL     1      31.946  -8.249 -20.635  0.00  0.00    -0.126 OA
ATOM     24  N   UNL     1      31.790  -8.254 -21.878  0.00  0.00    +0.058 N 
ENDBRANCH   4  24
BRANCH   5  25
ATOM     25  S   UNL     1      34.059  -6.206 -22.500  0.00  0.00    -0.082 S 
BRANCH  25  26
ATOM     26  C   UNL     1      33.634  -5.328 -23.995  0.00  0.00    +0.063 C 
ATOM     27  C   UNL     1      32.339  -4.858 -24.220  0.00  0.00    +0.144 C 
ATOM     28  C   UNL     1      34.627  -5.115 -24.953  0.00  0.00    +0.010 C 
ATOM     29  C   UNL     1      32.038  -4.176 -25.398  0.00  0.00    +0.037 C 
ATOM     30  C   UNL     1      34.325  -4.433 -26.132  0.00  0.00    +0.001 C 
ATOM     31  C   UNL     1      33.031  -3.963 -26.356  0.00  0.00    +0.003 C 
BRANCH  27  32
ATOM     32  O   UNL     1      31.344  -5.045 -23.307  0.00  0.00    -0.475 OA
BRANCH  32  33
ATOM     33  C   UNL     1      31.234  -4.082 -22.261  0.00  0.00    +0.206 C 
ATOM     34  C   UNL     1      30.819  -4.785 -20.986  0.00  0.00    +0.051 C 
ENDBRANCH  32  33
ENDBRANCH  27  32
ENDBRANCH  25  26
ENDBRANCH   5  25
TORSDOF 6
ENDMDL
MODEL 5
REMARK VINA RESULT:      -8.2      3.689     11.417
REMARK  Name = 448317
REMARK  6 active torsions:
REMARK  status: ('A' for Active; 'I' for Inactive)
REMARK    1  A    between atoms: C_1  and  C_18
REMARK    2  A    between atoms: C_4  and  N_24
REMARK    3  A    between atoms: C_5  and  S_25
REMARK    4  A    between atoms: S_25  and  C_26
REMARK    5  A    between atoms: C_27  and  O_32
REMARK    6  A    between atoms: O_32  and  C_33
REMARK                            x       y       z     vdW  Elec       q    Type
REMARK                         _______ _______ _______ _____ _____    ______ ____
ROOT
ATOM      1  C   UNL     1      34.712 -24.009 -14.983  0.00  0.00    +0.002 C 
ATOM      2  C   UNL     1      34.884 -23.422 -13.729  0.00  0.00    +0.025 C 
ATOM      3  C   UNL     1      35.408 -25.173 -15.309  0.00  0.00    +0.001 C 
ATOM      4  C   UNL     1      35.750 -24.000 -12.800  0.00  0.00    +0.149 C 
ATOM      5  C   UNL     1      36.446 -25.165 -13.127  0.00  0.00    +0.052 C 
ATOM      6  C   UNL     1      36.275 -25.752 -14.381  0.00  0.00    +0.008 C 
ENDROOT
BRANCH   1  18
ATOM      7  O   UNL     1      35.818 -20.211 -23.346  0.00  0.00    -0.275 OA
ATOM      8  N   UNL     1      33.961 -21.321 -18.981  0.00  0.00    -0.290 N 
ATOM      9  N   UNL     1      34.955 -19.908 -21.213  0.00  0.00    -0.276 N 
ATOM     10  N   UNL     1      32.078 -22.252 -17.805  0.00  0.00    -0.229 NA
ATOM     11  C   UNL     1      33.175 -20.213 -19.541  0.00  0.00    +0.114 C 
ATOM     12  C   UNL     1      34.882 -21.993 -19.912  0.00  0.00    +0.114 C 
ATOM     13  C   UNL     1      34.087 -19.217 -20.256  0.00  0.00    +0.115 C 
ATOM     14  C   UNL     1      35.766 -20.967 -20.618  0.00  0.00    +0.115 C 
ATOM     15  C   UNL     1      33.436 -22.077 -17.927  0.00  0.00    +0.132 C 
ATOM     16  C   UNL     1      35.063 -19.620 -22.570  0.00  0.00    +0.226 C 
ATOM     17  C   UNL     1      34.321 -22.655 -16.997  0.00  0.00    +0.034 C 
ATOM     18  C   UNL     1      33.814 -23.410 -15.945  0.00  0.00    +0.004 C 
ATOM     19  C   UNL     1      34.184 -18.512 -23.096  0.00  0.00    +0.095 C 
ATOM     20  C   UNL     1      32.441 -23.586 -15.822  0.00  0.00    +0.021 C 
ATOM     21  C   UNL     1      31.623 -22.991 -16.769  0.00  0.00    +0.100 C 
ENDBRANCH   1  18
BRANCH   4  24
ATOM     22  O   UNL     1      36.815 -22.531 -11.378  0.00  0.00    -0.126 OA
ATOM     23  O   UNL     1      35.098 -23.667 -10.614  0.00  0.00    -0.126 OA
ATOM     24  N   UNL     1      35.895 -23.367 -11.533  0.00  0.00    +0.058 N 
ENDBRANCH   4  24
BRANCH   5  25
ATOM     25  S   UNL     1      37.573 -25.958 -11.983  0.00  0.00    -0.082 S 
BRANCH  25  26
ATOM     26  C   UNL     1      38.742 -26.695 -13.113  0.00  0.00    +0.063 C 
ATOM     27  C   UNL     1      38.699 -28.055 -13.420  0.00  0.00    +0.144 C 
ATOM     28  C   UNL     1      39.717 -25.881 -13.695  0.00  0.00    +0.010 C 
ATOM     29  C   UNL     1      39.628 -28.601 -14.306  0.00  0.00    +0.037 C 
ATOM     30  C   UNL     1      40.645 -26.427 -14.581  0.00  0.00    +0.001 C 
ATOM     31  C   UNL     1      40.601 -27.787 -14.887  0.00  0.00    +0.003 C 
BRANCH  27  32
ATOM     32  O   UNL     1      37.762 -28.881 -12.874  0.00  0.00    -0.475 OA
BRANCH  32  33
ATOM     33  C   UNL     1      38.231 -29.910 -12.006  0.00  0.00    +0.206 C 
ATOM     34  C   UNL     1      37.708 -29.653 -10.609  0.00  0.00    +0.051 C 
ENDBRANCH  32  33
ENDBRANCH  27  32
ENDBRANCH  25  26
ENDBRANCH   5  25
TORSDOF 6
ENDMDL
