MODEL 1
REMARK VINA RESULT:     -13.0      0.000      0.000
REMARK  Name = 71351
REMARK  4 active torsions:
REMARK  status: ('A' for Active; 'I' for Inactive)
REMARK    1  A    between atoms: N_1  and  C_18
REMARK    2  A    between atoms: C_2  and  C_11
REMARK    3  A    between atoms: C_18  and  C_19
REMARK    4  A    between atoms: C_19  and  C_23
REMARK                            x       y       z     vdW  Elec       q    Type
REMARK                         _______ _______ _______ _____ _____    ______ ____
ROOT
ATOM      1  N   UNL     1      35.552 -19.375 -20.226  0.00  0.00    +0.387 N 
ATOM      2  C   UNL     1      35.467 -17.671 -22.613  0.00  0.00    +0.039 C 
ATOM      3  C   UNL     1      35.785 -17.117 -21.214  0.00  0.00    -0.017 C 
ATOM      4  C   UNL     1      34.635 -18.958 -22.488  0.00  0.00    -0.017 C 
ATOM      5  C   UNL     1      36.415 -18.191 -20.323  0.00  0.00    -0.077 C 
ATOM      6  C   UNL     1      35.308 -19.964 -21.550  0.00  0.00    -0.077 C 
ATOM      7  H   UNL     1      34.653 -19.079 -19.844  0.00  0.00    -0.080 HD
ENDROOT
BRANCH   2  11
ATOM      8  F   UNL     1      33.055 -11.459 -23.517  0.00  0.00    -0.204 F 
ATOM      9  O   UNL     1      33.949 -15.830 -25.313  0.00  0.00    -0.354 OA
ATOM     10  N   UNL     1      34.519 -16.974 -24.768  0.00  0.00    -0.081 NA
ATOM     11  C   UNL     1      34.819 -16.644 -23.514  0.00  0.00    +0.100 A 
ATOM     12  C   UNL     1      34.474 -15.322 -23.195  0.00  0.00    +0.054 A 
ATOM     13  C   UNL     1      33.925 -14.846 -24.373  0.00  0.00    +0.179 A 
ATOM     14  C   UNL     1      34.550 -14.470 -22.084  0.00  0.00    +0.007 C 
ATOM     15  C   UNL     1      33.430 -13.556 -24.542  0.00  0.00    +0.070 C 
ATOM     16  C   UNL     1      34.061 -13.162 -22.219  0.00  0.00    +0.030 C 
ATOM     17  C   UNL     1      33.512 -12.716 -23.427  0.00  0.00    +0.143 C 
ENDBRANCH   2  11
BRANCH   1  18
ATOM     18  C   UNL     1      36.141 -20.366 -19.325  0.00  0.00    -0.076 C 
BRANCH  18  19
ATOM     19  C   UNL     1      35.511 -21.729 -19.572  0.00  0.00    -0.007 C 
BRANCH  19  23
ATOM     20  O   UNL     1      36.081 -22.760 -17.061  0.00  0.00    -0.274 OA
ATOM     21  N   UNL     1      33.854 -22.879 -16.363  0.00  0.00    -0.211 N 
ATOM     22  N   UNL     1      32.144 -22.113 -17.823  0.00  0.00    -0.395 NA
ATOM     23  C   UNL     1      34.427 -22.007 -18.572  0.00  0.00    +0.123 C 
ATOM     24  C   UNL     1      33.107 -21.808 -18.752  0.00  0.00    +0.097 C 
ATOM     25  C   UNL     1      34.880 -22.584 -17.266  0.00  0.00    +0.241 C 
ATOM     26  C   UNL     1      32.516 -22.626 -16.689  0.00  0.00    +0.188 C 
ATOM     27  C   UNL     1      32.537 -21.197 -20.005  0.00  0.00    +0.062 C 
ATOM     28  C   UNL     1      31.478 -22.972 -15.654  0.00  0.00    +0.023 C 
ATOM     29  C   UNL     1      34.190 -23.427 -15.130  0.00  0.00    +0.074 C 
ATOM     30  C   UNL     1      31.880 -23.497 -14.488  0.00  0.00    +0.001 C 
ATOM     31  C   UNL     1      33.268 -23.733 -14.213  0.00  0.00    +0.016 C 
ATOM     32  C   UNL     1      30.038 -22.712 -15.977  0.00  0.00    +0.035 C 
ENDBRANCH  19  23
ENDBRANCH  18  19
ENDBRANCH   1  18
TORSDOF 4
ENDMDL
MODEL 2
REMARK VINA RESULT:     -13.0      1.157      2.097
REMARK  Name = 71351
REMARK  4 active torsions:
REMARK  status: ('A' for Active; 'I' for Inactive)
REMARK    1  A    between atoms: N_1  and  C_18
REMARK    2  A    between atoms: C_2  and  C_11
REMARK    3  A    between atoms: C_18  and  C_19
REMARK    4  A    between atoms: C_19  and  C_23
REMARK                            x       y       z     vdW  Elec       q    Type
REMARK                         _______ _______ _______ _____ _____    ______ ____
ROOT
ATOM      1  N   UNL     1      35.826 -19.627 -19.909  0.00  0.00    +0.387 N 
ATOM      2  C   UNL     1      35.301 -18.401 -22.522  0.00  0.00    +0.039 C 
ATOM      3  C   UNL     1      36.424 -17.913 -21.592  0.00  0.00    -0.017 C 
ATOM      4  C   UNL     1      34.200 -19.086 -21.696  0.00  0.00    -0.017 C 
ATOM      5  C   UNL     1      36.926 -19.042 -20.688  0.00  0.00    -0.077 C 
ATOM      6  C   UNL     1      34.784 -20.172 -20.789  0.00  0.00    -0.077 C 
ATOM      7  H   UNL     1      35.407 -18.883 -19.349  0.00  0.00    -0.080 HD
ENDROOT
BRANCH   2  11
ATOM      8  F   UNL     1      33.487 -11.978 -23.349  0.00  0.00    -0.204 F 
ATOM      9  O   UNL     1      33.996 -16.384 -25.208  0.00  0.00    -0.354 OA
ATOM     10  N   UNL     1      34.450 -17.584 -24.676  0.00  0.00    -0.081 NA
ATOM     11  C   UNL     1      34.763 -17.304 -23.413  0.00  0.00    +0.100 A 
ATOM     12  C   UNL     1      34.538 -15.960 -23.076  0.00  0.00    +0.054 A 
ATOM     13  C   UNL     1      34.050 -15.417 -24.252  0.00  0.00    +0.179 A 
ATOM     14  C   UNL     1      34.677 -15.136 -21.950  0.00  0.00    +0.007 C 
ATOM     15  C   UNL     1      33.679 -14.084 -24.405  0.00  0.00    +0.070 C 
ATOM     16  C   UNL     1      34.313 -13.787 -22.068  0.00  0.00    +0.030 C 
ATOM     17  C   UNL     1      33.824 -13.273 -23.274  0.00  0.00    +0.143 C 
ENDBRANCH   2  11
BRANCH   1  18
ATOM     18  C   UNL     1      36.331 -20.664 -19.009  0.00  0.00    -0.076 C 
BRANCH  18  19
ATOM     19  C   UNL     1      35.492 -21.925 -19.151  0.00  0.00    -0.007 C 
BRANCH  19  23
ATOM     20  O   UNL     1      32.791 -22.475 -18.838  0.00  0.00    -0.274 OA
ATOM     21  N   UNL     1      32.923 -22.923 -16.548  0.00  0.00    -0.211 N 
ATOM     22  N   UNL     1      35.039 -22.830 -15.474  0.00  0.00    -0.395 NA
ATOM     23  C   UNL     1      34.922 -22.340 -17.826  0.00  0.00    +0.123 C 
ATOM     24  C   UNL     1      35.607 -22.487 -16.675  0.00  0.00    +0.097 C 
ATOM     25  C   UNL     1      33.444 -22.582 -17.800  0.00  0.00    +0.241 C 
ATOM     26  C   UNL     1      33.757 -23.032 -15.429  0.00  0.00    +0.188 C 
ATOM     27  C   UNL     1      37.101 -22.310 -16.585  0.00  0.00    +0.062 C 
ATOM     28  C   UNL     1      33.110 -23.407 -14.122  0.00  0.00    +0.023 C 
ATOM     29  C   UNL     1      31.557 -23.155 -16.437  0.00  0.00    +0.074 C 
ATOM     30  C   UNL     1      31.785 -23.615 -14.094  0.00  0.00    +0.001 C 
ATOM     31  C   UNL     1      30.984 -23.487 -15.278  0.00  0.00    +0.016 C 
ATOM     32  C   UNL     1      33.978 -23.530 -12.908  0.00  0.00    +0.035 C 
ENDBRANCH  19  23
ENDBRANCH  18  19
ENDBRANCH   1  18
TORSDOF 4
ENDMDL
MODEL 3
REMARK VINA RESULT:     -12.1      2.380      4.194
REMARK  Name = 71351
REMARK  4 active torsions:
REMARK  status: ('A' for Active; 'I' for Inactive)
REMARK    1  A    between atoms: N_1  and  C_18
REMARK    2  A    between atoms: C_2  and  C_11
REMARK    3  A    between atoms: C_18  and  C_19
REMARK    4  A    between atoms: C_19  and  C_23
REMARK                            x       y       z     vdW  Elec       q    Type
REMARK                         _______ _______ _______ _____ _____    ______ ____
ROOT
ATOM      1  N   UNL     1      35.317 -16.938 -22.947  0.00  0.00    +0.387 N 
ATOM      2  C   UNL     1      33.744 -14.464 -23.055  0.00  0.00    +0.039 C 
ATOM      3  C   UNL     1      34.158 -15.235 -24.320  0.00  0.00    -0.017 C 
ATOM      4  C   UNL     1      34.728 -14.767 -21.913  0.00  0.00    -0.017 C 
ATOM      5  C   UNL     1      34.342 -16.725 -24.026  0.00  0.00    -0.077 C 
ATOM      6  C   UNL     1      34.890 -16.276 -21.708  0.00  0.00    -0.077 C 
ATOM      7  H   UNL     1      36.202 -16.522 -23.237  0.00  0.00    -0.080 HD
ENDROOT
BRANCH   2  11
ATOM      8  F   UNL     1      31.283  -8.509 -21.128  0.00  0.00    -0.204 F 
ATOM      9  O   UNL     1      33.796 -11.088 -24.316  0.00  0.00    -0.354 OA
ATOM     10  N   UNL     1      34.128 -12.436 -24.385  0.00  0.00    -0.081 NA
ATOM     11  C   UNL     1      33.578 -12.982 -23.303  0.00  0.00    +0.100 A 
ATOM     12  C   UNL     1      32.890 -12.052 -22.508  0.00  0.00    +0.054 A 
ATOM     13  C   UNL     1      33.058 -10.862 -23.195  0.00  0.00    +0.179 A 
ATOM     14  C   UNL     1      32.154 -12.053 -21.314  0.00  0.00    +0.007 C 
ATOM     15  C   UNL     1      32.541  -9.639 -22.781  0.00  0.00    +0.070 C 
ATOM     16  C   UNL     1      31.619 -10.836 -20.867  0.00  0.00    +0.030 C 
ATOM     17  C   UNL     1      31.810  -9.653 -21.588  0.00  0.00    +0.143 C 
ENDBRANCH   2  11
BRANCH   1  18
ATOM     18  C   UNL     1      35.523 -18.368 -22.719  0.00  0.00    -0.076 C 
BRANCH  18  19
ATOM     19  C   UNL     1      34.311 -18.960 -22.015  0.00  0.00    -0.007 C 
BRANCH  19  23
ATOM     20  O   UNL     1      32.501 -20.539 -20.626  0.00  0.00    -0.274 OA
ATOM     21  N   UNL     1      34.036 -21.275 -19.025  0.00  0.00    -0.211 N 
ATOM     22  N   UNL     1      36.297 -20.564 -19.181  0.00  0.00    -0.395 NA
ATOM     23  C   UNL     1      34.728 -19.773 -20.824  0.00  0.00    +0.123 C 
ATOM     24  C   UNL     1      35.966 -19.837 -20.298  0.00  0.00    +0.097 C 
ATOM     25  C   UNL     1      33.640 -20.559 -20.159  0.00  0.00    +0.241 C 
ATOM     26  C   UNL     1      35.364 -21.242 -18.584  0.00  0.00    +0.188 C 
ATOM     27  C   UNL     1      37.148 -19.123 -20.901  0.00  0.00    +0.062 C 
ATOM     28  C   UNL     1      35.702 -22.046 -17.356  0.00  0.00    +0.023 C 
ATOM     29  C   UNL     1      33.083 -22.024 -18.344  0.00  0.00    +0.074 C 
ATOM     30  C   UNL     1      34.728 -22.743 -16.753  0.00  0.00    +0.001 C 
ATOM     31  C   UNL     1      33.384 -22.736 -17.255  0.00  0.00    +0.016 C 
ATOM     32  C   UNL     1      37.115 -22.028 -16.861  0.00  0.00    +0.035 C 
ENDBRANCH  19  23
ENDBRANCH  18  19
ENDBRANCH   1  18
TORSDOF 4
ENDMDL
MODEL 4
REMARK VINA RESULT:     -12.1      6.598     13.747
REMARK  Name = 71351
REMARK  4 active torsions:
REMARK  status: ('A' for Active; 'I' for Inactive)
REMARK    1  A    between atoms: N_1  and  C_18
REMARK    2  A    between atoms: C_2  and  C_11
REMARK    3  A    between atoms: C_18  and  C_19
REMARK    4  A    between atoms: C_19  and  C_23
REMARK                            x       y       z     vdW  Elec       q    Type
REMARK                         _______ _______ _______ _____ _____    ______ ____
ROOT
ATOM      1  N   UNL     1      32.249 -10.209 -22.464  0.00  0.00    +0.387 N 
ATOM      2  C   UNL     1      33.661 -12.738 -22.930  0.00  0.00    +0.039 C 
ATOM      3  C   UNL     1      33.797 -11.532 -23.873  0.00  0.00    -0.017 C 
ATOM      4  C   UNL     1      32.321 -12.667 -22.181  0.00  0.00    -0.017 C 
ATOM      5  C   UNL     1      33.560 -10.215 -23.128  0.00  0.00    -0.077 C 
ATOM      6  C   UNL     1      32.139 -11.309 -21.497  0.00  0.00    -0.077 C 
ATOM      7  H   UNL     1      31.534 -10.346 -23.179  0.00  0.00    -0.080 HD
ENDROOT
BRANCH   2  11
ATOM      8  F   UNL     1      35.769 -19.123 -22.787  0.00  0.00    -0.204 F 
ATOM      9  O   UNL     1      33.813 -15.488 -25.254  0.00  0.00    -0.354 OA
ATOM     10  N   UNL     1      33.498 -14.178 -24.912  0.00  0.00    -0.081 NA
ATOM     11  C   UNL     1      33.864 -14.058 -23.638  0.00  0.00    +0.100 A 
ATOM     12  C   UNL     1      34.412 -15.238 -23.111  0.00  0.00    +0.054 A 
ATOM     13  C   UNL     1      34.357 -16.117 -24.178  0.00  0.00    +0.179 A 
ATOM     14  C   UNL     1      34.943 -15.679 -21.890  0.00  0.00    +0.007 C 
ATOM     15  C   UNL     1      34.799 -17.436 -24.131  0.00  0.00    +0.070 C 
ATOM     16  C   UNL     1      35.397 -17.003 -21.806  0.00  0.00    +0.030 C 
ATOM     17  C   UNL     1      35.324 -17.864 -22.907  0.00  0.00    +0.143 C 
ENDBRANCH   2  11
BRANCH   1  18
ATOM     18  C   UNL     1      32.015  -8.923 -21.806  0.00  0.00    -0.076 C 
BRANCH  18  19
ATOM     19  C   UNL     1      33.281  -8.080 -21.854  0.00  0.00    -0.007 C 
BRANCH  19  23
ATOM     20  O   UNL     1      34.151  -7.178 -24.329  0.00  0.00    -0.274 OA
ATOM     21  N   UNL     1      33.282  -5.022 -24.094  0.00  0.00    -0.211 N 
ATOM     22  N   UNL     1      32.070  -4.474 -22.126  0.00  0.00    -0.395 NA
ATOM     23  C   UNL     1      32.980  -6.691 -22.335  0.00  0.00    +0.123 C 
ATOM     24  C   UNL     1      32.290  -5.748 -21.665  0.00  0.00    +0.097 C 
ATOM     25  C   UNL     1      33.533  -6.334 -23.681  0.00  0.00    +0.241 C 
ATOM     26  C   UNL     1      32.552  -4.142 -23.285  0.00  0.00    +0.188 C 
ATOM     27  C   UNL     1      31.653  -6.001 -20.323  0.00  0.00    +0.062 C 
ATOM     28  C   UNL     1      32.327  -2.749 -23.812  0.00  0.00    +0.023 C 
ATOM     29  C   UNL     1      33.769  -4.608 -25.328  0.00  0.00    +0.074 C 
ATOM     30  C   UNL     1      32.829  -2.424 -25.012  0.00  0.00    +0.001 C 
ATOM     31  C   UNL     1      33.569  -3.373 -25.794  0.00  0.00    +0.016 C 
ATOM     32  C   UNL     1      31.551  -1.786 -22.967  0.00  0.00    +0.035 C 
ENDBRANCH  19  23
ENDBRANCH  18  19
ENDBRANCH   1  18
TORSDOF 4
ENDMDL
MODEL 5
REMARK VINA RESULT:     -12.1      3.780     10.285
REMARK  Name = 71351
REMARK  4 active torsions:
REMARK  status: ('A' for Active; 'I' for Inactive)
REMARK    1  A    between atoms: N_1  and  C_18
REMARK    2  A    between atoms: C_2  and  C_11
REMARK    3  A    between atoms: C_18  and  C_19
REMARK    4  A    between atoms: C_19  and  C_23
REMARK                            x       y       z     vdW  Elec       q    Type
REMARK                         _______ _______ _______ _____ _____    ______ ____
ROOT
ATOM      1  N   UNL     1      35.259 -15.708 -23.214  0.00  0.00    +0.387 N 
ATOM      2  C   UNL     1      34.821 -18.045 -21.494  0.00  0.00    +0.039 C 
ATOM      3  C   UNL     1      35.239 -16.675 -20.935  0.00  0.00    -0.017 C 
ATOM      4  C   UNL     1      35.273 -18.170 -22.958  0.00  0.00    -0.017 C 
ATOM      5  C   UNL     1      34.764 -15.536 -21.841  0.00  0.00    -0.077 C 
ATOM      6  C   UNL     1      34.795 -16.977 -23.790  0.00  0.00    -0.077 C 
ATOM      7  H   UNL     1      36.278 -15.732 -23.180  0.00  0.00    -0.080 HD
ENDROOT
BRANCH   2  11
ATOM      8  F   UNL     1      33.411 -23.494 -17.814  0.00  0.00    -0.204 F 
ATOM      9  O   UNL     1      36.697 -20.469 -19.599  0.00  0.00    -0.354 OA
ATOM     10  N   UNL     1      36.599 -19.339 -20.403  0.00  0.00    -0.081 NA
ATOM     11  C   UNL     1      35.297 -19.195 -20.637  0.00  0.00    +0.100 A 
ATOM     12  C   UNL     1      34.515 -20.185 -20.022  0.00  0.00    +0.054 A 
ATOM     13  C   UNL     1      35.452 -20.971 -19.374  0.00  0.00    +0.179 A 
ATOM     14  C   UNL     1      33.157 -20.522 -19.924  0.00  0.00    +0.007 C 
ATOM     15  C   UNL     1      35.142 -22.096 -18.616  0.00  0.00    +0.070 C 
ATOM     16  C   UNL     1      32.808 -21.650 -19.168  0.00  0.00    +0.030 C 
ATOM     17  C   UNL     1      33.784 -22.422 -18.527  0.00  0.00    +0.143 C 
ENDBRANCH   2  11
BRANCH   1  18
ATOM     18  C   UNL     1      34.844 -14.583 -24.052  0.00  0.00    -0.076 C 
BRANCH  18  19
ATOM     19  C   UNL     1      33.370 -14.280 -23.818  0.00  0.00    -0.007 C 
BRANCH  19  23
ATOM     20  O   UNL     1      32.383 -13.547 -21.332  0.00  0.00    -0.274 OA
ATOM     21  N   UNL     1      32.392 -11.250 -21.762  0.00  0.00    -0.211 N 
ATOM     22  N   UNL     1      33.199 -10.470 -23.856  0.00  0.00    -0.395 NA
ATOM     23  C   UNL     1      33.174 -12.840 -23.444  0.00  0.00    +0.123 C 
ATOM     24  C   UNL     1      33.431 -11.772 -24.223  0.00  0.00    +0.097 C 
ATOM     25  C   UNL     1      32.612 -12.594 -22.078  0.00  0.00    +0.241 C 
ATOM     26  C   UNL     1      32.701 -10.238 -22.679  0.00  0.00    +0.188 C 
ATOM     27  C   UNL     1      34.034 -11.891 -25.599  0.00  0.00    +0.062 C 
ATOM     28  C   UNL     1      32.434  -8.818 -22.253  0.00  0.00    +0.023 C 
ATOM     29  C   UNL     1      31.863 -10.937 -20.515  0.00  0.00    +0.074 C 
ATOM     30  C   UNL     1      31.922  -8.595 -21.034  0.00  0.00    +0.001 C 
ATOM     31  C   UNL     1      31.628  -9.677 -20.139  0.00  0.00    +0.016 C 
ATOM     32  C   UNL     1      32.754  -7.715 -23.215  0.00  0.00    +0.035 C 
ENDBRANCH  19  23
ENDBRANCH  18  19
ENDBRANCH   1  18
TORSDOF 4
ENDMDL
MODEL 6
REMARK VINA RESULT:     -11.9      1.421      2.161
REMARK  Name = 71351
REMARK  4 active torsions:
REMARK  status: ('A' for Active; 'I' for Inactive)
REMARK    1  A    between atoms: N_1  and  C_18
REMARK    2  A    between atoms: C_2  and  C_11
REMARK    3  A    between atoms: C_18  and  C_19
REMARK    4  A    between atoms: C_19  and  C_23
REMARK                            x       y       z     vdW  Elec       q    Type
REMARK                         _______ _______ _______ _____ _____    ______ ____
ROOT
ATOM      1  N   UNL     1      35.735 -19.757 -19.994  0.00  0.00    +0.387 N 
ATOM      2  C   UNL     1      35.317 -18.406 -22.564  0.00  0.00    +0.039 C 
ATOM      3  C   UNL     1      36.357 -17.926 -21.539  0.00  0.00    -0.017 C 
ATOM      4  C   UNL     1      34.200 -19.184 -21.850  0.00  0.00    -0.017 C 
ATOM      5  C   UNL     1      36.853 -19.083 -20.668  0.00  0.00    -0.077 C 
ATOM      6  C   UNL     1      34.776 -20.295 -20.967  0.00  0.00    -0.077 C 
ATOM      7  H   UNL     1      35.249 -19.066 -19.422  0.00  0.00    -0.080 HD
ENDROOT
BRANCH   2  11
ATOM      8  F   UNL     1      33.471 -11.971 -23.205  0.00  0.00    -0.204 F 
ATOM      9  O   UNL     1      34.041 -16.309 -25.202  0.00  0.00    -0.354 OA
ATOM     10  N   UNL     1      34.495 -17.524 -24.703  0.00  0.00    -0.081 NA
ATOM     11  C   UNL     1      34.786 -17.284 -23.427  0.00  0.00    +0.100 A 
ATOM     12  C   UNL     1      34.546 -15.954 -23.049  0.00  0.00    +0.054 A 
ATOM     13  C   UNL     1      34.073 -15.374 -24.213  0.00  0.00    +0.179 A 
ATOM     14  C   UNL     1      34.661 -15.167 -21.894  0.00  0.00    +0.007 C 
ATOM     15  C   UNL     1      33.695 -14.040 -24.328  0.00  0.00    +0.070 C 
ATOM     16  C   UNL     1      34.290 -13.817 -21.973  0.00  0.00    +0.030 C 
ATOM     17  C   UNL     1      33.816 -13.266 -23.169  0.00  0.00    +0.143 C 
ENDBRANCH   2  11
BRANCH   1  18
ATOM     18  C   UNL     1      36.231 -20.822 -19.121  0.00  0.00    -0.076 C 
BRANCH  18  19
ATOM     19  C   UNL     1      35.164 -21.895 -18.957  0.00  0.00    -0.007 C 
BRANCH  19  23
ATOM     20  O   UNL     1      37.348 -21.844 -17.248  0.00  0.00    -0.274 OA
ATOM     21  N   UNL     1      36.201 -22.704 -15.402  0.00  0.00    -0.211 N 
ATOM     22  N   UNL     1      33.882 -23.178 -15.603  0.00  0.00    -0.395 NA
ATOM     23  C   UNL     1      35.049 -22.319 -17.522  0.00  0.00    +0.123 C 
ATOM     24  C   UNL     1      33.934 -22.761 -16.909  0.00  0.00    +0.097 C 
ATOM     25  C   UNL     1      36.315 -22.262 -16.724  0.00  0.00    +0.241 C 
ATOM     26  C   UNL     1      34.972 -23.147 -14.898  0.00  0.00    +0.188 C 
ATOM     27  C   UNL     1      32.595 -22.826 -17.597  0.00  0.00    +0.062 C 
ATOM     28  C   UNL     1      34.941 -23.601 -13.462  0.00  0.00    +0.023 C 
ATOM     29  C   UNL     1      37.333 -22.691 -14.596  0.00  0.00    +0.074 C 
ATOM     30  C   UNL     1      36.075 -23.560 -12.747  0.00  0.00    +0.001 C 
ATOM     31  C   UNL     1      37.304 -23.094 -13.323  0.00  0.00    +0.016 C 
ATOM     32  C   UNL     1      33.640 -24.082 -12.896  0.00  0.00    +0.035 C 
ENDBRANCH  19  23
ENDBRANCH  18  19
ENDBRANCH   1  18
TORSDOF 4
ENDMDL
MODEL 7
REMARK VINA RESULT:     -11.9      3.438     10.102
REMARK  Name = 71351
REMARK  4 active torsions:
REMARK  status: ('A' for Active; 'I' for Inactive)
REMARK    1  A    between atoms: N_1  and  C_18
REMARK    2  A    between atoms: C_2  and  C_11
REMARK    3  A    between atoms: C_18  and  C_19
REMARK    4  A    between atoms: C_19  and  C_23
REMARK                            x       y       z     vdW  Elec       q    Type
REMARK                         _______ _______ _______ _____ _____    ______ ____
ROOT
ATOM      1  N   UNL     1      34.150 -20.353 -20.079  0.00  0.00    +0.387 N 
ATOM      2  C   UNL     1      34.122 -22.445 -18.023  0.00  0.00    +0.039 C 
ATOM      3  C   UNL     1      32.883 -21.596 -18.353  0.00  0.00    -0.017 C 
ATOM      4  C   UNL     1      35.398 -21.676 -18.399  0.00  0.00    -0.017 C 
ATOM      5  C   UNL     1      32.918 -21.104 -19.802  0.00  0.00    -0.077 C 
ATOM      6  C   UNL     1      35.340 -21.182 -19.847  0.00  0.00    -0.077 C 
ATOM      7  H   UNL     1      34.187 -19.562 -19.435  0.00  0.00    -0.080 HD
ENDROOT
BRANCH   2  11
ATOM      8  F   UNL     1      30.749 -24.202 -12.476  0.00  0.00    -0.204 F 
ATOM      9  O   UNL     1      34.963 -23.589 -14.711  0.00  0.00    -0.354 OA
ATOM     10  N   UNL     1      35.298 -23.169 -15.992  0.00  0.00    -0.081 NA
ATOM     11  C   UNL     1      34.133 -22.928 -16.590  0.00  0.00    +0.100 A 
ATOM     12  C   UNL     1      33.029 -23.171 -15.759  0.00  0.00    +0.054 A 
ATOM     13  C   UNL     1      33.609 -23.590 -14.575  0.00  0.00    +0.179 A 
ATOM     14  C   UNL     1      31.631 -23.094 -15.844  0.00  0.00    +0.007 C 
ATOM     15  C   UNL     1      32.895 -23.949 -13.436  0.00  0.00    +0.070 C 
ATOM     16  C   UNL     1      30.879 -23.450 -14.715  0.00  0.00    +0.030 C 
ATOM     17  C   UNL     1      31.502 -23.870 -13.534  0.00  0.00    +0.143 C 
ENDBRANCH   2  11
BRANCH   1  18
ATOM     18  C   UNL     1      34.141 -19.842 -21.450  0.00  0.00    -0.076 C 
BRANCH  18  19
ATOM     19  C   UNL     1      35.373 -18.982 -21.689  0.00  0.00    -0.007 C 
BRANCH  19  23
ATOM     20  O   UNL     1      35.283 -16.662 -20.171  0.00  0.00    -0.274 OA
ATOM     21  N   UNL     1      34.566 -15.285 -21.918  0.00  0.00    -0.211 N 
ATOM     22  N   UNL     1      34.283 -16.220 -24.082  0.00  0.00    -0.395 NA
ATOM     23  C   UNL     1      34.995 -17.661 -22.293  0.00  0.00    +0.123 C 
ATOM     24  C   UNL     1      34.662 -17.439 -23.580  0.00  0.00    +0.097 C 
ATOM     25  C   UNL     1      34.965 -16.499 -21.349  0.00  0.00    +0.241 C 
ATOM     26  C   UNL     1      34.239 -15.203 -23.277  0.00  0.00    +0.188 C 
ATOM     27  C   UNL     1      34.693 -18.520 -24.629  0.00  0.00    +0.062 C 
ATOM     28  C   UNL     1      33.823 -13.855 -23.804  0.00  0.00    +0.023 C 
ATOM     29  C   UNL     1      34.504 -14.159 -21.106  0.00  0.00    +0.074 C 
ATOM     30  C   UNL     1      33.788 -12.814 -22.959  0.00  0.00    +0.001 C 
ATOM     31  C   UNL     1      34.135 -12.964 -21.575  0.00  0.00    +0.016 C 
ATOM     32  C   UNL     1      33.467 -13.738 -25.254  0.00  0.00    +0.035 C 
ENDBRANCH  19  23
ENDBRANCH  18  19
ENDBRANCH   1  18
TORSDOF 4
ENDMDL
MODEL 8
REMARK VINA RESULT:     -11.9      6.869     13.853
REMARK  Name = 71351
REMARK  4 active torsions:
REMARK  status: ('A' for Active; 'I' for Inactive)
REMARK    1  A    between atoms: N_1  and  C_18
REMARK    2  A    between atoms: C_2  and  C_11
REMARK    3  A    between atoms: C_18  and  C_19
REMARK    4  A    between atoms: C_19  and  C_23
REMARK                            x       y       z     vdW  Elec       q    Type
REMARK                         _______ _______ _______ _____ _____    ______ ____
ROOT
ATOM      1  N   UNL     1      32.122  -9.943 -22.515  0.00  0.00    +0.387 N 
ATOM      2  C   UNL     1      33.578 -12.441 -23.011  0.00  0.00    +0.039 C 
ATOM      3  C   UNL     1      33.668 -11.232 -23.956  0.00  0.00    -0.017 C 
ATOM      4  C   UNL     1      32.252 -12.399 -22.234  0.00  0.00    -0.017 C 
ATOM      5  C   UNL     1      33.418  -9.921 -23.206  0.00  0.00    -0.077 C 
ATOM      6  C   UNL     1      32.055 -11.045 -21.547  0.00  0.00    -0.077 C 
ATOM      7  H   UNL     1      31.395 -10.095 -23.215  0.00  0.00    -0.080 HD
ENDROOT
BRANCH   2  11
ATOM      8  F   UNL     1      35.651 -18.837 -22.862  0.00  0.00    -0.204 F 
ATOM      9  O   UNL     1      33.781 -15.173 -25.353  0.00  0.00    -0.354 OA
ATOM     10  N   UNL     1      33.463 -13.864 -25.009  0.00  0.00    -0.081 NA
ATOM     11  C   UNL     1      33.794 -13.757 -23.724  0.00  0.00    +0.100 A 
ATOM     12  C   UNL     1      34.322 -14.942 -23.191  0.00  0.00    +0.054 A 
ATOM     13  C   UNL     1      34.293 -15.813 -24.266  0.00  0.00    +0.179 A 
ATOM     14  C   UNL     1      34.817 -15.396 -21.960  0.00  0.00    +0.007 C 
ATOM     15  C   UNL     1      34.727 -17.135 -24.218  0.00  0.00    +0.070 C 
ATOM     16  C   UNL     1      35.262 -16.723 -21.874  0.00  0.00    +0.030 C 
ATOM     17  C   UNL     1      35.216 -17.575 -22.983  0.00  0.00    +0.143 C 
ENDBRANCH   2  11
BRANCH   1  18
ATOM     18  C   UNL     1      31.874  -8.663 -21.851  0.00  0.00    -0.076 C 
BRANCH  18  19
ATOM     19  C   UNL     1      33.166  -7.862 -21.772  0.00  0.00    -0.007 C 
BRANCH  19  23
ATOM     20  O   UNL     1      31.499  -5.956 -20.639  0.00  0.00    -0.274 OA
ATOM     21  N   UNL     1      31.858  -4.343 -22.291  0.00  0.00    -0.211 N 
ATOM     22  N   UNL     1      33.367  -4.819 -24.062  0.00  0.00    -0.395 NA
ATOM     23  C   UNL     1      32.992  -6.505 -22.387  0.00  0.00    +0.123 C 
ATOM     24  C   UNL     1      33.585  -6.057 -23.511  0.00  0.00    +0.097 C 
ATOM     25  C   UNL     1      32.043  -5.587 -21.680  0.00  0.00    +0.241 C 
ATOM     26  C   UNL     1      32.539  -4.014 -23.469  0.00  0.00    +0.188 C 
ATOM     27  C   UNL     1      34.587  -6.873 -24.286  0.00  0.00    +0.062 C 
ATOM     28  C   UNL     1      32.281  -2.651 -24.056  0.00  0.00    +0.023 C 
ATOM     29  C   UNL     1      30.985  -3.435 -21.702  0.00  0.00    +0.074 C 
ATOM     30  C   UNL     1      31.424  -1.830 -23.430  0.00  0.00    +0.001 C 
ATOM     31  C   UNL     1      30.758  -2.227 -22.223  0.00  0.00    +0.016 C 
ATOM     32  C   UNL     1      32.995  -2.273 -25.317  0.00  0.00    +0.035 C 
ENDBRANCH  19  23
ENDBRANCH  18  19
ENDBRANCH   1  18
TORSDOF 4
ENDMDL
MODEL 9
REMARK VINA RESULT:     -11.7      2.899      4.923
REMARK  Name = 71351
REMARK  4 active torsions:
REMARK  status: ('A' for Active; 'I' for Inactive)
REMARK    1  A    between atoms: N_1  and  C_18
REMARK    2  A    between atoms: C_2  and  C_11
REMARK    3  A    between atoms: C_18  and  C_19
REMARK    4  A    between atoms: C_19  and  C_23
REMARK                            x       y       z     vdW  Elec       q    Type
REMARK                         _______ _______ _______ _____ _____    ______ ____
ROOT
ATOM      1  N   UNL     1      34.505 -16.090 -22.494  0.00  0.00    +0.387 N 
ATOM      2  C   UNL     1      33.904 -13.220 -22.393  0.00  0.00    +0.039 C 
ATOM      3  C   UNL     1      33.991 -14.090 -21.128  0.00  0.00    -0.017 C 
ATOM      4  C   UNL     1      33.548 -14.095 -23.605  0.00  0.00    -0.017 C 
ATOM      5  C   UNL     1      34.925 -15.285 -21.339  0.00  0.00    -0.077 C 
ATOM      6  C   UNL     1      34.499 -15.289 -23.725  0.00  0.00    -0.077 C 
ATOM      7  H   UNL     1      33.552 -16.411 -22.324  0.00  0.00    -0.080 HD
ENDROOT
BRANCH   2  11
ATOM      8  F   UNL     1      32.499  -6.738 -23.506  0.00  0.00    -0.204 F 
ATOM      9  O   UNL     1      31.211 -10.961 -21.597  0.00  0.00    -0.354 OA
ATOM     10  N   UNL     1      31.824 -12.208 -21.568  0.00  0.00    -0.081 NA
ATOM     11  C   UNL     1      32.968 -12.044 -22.228  0.00  0.00    +0.100 A 
ATOM     12  C   UNL     1      33.147 -10.735 -22.701  0.00  0.00    +0.054 A 
ATOM     13  C   UNL     1      32.003 -10.084 -22.275  0.00  0.00    +0.179 A 
ATOM     14  C   UNL     1      34.111 -10.016 -23.424  0.00  0.00    +0.007 C 
ATOM     15  C   UNL     1      31.728  -8.741 -22.514  0.00  0.00    +0.070 C 
ATOM     16  C   UNL     1      33.867  -8.660 -23.685  0.00  0.00    +0.030 C 
ATOM     17  C   UNL     1      32.697  -8.037 -23.238  0.00  0.00    +0.143 C 
ENDBRANCH   2  11
BRANCH   1  18
ATOM     18  C   UNL     1      35.374 -17.257 -22.647  0.00  0.00    -0.076 C 
BRANCH  18  19
ATOM     19  C   UNL     1      34.538 -18.529 -22.628  0.00  0.00    -0.007 C 
BRANCH  19  23
ATOM     20  O   UNL     1      32.613 -20.058 -21.341  0.00  0.00    -0.274 OA
ATOM     21  N   UNL     1      34.049 -20.867 -19.684  0.00  0.00    -0.211 N 
ATOM     22  N   UNL     1      36.338 -20.237 -19.732  0.00  0.00    -0.395 NA
ATOM     23  C   UNL     1      34.873 -19.371 -21.431  0.00  0.00    +0.123 C 
ATOM     24  C   UNL     1      36.084 -19.486 -20.852  0.00  0.00    +0.097 C 
ATOM     25  C   UNL     1      33.729 -20.125 -20.825  0.00  0.00    +0.241 C 
ATOM     26  C   UNL     1      35.357 -20.888 -19.185  0.00  0.00    +0.188 C 
ATOM     27  C   UNL     1      37.316 -18.808 -21.393  0.00  0.00    +0.062 C 
ATOM     28  C   UNL     1      35.611 -21.718 -17.954  0.00  0.00    +0.023 C 
ATOM     29  C   UNL     1      33.040 -21.589 -19.056  0.00  0.00    +0.074 C 
ATOM     30  C   UNL     1      34.586 -22.386 -17.404  0.00  0.00    +0.001 C 
ATOM     31  C   UNL     1      33.267 -22.324 -17.964  0.00  0.00    +0.016 C 
ATOM     32  C   UNL     1      37.000 -21.758 -17.397  0.00  0.00    +0.035 C 
ENDBRANCH  19  23
ENDBRANCH  18  19
ENDBRANCH   1  18
TORSDOF 4
ENDMDL
