MODEL 1
REMARK VINA RESULT:     -11.3      0.000      0.000
REMARK  Name = 11224409
REMARK  8 active torsions:
REMARK  status: ('A' for Active; 'I' for Inactive)
REMARK    1  A    between atoms: C_2  and  N_10
REMARK    2  A    between atoms: C_5  and  C_20
REMARK    3  A    between atoms: C_11  and  C_14
REMARK    4  A    between atoms: C_14  and  N_16
REMARK    5  A    between atoms: C_21  and  C_26
REMARK    6  A    between atoms: C_26  and  N_27
REMARK    7  A    between atoms: N_27  and  C_30
REMARK    8  A    between atoms: C_30  and  C_34
REMARK                            x       y       z     vdW  Elec       q    Type
REMARK                         _______ _______ _______ _____ _____    ______ ____
ROOT
ATOM      1  F   UNL     1      31.527 -12.317 -21.137  0.00  0.00    -0.204 F 
ATOM      2  C   UNL     1      32.286  -8.852 -21.927  0.00  0.00    +0.059 C 
ATOM      3  C   UNL     1      31.699  -9.971 -21.335  0.00  0.00    +0.045 C 
ATOM      4  C   UNL     1      33.273  -9.015 -22.899  0.00  0.00    +0.015 C 
ATOM      5  C   UNL     1      33.087 -11.414 -22.687  0.00  0.00    +0.028 C 
ATOM      6  C   UNL     1      32.100 -11.252 -21.715  0.00  0.00    +0.141 C 
ATOM      7  C   UNL     1      33.675 -10.296 -23.279  0.00  0.00    +0.004 C 
ENDROOT
BRANCH   2  10
ATOM      8  O   UNL     1      31.514  -5.667 -20.341  0.00  0.00    -0.434 OA
ATOM      9  O   UNL     1      32.587  -7.367 -19.290  0.00  0.00    -0.226 OA
ATOM     10  N   UNL     1      31.876  -7.545 -21.540  0.00  0.00    -0.221 N 
ATOM     11  C   UNL     1      31.160  -5.349 -21.693  0.00  0.00    +0.210 C 
ATOM     12  C   UNL     1      31.085  -6.693 -22.387  0.00  0.00    +0.147 C 
ATOM     13  C   UNL     1      32.063  -6.929 -20.304  0.00  0.00    +0.409 C 
BRANCH  11  14
ATOM     14  C   UNL     1      32.224  -4.430 -22.277  0.00  0.00    +0.135 C 
BRANCH  14  16
ATOM     15  O   UNL     1      34.376  -5.268 -24.036  0.00  0.00    -0.275 OA
ATOM     16  N   UNL     1      32.213  -4.469 -23.709  0.00  0.00    -0.301 N 
ATOM     17  C   UNL     1      33.295  -4.886 -24.476  0.00  0.00    +0.223 C 
ATOM     18  C   UNL     1      33.006  -4.852 -25.953  0.00  0.00    +0.095 C 
ATOM     19  H   UNL     1      31.394  -4.183 -24.176  0.00  0.00    +0.150 HD
ENDBRANCH  14  16
ENDBRANCH  11  14
ENDBRANCH   2  10
BRANCH   5  20
ATOM     20  C   UNL     1      33.506 -12.741 -23.084  0.00  0.00    +0.002 C 
ATOM     21  C   UNL     1      34.311 -15.300 -23.849  0.00  0.00    -0.044 C 
ATOM     22  C   UNL     1      34.171 -13.564 -22.175  0.00  0.00    -0.000 C 
ATOM     23  C   UNL     1      33.243 -13.198 -24.376  0.00  0.00    -0.000 C 
ATOM     24  C   UNL     1      34.573 -14.844 -22.558  0.00  0.00    -0.006 C 
ATOM     25  C   UNL     1      33.646 -14.477 -24.759  0.00  0.00    -0.006 C 
BRANCH  21  26
ATOM     26  C   UNL     1      34.741 -16.669 -24.258  0.00  0.00    -0.054 C 
BRANCH  26  27
ATOM     27  N   UNL     1      35.518 -17.344 -23.216  0.00  0.00    +0.390 N 
ATOM     28  H   UNL     1      35.669 -16.699 -22.441  0.00  0.00    -0.083 HD
ATOM     29  H   UNL     1      36.410 -17.638 -23.612  0.00  0.00    -0.083 HD
BRANCH  27  30
ATOM     30  C   UNL     1      34.812 -18.518 -22.730  0.00  0.00    -0.031 C 
BRANCH  30  34
ATOM     31  N   UNL     1      34.821 -20.007 -20.753  0.00  0.00    -0.170 NA
ATOM     32  N   UNL     1      35.713 -20.197 -19.767  0.00  0.00    -0.157 N 
ATOM     33  N   UNL     1      36.847 -19.478 -19.782  0.00  0.00    -0.162 NA
ATOM     34  C   UNL     1      35.441 -19.072 -21.479  0.00  0.00    +0.077 C 
ATOM     35  C   UNL     1      36.671 -18.750 -20.889  0.00  0.00    +0.133 C 
ATOM     36  H   UNL     1      35.539 -20.848 -19.049  0.00  0.00    +0.197 HD
ENDBRANCH  30  34
ENDBRANCH  27  30
ENDBRANCH  26  27
ENDBRANCH  21  26
ENDBRANCH   5  20
TORSDOF 8
ENDMDL
MODEL 2
REMARK VINA RESULT:     -11.2      8.612     15.051
REMARK  Name = 11224409
REMARK  8 active torsions:
REMARK  status: ('A' for Active; 'I' for Inactive)
REMARK    1  A    between atoms: C_2  and  N_10
REMARK    2  A    between atoms: C_5  and  C_20
REMARK    3  A    between atoms: C_11  and  C_14
REMARK    4  A    between atoms: C_14  and  N_16
REMARK    5  A    between atoms: C_21  and  C_26
REMARK    6  A    between atoms: C_26  and  N_27
REMARK    7  A    between atoms: N_27  and  C_30
REMARK    8  A    between atoms: C_30  and  C_34
REMARK                            x       y       z     vdW  Elec       q    Type
REMARK                         _______ _______ _______ _____ _____    ______ ____
ROOT
ATOM      1  F   UNL     1      33.292 -22.443 -17.882  0.00  0.00    -0.204 F 
ATOM      2  C   UNL     1      36.077 -23.146 -15.655  0.00  0.00    +0.059 C 
ATOM      3  C   UNL     1      34.794 -23.153 -16.205  0.00  0.00    +0.045 C 
ATOM      4  C   UNL     1      37.094 -22.414 -16.268  0.00  0.00    +0.015 C 
ATOM      5  C   UNL     1      35.546 -21.694 -17.977  0.00  0.00    +0.028 C 
ATOM      6  C   UNL     1      34.529 -22.426 -17.366  0.00  0.00    +0.141 C 
ATOM      7  C   UNL     1      36.829 -21.688 -17.429  0.00  0.00    +0.004 C 
ENDROOT
BRANCH   2  10
ATOM      8  O   UNL     1      36.590 -25.577 -12.993  0.00  0.00    -0.434 OA
ATOM      9  O   UNL     1      35.885 -26.127 -15.078  0.00  0.00    -0.226 OA
ATOM     10  N   UNL     1      36.347 -23.887 -14.470  0.00  0.00    -0.221 N 
ATOM     11  C   UNL     1      37.155 -24.418 -12.367  0.00  0.00    +0.210 C 
ATOM     12  C   UNL     1      36.676 -23.261 -13.218  0.00  0.00    +0.147 C 
ATOM     13  C   UNL     1      36.243 -25.264 -14.289  0.00  0.00    +0.409 C 
BRANCH  11  14
ATOM     14  C   UNL     1      38.671 -24.561 -12.346  0.00  0.00    +0.135 C 
BRANCH  14  16
ATOM     15  O   UNL     1      40.955 -24.825 -14.120  0.00  0.00    -0.275 OA
ATOM     16  N   UNL     1      39.091 -25.733 -13.057  0.00  0.00    -0.301 N 
ATOM     17  C   UNL     1      40.204 -25.770 -13.890  0.00  0.00    +0.223 C 
ATOM     18  C   UNL     1      40.432 -27.131 -14.492  0.00  0.00    +0.095 C 
ATOM     19  H   UNL     1      38.561 -26.556 -12.950  0.00  0.00    +0.150 HD
ENDBRANCH  14  16
ENDBRANCH  11  14
ENDBRANCH   2  10
BRANCH   5  20
ATOM     20  C   UNL     1      35.276 -20.939 -19.182  0.00  0.00    +0.002 C 
ATOM     21  C   UNL     1      34.755 -19.482 -21.503  0.00  0.00    -0.044 C 
ATOM     22  C   UNL     1      33.970 -20.829 -19.657  0.00  0.00    -0.000 C 
ATOM     23  C   UNL     1      36.322 -20.321 -19.868  0.00  0.00    -0.000 C 
ATOM     24  C   UNL     1      33.709 -20.099 -20.817  0.00  0.00    -0.006 C 
ATOM     25  C   UNL     1      36.062 -19.593 -21.028  0.00  0.00    -0.006 C 
BRANCH  21  26
ATOM     26  C   UNL     1      34.475 -18.702 -22.743  0.00  0.00    -0.054 C 
BRANCH  26  27
ATOM     27  N   UNL     1      35.267 -17.473 -22.820  0.00  0.00    +0.390 N 
ATOM     28  H   UNL     1      36.258 -17.711 -22.785  0.00  0.00    -0.083 HD
ATOM     29  H   UNL     1      35.020 -16.874 -22.033  0.00  0.00    -0.083 HD
BRANCH  27  30
ATOM     30  C   UNL     1      34.990 -16.760 -24.056  0.00  0.00    -0.031 C 
BRANCH  30  34
ATOM     31  N   UNL     1      33.510 -14.896 -24.735  0.00  0.00    -0.170 NA
ATOM     32  N   UNL     1      33.112 -13.781 -24.102  0.00  0.00    -0.157 N 
ATOM     33  N   UNL     1      33.558 -13.557 -22.855  0.00  0.00    -0.162 NA
ATOM     34  C   UNL     1      34.292 -15.450 -23.803  0.00  0.00    +0.077 C 
ATOM     35  C   UNL     1      34.321 -14.636 -22.662  0.00  0.00    +0.133 C 
ATOM     36  H   UNL     1      32.507 -13.141 -24.543  0.00  0.00    +0.197 HD
ENDBRANCH  30  34
ENDBRANCH  27  30
ENDBRANCH  26  27
ENDBRANCH  21  26
ENDBRANCH   5  20
TORSDOF 8
ENDMDL
MODEL 3
REMARK VINA RESULT:     -11.0      6.600     10.548
REMARK  Name = 11224409
REMARK  8 active torsions:
REMARK  status: ('A' for Active; 'I' for Inactive)
REMARK    1  A    between atoms: C_2  and  N_10
REMARK    2  A    between atoms: C_5  and  C_20
REMARK    3  A    between atoms: C_11  and  C_14
REMARK    4  A    between atoms: C_14  and  N_16
REMARK    5  A    between atoms: C_21  and  C_26
REMARK    6  A    between atoms: C_26  and  N_27
REMARK    7  A    between atoms: N_27  and  C_30
REMARK    8  A    between atoms: C_30  and  C_34
REMARK                            x       y       z     vdW  Elec       q    Type
REMARK                         _______ _______ _______ _____ _____    ______ ____
ROOT
ATOM      1  F   UNL     1      32.928 -20.866 -19.688  0.00  0.00    -0.204 F 
ATOM      2  C   UNL     1      34.967 -18.761 -21.839  0.00  0.00    +0.059 C 
ATOM      3  C   UNL     1      33.857 -19.418 -21.305  0.00  0.00    +0.045 C 
ATOM      4  C   UNL     1      36.223 -18.930 -21.256  0.00  0.00    +0.015 C 
ATOM      5  C   UNL     1      35.261 -20.411 -19.608  0.00  0.00    +0.028 C 
ATOM      6  C   UNL     1      34.005 -20.243 -20.190  0.00  0.00    +0.141 C 
ATOM      7  C   UNL     1      36.371 -19.755 -20.141  0.00  0.00    +0.004 C 
ENDROOT
BRANCH   2  10
ATOM      8  O   UNL     1      34.301 -17.152 -25.036  0.00  0.00    -0.434 OA
ATOM      9  O   UNL     1      33.775 -19.312 -24.583  0.00  0.00    -0.226 OA
ATOM     10  N   UNL     1      34.817 -17.920 -22.977  0.00  0.00    -0.221 N 
ATOM     11  C   UNL     1      34.706 -16.006 -24.275  0.00  0.00    +0.210 C 
ATOM     12  C   UNL     1      35.358 -16.589 -23.039  0.00  0.00    +0.147 C 
ATOM     13  C   UNL     1      34.246 -18.248 -24.204  0.00  0.00    +0.409 C 
BRANCH  11  14
ATOM     14  C   UNL     1      33.476 -15.164 -23.963  0.00  0.00    +0.135 C 
BRANCH  14  16
ATOM     15  O   UNL     1      34.039 -12.556 -22.818  0.00  0.00    -0.275 OA
ATOM     16  N   UNL     1      33.525 -13.905 -24.646  0.00  0.00    -0.301 N 
ATOM     17  C   UNL     1      33.803 -12.697 -24.015  0.00  0.00    +0.223 C 
ATOM     18  C   UNL     1      33.815 -11.534 -24.970  0.00  0.00    +0.095 C 
ATOM     19  H   UNL     1      33.350 -13.894 -25.616  0.00  0.00    +0.150 HD
ENDBRANCH  14  16
ENDBRANCH  11  14
ENDBRANCH   2  10
BRANCH   5  20
ATOM     20  C   UNL     1      35.418 -21.266 -18.451  0.00  0.00    +0.002 C 
ATOM     21  C   UNL     1      35.723 -22.916 -16.222  0.00  0.00    -0.044 C 
ATOM     22  C   UNL     1      34.349 -22.045 -18.009  0.00  0.00    -0.000 C 
ATOM     23  C   UNL     1      36.640 -21.312 -17.778  0.00  0.00    -0.000 C 
ATOM     24  C   UNL     1      34.502 -22.870 -16.895  0.00  0.00    -0.006 C 
ATOM     25  C   UNL     1      36.792 -22.136 -16.664  0.00  0.00    -0.006 C 
BRANCH  21  26
ATOM     26  C   UNL     1      35.885 -23.799 -15.031  0.00  0.00    -0.054 C 
BRANCH  26  27
ATOM     27  N   UNL     1      35.709 -23.074 -13.771  0.00  0.00    +0.390 N 
ATOM     28  H   UNL     1      34.889 -23.438 -13.287  0.00  0.00    -0.083 HD
ATOM     29  H   UNL     1      35.588 -22.083 -13.977  0.00  0.00    -0.083 HD
BRANCH  27  30
ATOM     30  C   UNL     1      36.877 -23.235 -12.919  0.00  0.00    -0.031 C 
BRANCH  30  34
ATOM     31  N   UNL     1      37.101 -23.266 -10.455  0.00  0.00    -0.170 NA
ATOM     32  N   UNL     1      36.484 -23.979  -9.499  0.00  0.00    -0.157 N 
ATOM     33  N   UNL     1      35.551 -24.872  -9.867  0.00  0.00    -0.162 NA
ATOM     34  C   UNL     1      36.506 -23.745 -11.551  0.00  0.00    +0.077 C 
ATOM     35  C   UNL     1      35.566 -24.721 -11.195  0.00  0.00    +0.133 C 
ATOM     36  H   UNL     1      36.711 -23.851  -8.550  0.00  0.00    +0.197 HD
ENDBRANCH  30  34
ENDBRANCH  27  30
ENDBRANCH  26  27
ENDBRANCH  21  26
ENDBRANCH   5  20
TORSDOF 8
ENDMDL
MODEL 4
REMARK VINA RESULT:     -10.8      1.336      1.915
REMARK  Name = 11224409
REMARK  8 active torsions:
REMARK  status: ('A' for Active; 'I' for Inactive)
REMARK    1  A    between atoms: C_2  and  N_10
REMARK    2  A    between atoms: C_5  and  C_20
REMARK    3  A    between atoms: C_11  and  C_14
REMARK    4  A    between atoms: C_14  and  N_16
REMARK    5  A    between atoms: C_21  and  C_26
REMARK    6  A    between atoms: C_26  and  N_27
REMARK    7  A    between atoms: N_27  and  C_30
REMARK    8  A    between atoms: C_30  and  C_34
REMARK                            x       y       z     vdW  Elec       q    Type
REMARK                         _______ _______ _______ _____ _____    ______ ____
ROOT
ATOM      1  F   UNL     1      31.938 -13.200 -20.969  0.00  0.00    -0.204 F 
ATOM      2  C   UNL     1      32.507  -9.922 -22.432  0.00  0.00    +0.059 C 
ATOM      3  C   UNL     1      31.996 -10.929 -21.612  0.00  0.00    +0.045 C 
ATOM      4  C   UNL     1      33.459 -10.230 -23.404  0.00  0.00    +0.015 C 
ATOM      5  C   UNL     1      33.390 -12.551 -22.736  0.00  0.00    +0.028 C 
ATOM      6  C   UNL     1      32.438 -12.244 -21.765  0.00  0.00    +0.141 C 
ATOM      7  C   UNL     1      33.901 -11.545 -23.556  0.00  0.00    +0.004 C 
ENDROOT
BRANCH   2  10
ATOM      8  O   UNL     1      31.446  -6.603 -21.375  0.00  0.00    -0.434 OA
ATOM      9  O   UNL     1      32.121  -8.223 -19.939  0.00  0.00    -0.226 OA
ATOM     10  N   UNL     1      32.056  -8.581 -22.277  0.00  0.00    -0.221 N 
ATOM     11  C   UNL     1      31.494  -6.396 -22.793  0.00  0.00    +0.210 C 
ATOM     12  C   UNL     1      31.564  -7.792 -23.374  0.00  0.00    +0.147 C 
ATOM     13  C   UNL     1      31.916  -7.866 -21.090  0.00  0.00    +0.409 C 
BRANCH  11  14
ATOM     14  C   UNL     1      32.712  -5.545 -23.125  0.00  0.00    +0.135 C 
BRANCH  14  16
ATOM     15  O   UNL     1      34.968  -5.163 -24.913  0.00  0.00    -0.275 OA
ATOM     16  N   UNL     1      32.678  -5.101 -24.488  0.00  0.00    -0.301 N 
ATOM     17  C   UNL     1      33.815  -4.945 -25.274  0.00  0.00    +0.223 C 
ATOM     18  C   UNL     1      33.493  -4.490 -26.673  0.00  0.00    +0.095 C 
ATOM     19  H   UNL     1      31.802  -4.894 -24.888  0.00  0.00    +0.150 HD
ENDBRANCH  14  16
ENDBRANCH  11  14
ENDBRANCH   2  10
BRANCH   5  20
ATOM     20  C   UNL     1      33.851 -13.913 -22.898  0.00  0.00    +0.002 C 
ATOM     21  C   UNL     1      34.741 -16.538 -23.211  0.00  0.00    -0.044 C 
ATOM     22  C   UNL     1      33.628 -14.587 -24.099  0.00  0.00    -0.000 C 
ATOM     23  C   UNL     1      34.519 -14.553 -21.854  0.00  0.00    -0.000 C 
ATOM     24  C   UNL     1      34.074 -15.899 -24.256  0.00  0.00    -0.006 C 
ATOM     25  C   UNL     1      34.964 -15.865 -22.009  0.00  0.00    -0.006 C 
BRANCH  21  26
ATOM     26  C   UNL     1      35.218 -17.941 -23.379  0.00  0.00    -0.054 C 
BRANCH  26  27
ATOM     27  N   UNL     1      34.464 -18.889 -22.556  0.00  0.00    +0.390 N 
ATOM     28  H   UNL     1      34.351 -19.763 -23.071  0.00  0.00    -0.083 HD
ATOM     29  H   UNL     1      33.554 -18.485 -22.341  0.00  0.00    -0.083 HD
BRANCH  27  30
ATOM     30  C   UNL     1      35.164 -19.157 -21.310  0.00  0.00    -0.031 C 
BRANCH  30  34
ATOM     31  N   UNL     1      35.000 -20.906 -19.567  0.00  0.00    -0.170 NA
ATOM     32  N   UNL     1      33.951 -21.515 -18.993  0.00  0.00    -0.157 N 
ATOM     33  N   UNL     1      32.714 -21.166 -19.384  0.00  0.00    -0.162 NA
ATOM     34  C   UNL     1      34.380 -20.079 -20.414  0.00  0.00    +0.077 C 
ATOM     35  C   UNL     1      32.992 -20.238 -20.303  0.00  0.00    +0.133 C 
ATOM     36  H   UNL     1      34.084 -22.203 -18.301  0.00  0.00    +0.197 HD
ENDBRANCH  30  34
ENDBRANCH  27  30
ENDBRANCH  26  27
ENDBRANCH  21  26
ENDBRANCH   5  20
TORSDOF 8
ENDMDL
MODEL 5
REMARK VINA RESULT:     -10.6      6.387     10.537
REMARK  Name = 11224409
REMARK  8 active torsions:
REMARK  status: ('A' for Active; 'I' for Inactive)
REMARK    1  A    between atoms: C_2  and  N_10
REMARK    2  A    between atoms: C_5  and  C_20
REMARK    3  A    between atoms: C_11  and  C_14
REMARK    4  A    between atoms: C_14  and  N_16
REMARK    5  A    between atoms: C_21  and  C_26
REMARK    6  A    between atoms: C_26  and  N_27
REMARK    7  A    between atoms: N_27  and  C_30
REMARK    8  A    between atoms: C_30  and  C_34
REMARK                            x       y       z     vdW  Elec       q    Type
REMARK                         _______ _______ _______ _____ _____    ______ ____
ROOT
ATOM      1  F   UNL     1      32.599 -20.919 -19.604  0.00  0.00    -0.204 F 
ATOM      2  C   UNL     1      34.890 -19.037 -21.706  0.00  0.00    +0.059 C 
ATOM      3  C   UNL     1      33.707 -19.579 -21.200  0.00  0.00    +0.045 C 
ATOM      4  C   UNL     1      36.107 -19.324 -21.089  0.00  0.00    +0.015 C 
ATOM      5  C   UNL     1      34.961 -20.693 -19.462  0.00  0.00    +0.028 C 
ATOM      6  C   UNL     1      33.744 -20.407 -20.078  0.00  0.00    +0.141 C 
ATOM      7  C   UNL     1      36.144 -20.151 -19.966  0.00  0.00    +0.004 C 
ENDROOT
BRANCH   2  10
ATOM      8  O   UNL     1      34.546 -17.420 -24.950  0.00  0.00    -0.434 OA
ATOM      9  O   UNL     1      33.985 -19.583 -24.558  0.00  0.00    -0.226 OA
ATOM     10  N   UNL     1      34.852 -18.193 -22.851  0.00  0.00    -0.221 N 
ATOM     11  C   UNL     1      34.867 -16.275 -24.148  0.00  0.00    +0.210 C 
ATOM     12  C   UNL     1      35.393 -16.860 -22.855  0.00  0.00    +0.147 C 
ATOM     13  C   UNL     1      34.411 -18.519 -24.131  0.00  0.00    +0.409 C 
BRANCH  11  14
ATOM     14  C   UNL     1      33.609 -15.438 -23.961  0.00  0.00    +0.135 C 
BRANCH  14  16
ATOM     15  O   UNL     1      32.891 -13.193 -22.266  0.00  0.00    -0.275 OA
ATOM     16  N   UNL     1      33.871 -14.049 -24.198  0.00  0.00    -0.301 N 
ATOM     17  C   UNL     1      33.488 -13.035 -23.327  0.00  0.00    +0.223 C 
ATOM     18  C   UNL     1      33.910 -11.671 -23.805  0.00  0.00    +0.095 C 
ATOM     19  H   UNL     1      34.348 -13.800 -25.023  0.00  0.00    +0.150 HD
ENDBRANCH  14  16
ENDBRANCH  11  14
ENDBRANCH   2  10
BRANCH   5  20
ATOM     20  C   UNL     1      35.003 -21.551 -18.297  0.00  0.00    +0.002 C 
ATOM     21  C   UNL     1      35.086 -23.208 -16.054  0.00  0.00    -0.044 C 
ATOM     22  C   UNL     1      33.871 -22.272 -17.921  0.00  0.00    -0.000 C 
ATOM     23  C   UNL     1      36.178 -21.658 -17.551  0.00  0.00    -0.000 C 
ATOM     24  C   UNL     1      33.912 -23.101 -16.800  0.00  0.00    -0.006 C 
ATOM     25  C   UNL     1      36.219 -22.486 -16.430  0.00  0.00    -0.006 C 
BRANCH  21  26
ATOM     26  C   UNL     1      35.129 -24.094 -14.856  0.00  0.00    -0.054 C 
BRANCH  26  27
ATOM     27  N   UNL     1      34.671 -23.415 -13.642  0.00  0.00    +0.390 N 
ATOM     28  H   UNL     1      34.208 -22.544 -13.900  0.00  0.00    -0.083 HD
ATOM     29  H   UNL     1      35.478 -23.224 -13.049  0.00  0.00    -0.083 HD
BRANCH  27  30
ATOM     30  C   UNL     1      33.738 -24.252 -12.907  0.00  0.00    -0.031 C 
BRANCH  30  34
ATOM     31  N   UNL     1      31.904 -22.842 -13.786  0.00  0.00    -0.170 NA
ATOM     32  N   UNL     1      30.620 -23.106 -14.076  0.00  0.00    -0.157 N 
ATOM     33  N   UNL     1      30.160 -24.352 -13.878  0.00  0.00    -0.162 NA
ATOM     34  C   UNL     1      32.317 -24.039 -13.359  0.00  0.00    +0.077 C 
ATOM     35  C   UNL     1      31.258 -24.956 -13.415  0.00  0.00    +0.133 C 
ATOM     36  H   UNL     1      30.028 -22.401 -14.425  0.00  0.00    +0.197 HD
ENDBRANCH  30  34
ENDBRANCH  27  30
ENDBRANCH  26  27
ENDBRANCH  21  26
ENDBRANCH   5  20
TORSDOF 8
ENDMDL
MODEL 6
REMARK VINA RESULT:     -10.6      7.101     13.327
REMARK  Name = 11224409
REMARK  8 active torsions:
REMARK  status: ('A' for Active; 'I' for Inactive)
REMARK    1  A    between atoms: C_2  and  N_10
REMARK    2  A    between atoms: C_5  and  C_20
REMARK    3  A    between atoms: C_11  and  C_14
REMARK    4  A    between atoms: C_14  and  N_16
REMARK    5  A    between atoms: C_21  and  C_26
REMARK    6  A    between atoms: C_26  and  N_27
REMARK    7  A    between atoms: N_27  and  C_30
REMARK    8  A    between atoms: C_30  and  C_34
REMARK                            x       y       z     vdW  Elec       q    Type
REMARK                         _______ _______ _______ _____ _____    ______ ____
ROOT
ATOM      1  F   UNL     1      32.607 -20.412 -20.039  0.00  0.00    -0.204 F 
ATOM      2  C   UNL     1      35.039 -21.959 -17.826  0.00  0.00    +0.059 C 
ATOM      3  C   UNL     1      33.819 -21.609 -18.405  0.00  0.00    +0.045 C 
ATOM      4  C   UNL     1      36.228 -21.438 -18.338  0.00  0.00    +0.015 C 
ATOM      5  C   UNL     1      34.976 -20.218 -20.005  0.00  0.00    +0.028 C 
ATOM      6  C   UNL     1      33.788 -20.738 -19.494  0.00  0.00    +0.141 C 
ATOM      7  C   UNL     1      36.197 -20.568 -19.427  0.00  0.00    +0.004 C 
ENDROOT
BRANCH   2  10
ATOM      8  O   UNL     1      35.748 -23.998 -14.894  0.00  0.00    -0.434 OA
ATOM      9  O   UNL     1      37.234 -22.545 -15.803  0.00  0.00    -0.226 OA
ATOM     10  N   UNL     1      35.071 -22.847 -16.714  0.00  0.00    -0.221 N 
ATOM     11  C   UNL     1      34.345 -24.261 -15.031  0.00  0.00    +0.210 C 
ATOM     12  C   UNL     1      34.005 -23.768 -16.421  0.00  0.00    +0.147 C 
ATOM     13  C   UNL     1      36.121 -23.052 -15.822  0.00  0.00    +0.409 C 
BRANCH  11  14
ATOM     14  C   UNL     1      33.597 -23.519 -13.932  0.00  0.00    +0.135 C 
BRANCH  14  16
ATOM     15  O   UNL     1      31.070 -23.834 -12.536  0.00  0.00    -0.275 OA
ATOM     16  N   UNL     1      32.299 -23.105 -14.377  0.00  0.00    -0.301 N 
ATOM     17  C   UNL     1      31.135 -23.298 -13.639  0.00  0.00    +0.223 C 
ATOM     18  C   UNL     1      29.915 -22.747 -14.328  0.00  0.00    +0.095 C 
ATOM     19  H   UNL     1      32.227 -22.662 -15.253  0.00  0.00    +0.150 HD
ENDBRANCH  14  16
ENDBRANCH  11  14
ENDBRANCH   2  10
BRANCH   5  20
ATOM     20  C   UNL     1      34.949 -19.314 -21.135  0.00  0.00    +0.002 C 
ATOM     21  C   UNL     1      34.893 -17.571 -23.312  0.00  0.00    -0.044 C 
ATOM     22  C   UNL     1      34.450 -19.748 -22.363  0.00  0.00    -0.000 C 
ATOM     23  C   UNL     1      35.420 -18.008 -20.996  0.00  0.00    -0.000 C 
ATOM     24  C   UNL     1      34.421 -18.876 -23.451  0.00  0.00    -0.006 C 
ATOM     25  C   UNL     1      35.393 -17.137 -22.084  0.00  0.00    -0.006 C 
BRANCH  21  26
ATOM     26  C   UNL     1      34.862 -16.640 -24.476  0.00  0.00    -0.054 C 
BRANCH  26  27
ATOM     27  N   UNL     1      34.835 -15.235 -24.066  0.00  0.00    +0.390 N 
ATOM     28  H   UNL     1      35.538 -14.718 -24.595  0.00  0.00    -0.083 HD
ATOM     29  H   UNL     1      35.034 -15.181 -23.068  0.00  0.00    -0.083 HD
BRANCH  27  30
ATOM     30  C   UNL     1      33.527 -14.652 -24.315  0.00  0.00    -0.031 C 
BRANCH  30  34
ATOM     31  N   UNL     1      32.739 -13.140 -22.521  0.00  0.00    -0.170 NA
ATOM     32  N   UNL     1      32.858 -11.815 -22.338  0.00  0.00    -0.157 N 
ATOM     33  N   UNL     1      33.516 -11.096 -23.262  0.00  0.00    -0.162 NA
ATOM     34  C   UNL     1      33.388 -13.294 -23.679  0.00  0.00    +0.077 C 
ATOM     35  C   UNL     1      33.859 -12.053 -24.129  0.00  0.00    +0.133 C 
ATOM     36  H   UNL     1      32.470 -11.380 -21.544  0.00  0.00    +0.197 HD
ENDBRANCH  30  34
ENDBRANCH  27  30
ENDBRANCH  26  27
ENDBRANCH  21  26
ENDBRANCH   5  20
TORSDOF 8
ENDMDL
MODEL 7
REMARK VINA RESULT:     -10.6      7.781     14.073
REMARK  Name = 11224409
REMARK  8 active torsions:
REMARK  status: ('A' for Active; 'I' for Inactive)
REMARK    1  A    between atoms: C_2  and  N_10
REMARK    2  A    between atoms: C_5  and  C_20
REMARK    3  A    between atoms: C_11  and  C_14
REMARK    4  A    between atoms: C_14  and  N_16
REMARK    5  A    between atoms: C_21  and  C_26
REMARK    6  A    between atoms: C_26  and  N_27
REMARK    7  A    between atoms: N_27  and  C_30
REMARK    8  A    between atoms: C_30  and  C_34
REMARK                            x       y       z     vdW  Elec       q    Type
REMARK                         _______ _______ _______ _____ _____    ______ ____
ROOT
ATOM      1  F   UNL     1      33.142 -21.968 -18.705  0.00  0.00    -0.204 F 
ATOM      2  C   UNL     1      35.768 -22.720 -16.308  0.00  0.00    +0.059 C 
ATOM      3  C   UNL     1      34.525 -22.709 -16.941  0.00  0.00    +0.045 C 
ATOM      4  C   UNL     1      36.830 -21.991 -16.845  0.00  0.00    +0.015 C 
ATOM      5  C   UNL     1      35.404 -21.240 -18.645  0.00  0.00    +0.028 C 
ATOM      6  C   UNL     1      34.343 -21.968 -18.109  0.00  0.00    +0.141 C 
ATOM      7  C   UNL     1      36.648 -21.251 -18.014  0.00  0.00    +0.004 C 
ENDROOT
BRANCH   2  10
ATOM      8  O   UNL     1      36.790 -24.267 -13.175  0.00  0.00    -0.434 OA
ATOM      9  O   UNL     1      37.931 -22.581 -14.174  0.00  0.00    -0.226 OA
ATOM     10  N   UNL     1      35.954 -23.476 -15.116  0.00  0.00    -0.221 N 
ATOM     11  C   UNL     1      35.499 -24.873 -13.327  0.00  0.00    +0.210 C 
ATOM     12  C   UNL     1      35.125 -24.598 -14.768  0.00  0.00    +0.147 C 
ATOM     13  C   UNL     1      36.974 -23.342 -14.177  0.00  0.00    +0.409 C 
BRANCH  11  14
ATOM     14  C   UNL     1      34.540 -24.243 -12.327  0.00  0.00    +0.135 C 
BRANCH  14  16
ATOM     15  O   UNL     1      31.752 -25.005 -12.605  0.00  0.00    -0.275 OA
ATOM     16  N   UNL     1      33.501 -23.515 -12.994  0.00  0.00    -0.301 N 
ATOM     17  C   UNL     1      32.185 -23.958 -13.079  0.00  0.00    +0.223 C 
ATOM     18  C   UNL     1      31.295 -22.989 -13.812  0.00  0.00    +0.095 C 
ATOM     19  H   UNL     1      33.732 -22.655 -13.415  0.00  0.00    +0.150 HD
ENDBRANCH  14  16
ENDBRANCH  11  14
ENDBRANCH   2  10
BRANCH   5  20
ATOM     20  C   UNL     1      35.220 -20.470 -19.857  0.00  0.00    +0.002 C 
ATOM     21  C   UNL     1      34.865 -18.985 -22.191  0.00  0.00    -0.044 C 
ATOM     22  C   UNL     1      33.959 -20.389 -20.446  0.00  0.00    -0.000 C 
ATOM     23  C   UNL     1      36.304 -19.809 -20.434  0.00  0.00    -0.000 C 
ATOM     24  C   UNL     1      33.781 -19.645 -21.613  0.00  0.00    -0.006 C 
ATOM     25  C   UNL     1      36.127 -19.067 -21.602  0.00  0.00    -0.006 C 
BRANCH  21  26
ATOM     26  C   UNL     1      34.675 -18.190 -23.438  0.00  0.00    -0.054 C 
BRANCH  26  27
ATOM     27  N   UNL     1      35.456 -16.952 -23.436  0.00  0.00    +0.390 N 
ATOM     28  H   UNL     1      36.370 -17.132 -23.852  0.00  0.00    -0.083 HD
ATOM     29  H   UNL     1      35.562 -16.633 -22.473  0.00  0.00    -0.083 HD
BRANCH  27  30
ATOM     30  C   UNL     1      34.779 -15.916 -24.200  0.00  0.00    -0.031 C 
BRANCH  30  34
ATOM     31  N   UNL     1      34.483 -14.824 -21.999  0.00  0.00    -0.170 NA
ATOM     32  N   UNL     1      33.809 -13.728 -21.617  0.00  0.00    -0.157 N 
ATOM     33  N   UNL     1      33.136 -13.031 -22.548  0.00  0.00    -0.162 NA
ATOM     34  C   UNL     1      34.222 -14.837 -23.309  0.00  0.00    +0.077 C 
ATOM     35  C   UNL     1      33.403 -13.749 -23.643  0.00  0.00    +0.133 C 
ATOM     36  H   UNL     1      33.806 -13.441 -20.675  0.00  0.00    +0.197 HD
ENDBRANCH  30  34
ENDBRANCH  27  30
ENDBRANCH  26  27
ENDBRANCH  21  26
ENDBRANCH   5  20
TORSDOF 8
ENDMDL
MODEL 8
REMARK VINA RESULT:     -10.3      1.426      2.775
REMARK  Name = 11224409
REMARK  8 active torsions:
REMARK  status: ('A' for Active; 'I' for Inactive)
REMARK    1  A    between atoms: C_2  and  N_10
REMARK    2  A    between atoms: C_5  and  C_20
REMARK    3  A    between atoms: C_11  and  C_14
REMARK    4  A    between atoms: C_14  and  N_16
REMARK    5  A    between atoms: C_21  and  C_26
REMARK    6  A    between atoms: C_26  and  N_27
REMARK    7  A    between atoms: N_27  and  C_30
REMARK    8  A    between atoms: C_30  and  C_34
REMARK                            x       y       z     vdW  Elec       q    Type
REMARK                         _______ _______ _______ _____ _____    ______ ____
ROOT
ATOM      1  F   UNL     1      31.939 -12.064 -21.658  0.00  0.00    -0.204 F 
ATOM      2  C   UNL     1      33.016  -8.961 -23.213  0.00  0.00    +0.059 C 
ATOM      3  C   UNL     1      32.331  -9.853 -22.388  0.00  0.00    +0.045 C 
ATOM      4  C   UNL     1      33.977  -9.435 -24.107  0.00  0.00    +0.015 C 
ATOM      5  C   UNL     1      33.566 -11.692 -23.351  0.00  0.00    +0.028 C 
ATOM      6  C   UNL     1      32.606 -11.219 -22.458  0.00  0.00    +0.141 C 
ATOM      7  C   UNL     1      34.252 -10.801 -24.176  0.00  0.00    +0.004 C 
ENDROOT
BRANCH   2  10
ATOM      8  O   UNL     1      31.774  -5.545 -23.431  0.00  0.00    -0.434 OA
ATOM      9  O   UNL     1      30.795  -7.307 -24.471  0.00  0.00    -0.226 OA
ATOM     10  N   UNL     1      32.735  -7.567 -23.142  0.00  0.00    -0.221 N 
ATOM     11  C   UNL     1      32.771  -5.370 -22.415  0.00  0.00    +0.210 C 
ATOM     12  C   UNL     1      33.609  -6.628 -22.491  0.00  0.00    +0.147 C 
ATOM     13  C   UNL     1      31.682  -6.883 -23.745  0.00  0.00    +0.409 C 
BRANCH  11  14
ATOM     14  C   UNL     1      32.077  -5.191 -21.072  0.00  0.00    +0.135 C 
BRANCH  14  16
ATOM     15  O   UNL     1      33.350  -6.592 -18.871  0.00  0.00    -0.275 OA
ATOM     16  N   UNL     1      31.701  -6.455 -20.511  0.00  0.00    -0.301 N 
ATOM     17  C   UNL     1      32.371  -7.056 -19.451  0.00  0.00    +0.223 C 
ATOM     18  C   UNL     1      31.753  -8.367 -19.043  0.00  0.00    +0.095 C 
ATOM     19  H   UNL     1      30.926  -6.924 -20.898  0.00  0.00    +0.150 HD
ENDBRANCH  14  16
ENDBRANCH  11  14
ENDBRANCH   2  10
BRANCH   5  20
ATOM     20  C   UNL     1      33.854 -13.109 -23.427  0.00  0.00    +0.002 C 
ATOM     21  C   UNL     1      34.413 -15.838 -23.574  0.00  0.00    -0.044 C 
ATOM     22  C   UNL     1      33.551 -13.821 -24.587  0.00  0.00    -0.000 C 
ATOM     23  C   UNL     1      34.438 -13.761 -22.340  0.00  0.00    -0.000 C 
ATOM     24  C   UNL     1      33.831 -15.186 -24.660  0.00  0.00    -0.006 C 
ATOM     25  C   UNL     1      34.716 -15.125 -22.413  0.00  0.00    -0.006 C 
BRANCH  21  26
ATOM     26  C   UNL     1      34.712 -17.297 -23.653  0.00  0.00    -0.054 C 
BRANCH  26  27
ATOM     27  N   UNL     1      35.139 -17.850 -22.367  0.00  0.00    +0.390 N 
ATOM     28  H   UNL     1      34.849 -17.220 -21.618  0.00  0.00    -0.083 HD
ATOM     29  H   UNL     1      36.154 -17.947 -22.373  0.00  0.00    -0.083 HD
BRANCH  27  30
ATOM     30  C   UNL     1      34.545 -19.158 -22.147  0.00  0.00    -0.031 C 
BRANCH  30  34
ATOM     31  N   UNL     1      34.242 -20.494 -20.086  0.00  0.00    -0.170 NA
ATOM     32  N   UNL     1      35.094 -20.874 -19.121  0.00  0.00    -0.157 N 
ATOM     33  N   UNL     1      36.379 -20.497 -19.215  0.00  0.00    -0.162 NA
ATOM     34  C   UNL     1      35.058 -19.803 -20.886  0.00  0.00    +0.077 C 
ATOM     35  C   UNL     1      36.356 -19.804 -20.358  0.00  0.00    +0.133 C 
ATOM     36  H   UNL     1      34.783 -21.416 -18.360  0.00  0.00    +0.197 HD
ENDBRANCH  30  34
ENDBRANCH  27  30
ENDBRANCH  26  27
ENDBRANCH  21  26
ENDBRANCH   5  20
TORSDOF 8
ENDMDL
MODEL 9
REMARK VINA RESULT:     -10.1      7.773     13.821
REMARK  Name = 11224409
REMARK  8 active torsions:
REMARK  status: ('A' for Active; 'I' for Inactive)
REMARK    1  A    between atoms: C_2  and  N_10
REMARK    2  A    between atoms: C_5  and  C_20
REMARK    3  A    between atoms: C_11  and  C_14
REMARK    4  A    between atoms: C_14  and  N_16
REMARK    5  A    between atoms: C_21  and  C_26
REMARK    6  A    between atoms: C_26  and  N_27
REMARK    7  A    between atoms: N_27  and  C_30
REMARK    8  A    between atoms: C_30  and  C_34
REMARK                            x       y       z     vdW  Elec       q    Type
REMARK                         _______ _______ _______ _____ _____    ______ ____
ROOT
ATOM      1  F   UNL     1      33.036 -21.139 -19.661  0.00  0.00    -0.204 F 
ATOM      2  C   UNL     1      35.613 -22.177 -17.318  0.00  0.00    +0.059 C 
ATOM      3  C   UNL     1      34.370 -22.049 -17.939  0.00  0.00    +0.045 C 
ATOM      4  C   UNL     1      36.723 -21.508 -17.835  0.00  0.00    +0.015 C 
ATOM      5  C   UNL     1      35.347 -20.583 -19.592  0.00  0.00    +0.028 C 
ATOM      6  C   UNL     1      34.237 -21.251 -19.075  0.00  0.00    +0.141 C 
ATOM      7  C   UNL     1      36.590 -20.711 -18.972  0.00  0.00    +0.004 C 
ENDROOT
BRANCH   2  10
ATOM      8  O   UNL     1      36.598 -24.038 -14.348  0.00  0.00    -0.434 OA
ATOM      9  O   UNL     1      38.005 -22.691 -15.510  0.00  0.00    -0.226 OA
ATOM     10  N   UNL     1      35.749 -22.991 -16.158  0.00  0.00    -0.221 N 
ATOM     11  C   UNL     1      35.183 -24.269 -14.313  0.00  0.00    +0.210 C 
ATOM     12  C   UNL     1      34.703 -23.860 -15.689  0.00  0.00    +0.147 C 
ATOM     13  C   UNL     1      36.886 -23.166 -15.373  0.00  0.00    +0.409 C 
BRANCH  11  14
ATOM     14  C   UNL     1      34.576 -23.436 -13.193  0.00  0.00    +0.135 C 
BRANCH  14  16
ATOM     15  O   UNL     1      36.740 -22.703 -11.400  0.00  0.00    -0.275 OA
ATOM     16  N   UNL     1      34.872 -24.000 -11.909  0.00  0.00    -0.301 N 
ATOM     17  C   UNL     1      35.935 -23.586 -11.113  0.00  0.00    +0.223 C 
ATOM     18  C   UNL     1      36.002 -24.327  -9.804  0.00  0.00    +0.095 C 
ATOM     19  H   UNL     1      34.291 -24.721 -11.572  0.00  0.00    +0.150 HD
ENDBRANCH  14  16
ENDBRANCH  11  14
ENDBRANCH   2  10
BRANCH   5  20
ATOM     20  C   UNL     1      35.213 -19.754 -20.771  0.00  0.00    +0.002 C 
ATOM     21  C   UNL     1      34.955 -18.155 -23.042  0.00  0.00    -0.044 C 
ATOM     22  C   UNL     1      34.159 -19.968 -21.657  0.00  0.00    -0.000 C 
ATOM     23  C   UNL     1      36.139 -18.740 -21.019  0.00  0.00    -0.000 C 
ATOM     24  C   UNL     1      34.029 -19.168 -22.793  0.00  0.00    -0.006 C 
ATOM     25  C   UNL     1      36.010 -17.941 -22.155  0.00  0.00    -0.006 C 
BRANCH  21  26
ATOM     26  C   UNL     1      34.816 -17.300 -24.256  0.00  0.00    -0.054 C 
BRANCH  26  27
ATOM     27  N   UNL     1      35.197 -15.909 -24.005  0.00  0.00    +0.390 N 
ATOM     28  H   UNL     1      35.914 -15.632 -24.676  0.00  0.00    -0.083 HD
ATOM     29  H   UNL     1      35.555 -15.833 -23.053  0.00  0.00    -0.083 HD
BRANCH  27  30
ATOM     30  C   UNL     1      34.048 -15.028 -24.145  0.00  0.00    -0.031 C 
BRANCH  30  34
ATOM     31  N   UNL     1      32.876 -13.281 -22.842  0.00  0.00    -0.170 NA
ATOM     32  N   UNL     1      32.913 -12.943 -21.543  0.00  0.00    -0.157 N 
ATOM     33  N   UNL     1      33.719 -13.637 -20.723  0.00  0.00    -0.162 NA
ATOM     34  C   UNL     1      33.743 -14.297 -22.864  0.00  0.00    +0.077 C 
ATOM     35  C   UNL     1      34.256 -14.513 -21.577  0.00  0.00    +0.133 C 
ATOM     36  H   UNL     1      32.363 -12.202 -21.200  0.00  0.00    +0.197 HD
ENDBRANCH  30  34
ENDBRANCH  27  30
ENDBRANCH  26  27
ENDBRANCH  21  26
ENDBRANCH   5  20
TORSDOF 8
ENDMDL
