MODEL 1
REMARK VINA RESULT:     -12.7      0.000      0.000
REMARK  Name = 5291
REMARK  6 active torsions:
REMARK  status: ('A' for Active; 'I' for Inactive)
REMARK    1  A    between atoms: C_1  and  N_23
REMARK    2  A    between atoms: C_2  and  N_8
REMARK    3  A    between atoms: C_12  and  C_17
REMARK    4  A    between atoms: C_24  and  C_31
REMARK    5  A    between atoms: C_26  and  C_32
REMARK    6  A    between atoms: C_32  and  N_33
REMARK                            x       y       z     vdW  Elec       q    Type
REMARK                         _______ _______ _______ _____ _____    ______ ____
ROOT
ATOM      1  C   UNL     1      32.865 -22.696 -16.183  0.00  0.00    +0.052 C 
ATOM      2  C   UNL     1      33.019 -23.481 -13.923  0.00  0.00    +0.055 C 
ATOM      3  C   UNL     1      33.560 -22.759 -14.986  0.00  0.00    +0.030 C 
ATOM      4  C   UNL     1      31.793 -24.129 -14.071  0.00  0.00    -0.008 C 
ATOM      5  C   UNL     1      31.648 -23.333 -16.347  0.00  0.00    +0.014 C 
ATOM      6  C   UNL     1      31.108 -24.056 -15.283  0.00  0.00    -0.002 C 
ATOM      7  C   UNL     1      31.192 -24.911 -12.949  0.00  0.00    +0.032 C 
ENDROOT
BRANCH   2   8
ATOM      8  N   UNL     1      33.726 -23.546 -12.701  0.00  0.00    -0.248 N 
ATOM      9  N   UNL     1      35.484 -25.002 -13.247  0.00  0.00    -0.337 NA
ATOM     10  N   UNL     1      35.294 -24.066 -11.035  0.00  0.00    -0.170 NA
ATOM     11  C   UNL     1      34.888 -24.236 -12.309  0.00  0.00    +0.149 C 
ATOM     12  C   UNL     1      36.593 -25.651 -12.838  0.00  0.00    +0.147 C 
ATOM     13  C   UNL     1      37.109 -25.558 -11.561  0.00  0.00    +0.055 C 
ATOM     14  C   UNL     1      36.410 -24.744 -10.693  0.00  0.00    +0.114 C 
ATOM     15  H   UNL     1      33.329 -23.000 -11.985  0.00  0.00    +0.165 HD
BRANCH  12  17
ATOM     16  N   UNL     1      37.074 -27.657 -15.942  0.00  0.00    -0.242 NA
ATOM     17  C   UNL     1      37.230 -26.469 -13.842  0.00  0.00    +0.050 C 
ATOM     18  C   UNL     1      38.560 -26.858 -13.713  0.00  0.00    +0.006 C 
ATOM     19  C   UNL     1      36.538 -26.891 -14.965  0.00  0.00    +0.101 C 
ATOM     20  C   UNL     1      39.146 -27.646 -14.696  0.00  0.00    +0.021 C 
ATOM     21  C   UNL     1      38.367 -28.016 -15.781  0.00  0.00    +0.099 C 
ENDBRANCH  12  17
ENDBRANCH   2   8
BRANCH   1  23
ATOM     22  O   UNL     1      33.696 -23.601 -18.918  0.00  0.00    -0.270 OA
ATOM     23  N   UNL     1      33.413 -21.961 -17.262  0.00  0.00    -0.280 N 
ATOM     24  C   UNL     1      33.790 -22.424 -18.532  0.00  0.00    +0.249 C 
ATOM     25  H   UNL     1      33.547 -20.999 -17.101  0.00  0.00    +0.155 HD
BRANCH  24  31
ATOM     26  C   UNL     1      35.428 -19.531 -21.146  0.00  0.00    -0.043 C 
ATOM     27  C   UNL     1      34.052 -19.708 -21.100  0.00  0.00    -0.006 C 
ATOM     28  C   UNL     1      36.274 -20.288 -20.348  0.00  0.00    -0.006 C 
ATOM     29  C   UNL     1      33.513 -20.662 -20.237  0.00  0.00    +0.004 C 
ATOM     30  C   UNL     1      35.734 -21.242 -19.485  0.00  0.00    +0.004 C 
ATOM     31  C   UNL     1      34.353 -21.429 -19.429  0.00  0.00    +0.054 C 
BRANCH  26  32
ATOM     32  C   UNL     1      36.011 -18.501 -22.076  0.00  0.00    -0.050 C 
BRANCH  32  33
ATOM     33  N   UNL     1      35.058 -17.433 -22.374  0.00  0.00    +0.387 N 
ATOM     34  N   UNL     1      34.348 -14.823 -23.396  0.00  0.00    +0.383 N 
ATOM     35  C   UNL     1      35.005 -17.169 -23.817  0.00  0.00    -0.100 C 
ATOM     36  C   UNL     1      35.401 -16.209 -21.641  0.00  0.00    -0.100 C 
ATOM     37  C   UNL     1      34.006 -16.049 -24.129  0.00  0.00    -0.101 C 
ATOM     38  C   UNL     1      34.404 -15.088 -21.953  0.00  0.00    -0.101 C 
ATOM     39  C   UNL     1      33.394 -13.758 -23.693  0.00  0.00    -0.101 C 
ATOM     40  H   UNL     1      34.135 -17.743 -22.069  0.00  0.00    -0.079 HD
ATOM     41  H   UNL     1      35.270 -14.514 -23.701  0.00  0.00    -0.080 HD
ENDBRANCH  32  33
ENDBRANCH  26  32
ENDBRANCH  24  31
ENDBRANCH   1  23
TORSDOF 6
ENDMDL
MODEL 2
REMARK VINA RESULT:     -11.6      1.654      2.150
REMARK  Name = 5291
REMARK  6 active torsions:
REMARK  status: ('A' for Active; 'I' for Inactive)
REMARK    1  A    between atoms: C_1  and  N_23
REMARK    2  A    between atoms: C_2  and  N_8
REMARK    3  A    between atoms: C_12  and  C_17
REMARK    4  A    between atoms: C_24  and  C_31
REMARK    5  A    between atoms: C_26  and  C_32
REMARK    6  A    between atoms: C_32  and  N_33
REMARK                            x       y       z     vdW  Elec       q    Type
REMARK                         _______ _______ _______ _____ _____    ______ ____
ROOT
ATOM      1  C   UNL     1      34.274 -22.245 -17.271  0.00  0.00    +0.052 C 
ATOM      2  C   UNL     1      35.022 -23.021 -15.130  0.00  0.00    +0.055 C 
ATOM      3  C   UNL     1      35.223 -22.233 -16.262  0.00  0.00    +0.030 C 
ATOM      4  C   UNL     1      33.876 -23.810 -15.023  0.00  0.00    -0.008 C 
ATOM      5  C   UNL     1      33.133 -23.021 -17.181  0.00  0.00    +0.014 C 
ATOM      6  C   UNL     1      32.932 -23.811 -16.049  0.00  0.00    -0.002 C 
ATOM      7  C   UNL     1      33.636 -24.665 -13.821  0.00  0.00    +0.032 C 
ENDROOT
BRANCH   2   8
ATOM      8  N   UNL     1      35.988 -23.009 -14.099  0.00  0.00    -0.248 N 
ATOM      9  N   UNL     1      37.152 -25.003 -14.517  0.00  0.00    -0.337 NA
ATOM     10  N   UNL     1      37.770 -23.572 -12.680  0.00  0.00    -0.170 NA
ATOM     11  C   UNL     1      37.018 -23.902 -13.749  0.00  0.00    +0.149 C 
ATOM     12  C   UNL     1      38.148 -25.838 -14.154  0.00  0.00    +0.147 C 
ATOM     13  C   UNL     1      38.985 -25.611 -13.081  0.00  0.00    +0.055 C 
ATOM     14  C   UNL     1      38.748 -24.451 -12.373  0.00  0.00    +0.114 C 
ATOM     15  H   UNL     1      35.930 -22.222 -13.511  0.00  0.00    +0.165 HD
BRANCH  12  17
ATOM     16  N   UNL     1      37.248 -28.769 -16.274  0.00  0.00    -0.242 NA
ATOM     17  C   UNL     1      38.292 -27.015 -14.977  0.00  0.00    +0.050 C 
ATOM     18  C   UNL     1      39.548 -27.534 -15.274  0.00  0.00    +0.006 C 
ATOM     19  C   UNL     1      37.183 -27.664 -15.498  0.00  0.00    +0.101 C 
ATOM     20  C   UNL     1      39.654 -28.669 -16.069  0.00  0.00    +0.021 C 
ATOM     21  C   UNL     1      38.485 -29.243 -16.541  0.00  0.00    +0.099 C 
ENDBRANCH  12  17
ENDBRANCH   2   8
BRANCH   1  23
ATOM     22  O   UNL     1      36.801 -21.557 -18.732  0.00  0.00    -0.270 OA
ATOM     23  N   UNL     1      34.478 -21.443 -18.420  0.00  0.00    -0.280 N 
ATOM     24  C   UNL     1      35.681 -21.145 -19.076  0.00  0.00    +0.249 C 
ATOM     25  H   UNL     1      33.668 -21.042 -18.811  0.00  0.00    +0.155 HD
BRANCH  24  31
ATOM     26  C   UNL     1      35.375 -18.575 -22.421  0.00  0.00    -0.043 C 
ATOM     27  C   UNL     1      36.563 -18.625 -21.705  0.00  0.00    -0.006 C 
ATOM     28  C   UNL     1      34.287 -19.355 -22.057  0.00  0.00    -0.006 C 
ATOM     29  C   UNL     1      36.663 -19.473 -20.602  0.00  0.00    +0.004 C 
ATOM     30  C   UNL     1      34.388 -20.203 -20.954  0.00  0.00    +0.004 C 
ATOM     31  C   UNL     1      35.576 -20.263 -20.227  0.00  0.00    +0.054 C 
BRANCH  26  32
ATOM     32  C   UNL     1      35.265 -17.660 -23.612  0.00  0.00    -0.050 C 
BRANCH  32  33
ATOM     33  N   UNL     1      34.479 -16.465 -23.311  0.00  0.00    +0.387 N 
ATOM     34  N   UNL     1      34.111 -13.604 -23.119  0.00  0.00    +0.383 N 
ATOM     35  C   UNL     1      34.309 -15.637 -24.511  0.00  0.00    -0.100 C 
ATOM     36  C   UNL     1      35.106 -15.687 -22.235  0.00  0.00    -0.100 C 
ATOM     37  C   UNL     1      33.485 -14.383 -24.194  0.00  0.00    -0.101 C 
ATOM     38  C   UNL     1      34.284 -14.432 -21.919  0.00  0.00    -0.101 C 
ATOM     39  C   UNL     1      33.324 -12.411 -22.817  0.00  0.00    -0.101 C 
ATOM     40  H   UNL     1      33.558 -16.767 -22.995  0.00  0.00    -0.079 HD
ATOM     41  H   UNL     1      35.032 -13.301 -23.435  0.00  0.00    -0.080 HD
ENDBRANCH  32  33
ENDBRANCH  26  32
ENDBRANCH  24  31
ENDBRANCH   1  23
TORSDOF 6
ENDMDL
MODEL 3
REMARK VINA RESULT:     -11.5      1.726      2.168
REMARK  Name = 5291
REMARK  6 active torsions:
REMARK  status: ('A' for Active; 'I' for Inactive)
REMARK    1  A    between atoms: C_1  and  N_23
REMARK    2  A    between atoms: C_2  and  N_8
REMARK    3  A    between atoms: C_12  and  C_17
REMARK    4  A    between atoms: C_24  and  C_31
REMARK    5  A    between atoms: C_26  and  C_32
REMARK    6  A    between atoms: C_32  and  N_33
REMARK                            x       y       z     vdW  Elec       q    Type
REMARK                         _______ _______ _______ _____ _____    ______ ____
ROOT
ATOM      1  C   UNL     1      31.814 -22.621 -16.477  0.00  0.00    +0.052 C 
ATOM      2  C   UNL     1      31.758 -23.722 -14.348  0.00  0.00    +0.055 C 
ATOM      3  C   UNL     1      32.473 -23.046 -15.336  0.00  0.00    +0.030 C 
ATOM      4  C   UNL     1      30.394 -23.964 -14.516  0.00  0.00    -0.008 C 
ATOM      5  C   UNL     1      30.462 -22.854 -16.660  0.00  0.00    +0.014 C 
ATOM      6  C   UNL     1      29.747 -23.531 -15.672  0.00  0.00    -0.002 C 
ATOM      7  C   UNL     1      29.604 -24.688 -13.475  0.00  0.00    +0.032 C 
ENDROOT
BRANCH   2   8
ATOM      8  N   UNL     1      32.429 -24.154 -13.182  0.00  0.00    -0.248 N 
ATOM      9  N   UNL     1      34.670 -23.736 -13.743  0.00  0.00    -0.337 NA
ATOM     10  N   UNL     1      34.084 -24.679 -11.604  0.00  0.00    -0.170 NA
ATOM     11  C   UNL     1      33.790 -24.191 -12.826  0.00  0.00    +0.149 C 
ATOM     12  C   UNL     1      35.965 -23.786 -13.369  0.00  0.00    +0.147 C 
ATOM     13  C   UNL     1      36.392 -24.262 -12.146  0.00  0.00    +0.055 C 
ATOM     14  C   UNL     1      35.398 -24.700 -11.296  0.00  0.00    +0.114 C 
ATOM     15  H   UNL     1      31.827 -24.495 -12.482  0.00  0.00    +0.165 HD
BRANCH  12  17
ATOM     16  N   UNL     1      39.074 -23.483 -15.402  0.00  0.00    -0.242 NA
ATOM     17  C   UNL     1      36.904 -23.298 -14.350  0.00  0.00    +0.050 C 
ATOM     18  C   UNL     1      36.591 -22.220 -15.171  0.00  0.00    +0.006 C 
ATOM     19  C   UNL     1      38.149 -23.889 -14.504  0.00  0.00    +0.101 C 
ATOM     20  C   UNL     1      37.517 -21.773 -16.106  0.00  0.00    +0.021 C 
ATOM     21  C   UNL     1      38.733 -22.432 -16.181  0.00  0.00    +0.099 C 
ENDBRANCH  12  17
ENDBRANCH   2   8
BRANCH   1  23
ATOM     22  O   UNL     1      33.655 -23.669 -18.600  0.00  0.00    -0.270 OA
ATOM     23  N   UNL     1      32.539 -21.934 -17.480  0.00  0.00    -0.280 N 
ATOM     24  C   UNL     1      33.394 -22.463 -18.458  0.00  0.00    +0.249 C 
ATOM     25  H   UNL     1      32.430 -20.955 -17.492  0.00  0.00    +0.155 HD
BRANCH  24  31
ATOM     26  C   UNL     1      35.228 -19.650 -21.030  0.00  0.00    -0.043 C 
ATOM     27  C   UNL     1      33.844 -19.745 -20.998  0.00  0.00    -0.006 C 
ATOM     28  C   UNL     1      36.019 -20.463 -20.230  0.00  0.00    -0.006 C 
ATOM     29  C   UNL     1      33.240 -20.673 -20.150  0.00  0.00    +0.004 C 
ATOM     30  C   UNL     1      35.415 -21.390 -19.382  0.00  0.00    +0.004 C 
ATOM     31  C   UNL     1      34.025 -21.495 -19.341  0.00  0.00    +0.054 C 
BRANCH  26  32
ATOM     32  C   UNL     1      35.882 -18.649 -21.945  0.00  0.00    -0.050 C 
BRANCH  32  33
ATOM     33  N   UNL     1      34.978 -17.550 -22.285  0.00  0.00    +0.387 N 
ATOM     34  N   UNL     1      34.389 -14.951 -23.406  0.00  0.00    +0.383 N 
ATOM     35  C   UNL     1      34.940 -17.338 -23.737  0.00  0.00    -0.100 C 
ATOM     36  C   UNL     1      35.375 -16.317 -21.596  0.00  0.00    -0.100 C 
ATOM     37  C   UNL     1      33.993 -16.186 -24.094  0.00  0.00    -0.101 C 
ATOM     38  C   UNL     1      34.430 -15.164 -21.953  0.00  0.00    -0.101 C 
ATOM     39  C   UNL     1      33.484 -13.856 -23.745  0.00  0.00    -0.101 C 
ATOM     40  H   UNL     1      34.042 -17.806 -21.972  0.00  0.00    -0.079 HD
ATOM     41  H   UNL     1      35.325 -14.695 -23.719  0.00  0.00    -0.080 HD
ENDBRANCH  32  33
ENDBRANCH  26  32
ENDBRANCH  24  31
ENDBRANCH   1  23
TORSDOF 6
ENDMDL
MODEL 4
REMARK VINA RESULT:     -10.0      2.565      5.722
REMARK  Name = 5291
REMARK  6 active torsions:
REMARK  status: ('A' for Active; 'I' for Inactive)
REMARK    1  A    between atoms: C_1  and  N_23
REMARK    2  A    between atoms: C_2  and  N_8
REMARK    3  A    between atoms: C_12  and  C_17
REMARK    4  A    between atoms: C_24  and  C_31
REMARK    5  A    between atoms: C_26  and  C_32
REMARK    6  A    between atoms: C_32  and  N_33
REMARK                            x       y       z     vdW  Elec       q    Type
REMARK                         _______ _______ _______ _____ _____    ______ ____
ROOT
ATOM      1  C   UNL     1      34.233 -20.098 -20.158  0.00  0.00    +0.052 C 
ATOM      2  C   UNL     1      33.071 -21.689 -18.793  0.00  0.00    +0.055 C 
ATOM      3  C   UNL     1      33.081 -20.483 -19.492  0.00  0.00    +0.030 C 
ATOM      4  C   UNL     1      34.212 -22.492 -18.769  0.00  0.00    -0.008 C 
ATOM      5  C   UNL     1      35.373 -20.882 -20.145  0.00  0.00    +0.014 C 
ATOM      6  C   UNL     1      35.363 -22.088 -19.444  0.00  0.00    -0.002 C 
ATOM      7  C   UNL     1      34.229 -23.788 -18.026  0.00  0.00    +0.032 C 
ENDROOT
BRANCH   2   8
ATOM      8  N   UNL     1      31.897 -22.085 -18.114  0.00  0.00    -0.248 N 
ATOM      9  N   UNL     1      32.757 -22.769 -16.040  0.00  0.00    -0.337 NA
ATOM     10  N   UNL     1      30.393 -22.875 -16.496  0.00  0.00    -0.170 NA
ATOM     11  C   UNL     1      31.671 -22.600 -16.824  0.00  0.00    +0.149 C 
ATOM     12  C   UNL     1      32.505 -23.265 -14.811  0.00  0.00    +0.147 C 
ATOM     13  C   UNL     1      31.241 -23.585 -14.358  0.00  0.00    +0.055 C 
ATOM     14  C   UNL     1      30.213 -23.368 -15.252  0.00  0.00    +0.114 C 
ATOM     15  H   UNL     1      31.076 -21.978 -18.647  0.00  0.00    +0.165 HD
BRANCH  12  17
ATOM     16  N   UNL     1      34.602 -24.199 -11.874  0.00  0.00    -0.242 NA
ATOM     17  C   UNL     1      33.666 -23.444 -13.973  0.00  0.00    +0.050 C 
ATOM     18  C   UNL     1      34.932 -23.064 -14.408  0.00  0.00    +0.006 C 
ATOM     19  C   UNL     1      33.557 -24.002 -12.709  0.00  0.00    +0.101 C 
ATOM     20  C   UNL     1      36.031 -23.250 -13.578  0.00  0.00    +0.021 C 
ATOM     21  C   UNL     1      35.815 -23.816 -12.332  0.00  0.00    +0.099 C 
ENDBRANCH  12  17
ENDBRANCH   2   8
BRANCH   1  23
ATOM     22  O   UNL     1      36.372 -18.009 -20.389  0.00  0.00    -0.270 OA
ATOM     23  N   UNL     1      34.243 -18.873 -20.870  0.00  0.00    -0.280 N 
ATOM     24  C   UNL     1      35.269 -17.920 -20.952  0.00  0.00    +0.249 C 
ATOM     25  H   UNL     1      33.423 -18.664 -21.372  0.00  0.00    +0.155 HD
BRANCH  24  31
ATOM     26  C   UNL     1      34.406 -14.481 -23.259  0.00  0.00    -0.043 C 
ATOM     27  C   UNL     1      34.460 -14.380 -21.876  0.00  0.00    -0.006 C 
ATOM     28  C   UNL     1      34.632 -15.693 -23.897  0.00  0.00    -0.006 C 
ATOM     29  C   UNL     1      34.744 -15.514 -21.116  0.00  0.00    +0.004 C 
ATOM     30  C   UNL     1      34.917 -16.827 -23.136  0.00  0.00    +0.004 C 
ATOM     31  C   UNL     1      34.974 -16.737 -21.746  0.00  0.00    +0.054 C 
BRANCH  26  32
ATOM     32  C   UNL     1      34.100 -13.257 -24.080  0.00  0.00    -0.050 C 
BRANCH  32  33
ATOM     33  N   UNL     1      33.800 -12.098 -23.241  0.00  0.00    +0.387 N 
ATOM     34  N   UNL     1      32.282  -9.735 -22.556  0.00  0.00    +0.383 N 
ATOM     35  C   UNL     1      32.449 -12.198 -22.677  0.00  0.00    -0.100 C 
ATOM     36  C   UNL     1      33.948 -10.851 -24.001  0.00  0.00    -0.100 C 
ATOM     37  C   UNL     1      32.135 -10.982 -21.797  0.00  0.00    -0.101 C 
ATOM     38  C   UNL     1      33.633  -9.635 -23.124  0.00  0.00    -0.101 C 
ATOM     39  C   UNL     1      31.985  -8.578 -21.716  0.00  0.00    -0.101 C 
ATOM     40  H   UNL     1      34.470 -12.086 -22.472  0.00  0.00    -0.079 HD
ATOM     41  H   UNL     1      31.612  -9.746 -23.325  0.00  0.00    -0.080 HD
ENDBRANCH  32  33
ENDBRANCH  26  32
ENDBRANCH  24  31
ENDBRANCH   1  23
TORSDOF 6
ENDMDL
