MODEL 1
REMARK VINA RESULT:     -11.8      0.000      0.000
REMARK  Name = 24743471
REMARK  3 active torsions:
REMARK  status: ('A' for Active; 'I' for Inactive)
REMARK    1  A    between atoms: C_1  and  N_7
REMARK    2  A    between atoms: C_6  and  C_17
REMARK    3  A    between atoms: C_22  and  N_24
REMARK                            x       y       z     vdW  Elec       q    Type
REMARK                         _______ _______ _______ _____ _____    ______ ____
ROOT
ATOM      1  C   UNL     1      33.415  -8.383 -23.611  0.00  0.00    +0.048 C 
ATOM      2  C   UNL     1      32.510  -9.172 -22.902  0.00  0.00    +0.015 C 
ATOM      3  C   UNL     1      34.508  -8.974 -24.246  0.00  0.00    +0.015 C 
ATOM      4  C   UNL     1      32.696 -10.552 -22.828  0.00  0.00    +0.001 C 
ATOM      5  C   UNL     1      34.694 -10.355 -24.172  0.00  0.00    +0.001 C 
ATOM      6  C   UNL     1      33.787 -11.143 -23.463  0.00  0.00    +0.000 C 
ENDROOT
BRANCH   1   7
ATOM      7  N   UNL     1      33.232  -7.016 -23.687  0.00  0.00    -0.311 N 
ATOM      8  N   UNL     1      30.816  -5.117 -22.028  0.00  0.00    +0.387 N 
ATOM      9  C   UNL     1      32.253  -4.852 -23.809  0.00  0.00    -0.003 C 
ATOM     10  C   UNL     1      31.925  -6.352 -23.721  0.00  0.00    +0.050 C 
ATOM     11  C   UNL     1      33.703  -4.782 -24.254  0.00  0.00    +0.021 C 
ATOM     12  C   UNL     1      31.979  -4.317 -22.410  0.00  0.00    -0.076 C 
ATOM     13  C   UNL     1      31.157  -6.494 -22.401  0.00  0.00    -0.057 C 
ATOM     14  C   UNL     1      34.332  -6.054 -23.694  0.00  0.00    +0.091 C 
ATOM     15  C   UNL     1      30.491  -4.988 -20.616  0.00  0.00    -0.101 C 
ATOM     16  H   UNL     1      29.971  -4.800 -22.506  0.00  0.00    -0.080 HD
ENDBRANCH   1   7
BRANCH   6  17
ATOM     17  C   UNL     1      33.981 -12.575 -23.386  0.00  0.00    +0.000 C 
ATOM     18  C   UNL     1      34.372 -13.162 -22.182  0.00  0.00    +0.001 C 
ATOM     19  C   UNL     1      33.779 -13.368 -24.515  0.00  0.00    +0.001 C 
ATOM     20  C   UNL     1      34.559 -14.542 -22.107  0.00  0.00    +0.017 C 
ATOM     21  C   UNL     1      33.966 -14.749 -24.440  0.00  0.00    +0.017 C 
ATOM     22  C   UNL     1      34.357 -15.335 -23.236  0.00  0.00    +0.077 C 
BRANCH  22  24
ATOM     23  O   UNL     1      33.343 -17.456 -25.060  0.00  0.00    -0.268 OA
ATOM     24  N   UNL     1      34.550 -16.764 -23.159  0.00  0.00    -0.155 N 
ATOM     25  N   UNL     1      35.346 -17.149 -22.105  0.00  0.00    -0.170 NA
ATOM     26  C   UNL     1      34.010 -17.695 -24.053  0.00  0.00    +0.272 C 
ATOM     27  C   UNL     1      34.283 -19.127 -23.771  0.00  0.00    +0.062 C 
ATOM     28  C   UNL     1      35.563 -18.407 -21.928  0.00  0.00    +0.118 C 
ATOM     29  C   UNL     1      35.038 -19.496 -22.743  0.00  0.00    +0.027 C 
ENDBRANCH  22  24
ENDBRANCH   6  17
TORSDOF 3
ENDMDL
MODEL 2
REMARK VINA RESULT:     -11.8      0.923      2.184
REMARK  Name = 24743471
REMARK  3 active torsions:
REMARK  status: ('A' for Active; 'I' for Inactive)
REMARK    1  A    between atoms: C_1  and  N_7
REMARK    2  A    between atoms: C_6  and  C_17
REMARK    3  A    between atoms: C_22  and  N_24
REMARK                            x       y       z     vdW  Elec       q    Type
REMARK                         _______ _______ _______ _____ _____    ______ ____
ROOT
ATOM      1  C   UNL     1      32.766  -8.726 -22.863  0.00  0.00    +0.048 C 
ATOM      2  C   UNL     1      33.821  -9.166 -23.662  0.00  0.00    +0.015 C 
ATOM      3  C   UNL     1      32.018  -9.645 -22.126  0.00  0.00    +0.015 C 
ATOM      4  C   UNL     1      34.129 -10.526 -23.725  0.00  0.00    +0.001 C 
ATOM      5  C   UNL     1      32.327 -11.005 -22.189  0.00  0.00    +0.001 C 
ATOM      6  C   UNL     1      33.382 -11.444 -22.989  0.00  0.00    +0.000 C 
ENDROOT
BRANCH   1   7
ATOM      7  N   UNL     1      32.461  -7.381 -22.798  0.00  0.00    -0.311 N 
ATOM      8  N   UNL     1      34.112  -4.763 -24.416  0.00  0.00    +0.387 N 
ATOM      9  C   UNL     1      32.623  -5.011 -22.675  0.00  0.00    -0.003 C 
ATOM     10  C   UNL     1      33.454  -6.304 -22.738  0.00  0.00    +0.050 C 
ATOM     11  C   UNL     1      31.227  -5.449 -22.269  0.00  0.00    +0.021 C 
ATOM     12  C   UNL     1      32.734  -4.417 -24.073  0.00  0.00    -0.076 C 
ATOM     13  C   UNL     1      34.261  -6.172 -24.035  0.00  0.00    -0.057 C 
ATOM     14  C   UNL     1      31.096  -6.861 -22.831  0.00  0.00    +0.091 C 
ATOM     15  C   UNL     1      34.412  -4.532 -25.820  0.00  0.00    -0.101 C 
ATOM     16  H   UNL     1      34.780  -4.171 -23.920  0.00  0.00    -0.080 HD
ENDBRANCH   1   7
BRANCH   6  17
ATOM     17  C   UNL     1      33.700 -12.854 -23.054  0.00  0.00    +0.000 C 
ATOM     18  C   UNL     1      34.257 -13.494 -21.946  0.00  0.00    +0.001 C 
ATOM     19  C   UNL     1      33.452 -13.572 -24.223  0.00  0.00    +0.001 C 
ATOM     20  C   UNL     1      34.564 -14.853 -22.008  0.00  0.00    +0.017 C 
ATOM     21  C   UNL     1      33.759 -14.932 -24.285  0.00  0.00    +0.017 C 
ATOM     22  C   UNL     1      34.316 -15.572 -23.177  0.00  0.00    +0.077 C 
BRANCH  22  24
ATOM     23  O   UNL     1      33.253 -17.642 -25.031  0.00  0.00    -0.268 OA
ATOM     24  N   UNL     1      34.634 -16.979 -23.241  0.00  0.00    -0.155 N 
ATOM     25  N   UNL     1      35.588 -17.363 -22.328  0.00  0.00    -0.170 NA
ATOM     26  C   UNL     1      34.061 -17.889 -24.137  0.00  0.00    +0.272 C 
ATOM     27  C   UNL     1      34.484 -19.307 -24.009  0.00  0.00    +0.062 C 
ATOM     28  C   UNL     1      35.927 -18.605 -22.282  0.00  0.00    +0.118 C 
ATOM     29  C   UNL     1      35.393 -19.677 -23.113  0.00  0.00    +0.027 C 
ENDBRANCH  22  24
ENDBRANCH   6  17
TORSDOF 3
ENDMDL
MODEL 3
REMARK VINA RESULT:     -11.7      7.868     15.282
REMARK  Name = 24743471
REMARK  3 active torsions:
REMARK  status: ('A' for Active; 'I' for Inactive)
REMARK    1  A    between atoms: C_1  and  N_7
REMARK    2  A    between atoms: C_6  and  C_17
REMARK    3  A    between atoms: C_22  and  N_24
REMARK                            x       y       z     vdW  Elec       q    Type
REMARK                         _______ _______ _______ _____ _____    ______ ____
ROOT
ATOM      1  C   UNL     1      36.439 -23.264 -15.239  0.00  0.00    +0.048 C 
ATOM      2  C   UNL     1      35.163 -23.281 -15.801  0.00  0.00    +0.015 C 
ATOM      3  C   UNL     1      37.452 -22.510 -15.832  0.00  0.00    +0.015 C 
ATOM      4  C   UNL     1      34.899 -22.543 -16.955  0.00  0.00    +0.001 C 
ATOM      5  C   UNL     1      37.188 -21.772 -16.986  0.00  0.00    +0.001 C 
ATOM      6  C   UNL     1      35.911 -21.789 -17.547  0.00  0.00    +0.000 C 
ENDROOT
BRANCH   1   7
ATOM      7  N   UNL     1      36.702 -23.993 -14.096  0.00  0.00    -0.311 N 
ATOM      8  N   UNL     1      36.952 -27.465 -13.819  0.00  0.00    +0.387 N 
ATOM      9  C   UNL     1      36.681 -25.666 -12.405  0.00  0.00    -0.003 C 
ATOM     10  C   UNL     1      36.062 -25.268 -13.756  0.00  0.00    +0.050 C 
ATOM     11  C   UNL     1      37.303 -24.394 -11.857  0.00  0.00    +0.021 C 
ATOM     12  C   UNL     1      37.668 -26.774 -12.748  0.00  0.00    -0.076 C 
ATOM     13  C   UNL     1      36.467 -26.403 -14.706  0.00  0.00    -0.057 C 
ATOM     14  C   UNL     1      37.695 -23.599 -13.099  0.00  0.00    +0.091 C 
ATOM     15  C   UNL     1      37.788 -28.432 -14.514  0.00  0.00    -0.101 C 
ATOM     16  H   UNL     1      36.181 -28.025 -13.452  0.00  0.00    -0.080 HD
ENDBRANCH   1   7
BRANCH   6  17
ATOM     17  C   UNL     1      35.637 -21.023 -18.744  0.00  0.00    +0.000 C 
ATOM     18  C   UNL     1      36.681 -20.388 -19.418  0.00  0.00    +0.001 C 
ATOM     19  C   UNL     1      34.332 -20.921 -19.224  0.00  0.00    +0.001 C 
ATOM     20  C   UNL     1      36.418 -19.649 -20.572  0.00  0.00    +0.017 C 
ATOM     21  C   UNL     1      34.069 -20.183 -20.378  0.00  0.00    +0.017 C 
ATOM     22  C   UNL     1      35.113 -19.547 -21.052  0.00  0.00    +0.077 C 
BRANCH  22  24
ATOM     23  O   UNL     1      35.586 -16.655 -21.564  0.00  0.00    -0.268 OA
ATOM     24  N   UNL     1      34.841 -18.783 -22.247  0.00  0.00    -0.155 N 
ATOM     25  N   UNL     1      34.328 -19.542 -23.272  0.00  0.00    -0.170 NA
ATOM     26  C   UNL     1      35.074 -17.410 -22.390  0.00  0.00    +0.272 C 
ATOM     27  C   UNL     1      34.678 -16.798 -23.683  0.00  0.00    +0.062 C 
ATOM     28  C   UNL     1      34.025 -18.953 -24.378  0.00  0.00    +0.118 C 
ATOM     29  C   UNL     1      34.166 -17.531 -24.665  0.00  0.00    +0.027 C 
ENDBRANCH  22  24
ENDBRANCH   6  17
TORSDOF 3
ENDMDL
MODEL 4
REMARK VINA RESULT:     -11.7      0.942      1.553
REMARK  Name = 24743471
REMARK  3 active torsions:
REMARK  status: ('A' for Active; 'I' for Inactive)
REMARK    1  A    between atoms: C_1  and  N_7
REMARK    2  A    between atoms: C_6  and  C_17
REMARK    3  A    between atoms: C_22  and  N_24
REMARK                            x       y       z     vdW  Elec       q    Type
REMARK                         _______ _______ _______ _____ _____    ______ ____
ROOT
ATOM      1  C   UNL     1      33.429  -8.421 -23.643  0.00  0.00    +0.048 C 
ATOM      2  C   UNL     1      34.460  -9.021 -24.364  0.00  0.00    +0.015 C 
ATOM      3  C   UNL     1      32.553  -9.207 -22.893  0.00  0.00    +0.015 C 
ATOM      4  C   UNL     1      34.617 -10.407 -24.336  0.00  0.00    +0.001 C 
ATOM      5  C   UNL     1      32.711 -10.593 -22.864  0.00  0.00    +0.001 C 
ATOM      6  C   UNL     1      33.743 -11.192 -23.586  0.00  0.00    +0.000 C 
ENDROOT
BRANCH   1   7
ATOM      7  N   UNL     1      33.273  -7.049 -23.670  0.00  0.00    -0.311 N 
ATOM      8  N   UNL     1      30.842  -5.169 -22.012  0.00  0.00    +0.387 N 
ATOM      9  C   UNL     1      32.339  -4.863 -23.736  0.00  0.00    -0.003 C 
ATOM     10  C   UNL     1      31.980  -6.359 -23.718  0.00  0.00    +0.050 C 
ATOM     11  C   UNL     1      33.803  -4.804 -24.133  0.00  0.00    +0.021 C 
ATOM     12  C   UNL     1      32.031  -4.378 -22.326  0.00  0.00    -0.076 C 
ATOM     13  C   UNL     1      31.168  -6.537 -22.429  0.00  0.00    -0.057 C 
ATOM     14  C   UNL     1      34.390  -6.109 -23.606  0.00  0.00    +0.091 C 
ATOM     15  C   UNL     1      30.475  -5.089 -20.606  0.00  0.00    -0.101 C 
ATOM     16  H   UNL     1      30.019  -4.817 -22.502  0.00  0.00    -0.080 HD
ENDBRANCH   1   7
BRANCH   6  17
ATOM     17  C   UNL     1      33.905 -12.630 -23.556  0.00  0.00    +0.000 C 
ATOM     18  C   UNL     1      34.306 -13.261 -22.378  0.00  0.00    +0.001 C 
ATOM     19  C   UNL     1      33.661 -13.384 -24.703  0.00  0.00    +0.001 C 
ATOM     20  C   UNL     1      34.462 -14.647 -22.348  0.00  0.00    +0.017 C 
ATOM     21  C   UNL     1      33.818 -14.770 -24.674  0.00  0.00    +0.017 C 
ATOM     22  C   UNL     1      34.219 -15.401 -23.496  0.00  0.00    +0.077 C 
BRANCH  22  24
ATOM     23  O   UNL     1      35.716 -17.067 -21.538  0.00  0.00    -0.268 OA
ATOM     24  N   UNL     1      34.381 -16.836 -23.465  0.00  0.00    -0.155 N 
ATOM     25  N   UNL     1      33.705 -17.481 -24.474  0.00  0.00    -0.170 NA
ATOM     26  C   UNL     1      35.130 -17.536 -22.513  0.00  0.00    +0.272 C 
ATOM     27  C   UNL     1      35.216 -19.009 -22.684  0.00  0.00    +0.062 C 
ATOM     28  C   UNL     1      33.803 -18.763 -24.555  0.00  0.00    +0.118 C 
ATOM     29  C   UNL     1      34.577 -19.627 -23.671  0.00  0.00    +0.027 C 
ENDBRANCH  22  24
ENDBRANCH   6  17
TORSDOF 3
ENDMDL
MODEL 5
REMARK VINA RESULT:     -10.6      1.974      3.296
REMARK  Name = 24743471
REMARK  3 active torsions:
REMARK  status: ('A' for Active; 'I' for Inactive)
REMARK    1  A    between atoms: C_1  and  N_7
REMARK    2  A    between atoms: C_6  and  C_17
REMARK    3  A    between atoms: C_22  and  N_24
REMARK                            x       y       z     vdW  Elec       q    Type
REMARK                         _______ _______ _______ _____ _____    ______ ____
ROOT
ATOM      1  C   UNL     1      32.329  -5.880 -23.109  0.00  0.00    +0.048 C 
ATOM      2  C   UNL     1      31.303  -6.825 -23.100  0.00  0.00    +0.015 C 
ATOM      3  C   UNL     1      33.660  -6.296 -23.163  0.00  0.00    +0.015 C 
ATOM      4  C   UNL     1      31.608  -8.186 -23.144  0.00  0.00    +0.001 C 
ATOM      5  C   UNL     1      33.964  -7.657 -23.208  0.00  0.00    +0.001 C 
ATOM      6  C   UNL     1      32.937  -8.601 -23.198  0.00  0.00    +0.000 C 
ENDROOT
BRANCH   1   7
ATOM      7  N   UNL     1      32.029  -4.533 -23.067  0.00  0.00    -0.311 N 
ATOM      8  N   UNL     1      31.954  -2.302 -25.752  0.00  0.00    +0.387 N 
ATOM      9  C   UNL     1      32.027  -2.186 -23.452  0.00  0.00    -0.003 C 
ATOM     10  C   UNL     1      32.713  -3.502 -23.854  0.00  0.00    +0.050 C 
ATOM     11  C   UNL     1      31.298  -2.491 -22.155  0.00  0.00    +0.021 C 
ATOM     12  C   UNL     1      31.128  -1.847 -24.635  0.00  0.00    -0.076 C 
ATOM     13  C   UNL     1      32.438  -3.629 -25.357  0.00  0.00    -0.057 C 
ATOM     14  C   UNL     1      30.950  -3.972 -22.257  0.00  0.00    +0.091 C 
ATOM     15  C   UNL     1      31.222  -2.329 -27.010  0.00  0.00    -0.101 C 
ATOM     16  H   UNL     1      32.727  -1.660 -25.930  0.00  0.00    -0.080 HD
ENDBRANCH   1   7
BRANCH   6  17
ATOM     17  C   UNL     1      33.254 -10.012 -23.244  0.00  0.00    +0.000 C 
ATOM     18  C   UNL     1      32.737 -10.874 -22.275  0.00  0.00    +0.001 C 
ATOM     19  C   UNL     1      34.075 -10.511 -24.254  0.00  0.00    +0.001 C 
ATOM     20  C   UNL     1      33.042 -12.234 -22.319  0.00  0.00    +0.017 C 
ATOM     21  C   UNL     1      34.380 -11.872 -24.298  0.00  0.00    +0.017 C 
ATOM     22  C   UNL     1      33.863 -12.733 -23.329  0.00  0.00    +0.077 C 
BRANCH  22  24
ATOM     23  O   UNL     1      33.678 -14.613 -25.628  0.00  0.00    -0.268 OA
ATOM     24  N   UNL     1      34.179 -14.142 -23.375  0.00  0.00    -0.155 N 
ATOM     25  N   UNL     1      34.660 -14.629 -22.182  0.00  0.00    -0.170 NA
ATOM     26  C   UNL     1      34.035 -14.958 -24.502  0.00  0.00    +0.272 C 
ATOM     27  C   UNL     1      34.365 -16.396 -24.330  0.00  0.00    +0.062 C 
ATOM     28  C   UNL     1      34.949 -15.883 -22.105  0.00  0.00    +0.118 C 
ATOM     29  C   UNL     1      34.813 -16.867 -23.172  0.00  0.00    +0.027 C 
ENDBRANCH  22  24
ENDBRANCH   6  17
TORSDOF 3
ENDMDL
MODEL 6
REMARK VINA RESULT:     -10.5      2.490     10.403
REMARK  Name = 24743471
REMARK  3 active torsions:
REMARK  status: ('A' for Active; 'I' for Inactive)
REMARK    1  A    between atoms: C_1  and  N_7
REMARK    2  A    between atoms: C_6  and  C_17
REMARK    3  A    between atoms: C_22  and  N_24
REMARK                            x       y       z     vdW  Elec       q    Type
REMARK                         _______ _______ _______ _____ _____    ______ ____
ROOT
ATOM      1  C   UNL     1      34.271 -15.691 -23.355  0.00  0.00    +0.048 C 
ATOM      2  C   UNL     1      34.550 -15.038 -22.155  0.00  0.00    +0.015 C 
ATOM      3  C   UNL     1      33.690 -14.990 -24.412  0.00  0.00    +0.015 C 
ATOM      4  C   UNL     1      34.247 -13.683 -22.011  0.00  0.00    +0.001 C 
ATOM      5  C   UNL     1      33.389 -13.635 -24.268  0.00  0.00    +0.001 C 
ATOM      6  C   UNL     1      33.667 -12.983 -23.067  0.00  0.00    +0.000 C 
ENDROOT
BRANCH   1   7
ATOM      7  N   UNL     1      34.571 -17.031 -23.499  0.00  0.00    -0.311 N 
ATOM      8  N   UNL     1      35.140 -19.352 -20.953  0.00  0.00    +0.387 N 
ATOM      9  C   UNL     1      35.510 -19.199 -23.222  0.00  0.00    -0.003 C 
ATOM     10  C   UNL     1      35.532 -17.763 -22.669  0.00  0.00    +0.050 C 
ATOM     11  C   UNL     1      34.869 -19.092 -24.594  0.00  0.00    +0.021 C 
ATOM     12  C   UNL     1      34.711 -19.992 -22.195  0.00  0.00    -0.076 C 
ATOM     13  C   UNL     1      35.065 -17.911 -21.216  0.00  0.00    -0.057 C 
ATOM     14  C   UNL     1      33.923 -17.901 -24.478  0.00  0.00    +0.091 C 
ATOM     15  C   UNL     1      34.331 -19.752 -19.812  0.00  0.00    -0.101 C 
ATOM     16  H   UNL     1      36.087 -19.634 -20.695  0.00  0.00    -0.080 HD
ENDBRANCH   1   7
BRANCH   6  17
ATOM     17  C   UNL     1      33.354 -11.578 -22.919  0.00  0.00    +0.000 C 
ATOM     18  C   UNL     1      32.306 -11.183 -22.087  0.00  0.00    +0.001 C 
ATOM     19  C   UNL     1      34.097 -10.620 -23.608  0.00  0.00    +0.001 C 
ATOM     20  C   UNL     1      32.003  -9.828 -21.943  0.00  0.00    +0.017 C 
ATOM     21  C   UNL     1      33.794  -9.266 -23.464  0.00  0.00    +0.017 C 
ATOM     22  C   UNL     1      32.747  -8.871 -22.632  0.00  0.00    +0.077 C 
BRANCH  22  24
ATOM     23  O   UNL     1      33.323  -7.063 -20.340  0.00  0.00    -0.268 OA
ATOM     24  N   UNL     1      32.433  -7.469 -22.483  0.00  0.00    -0.155 N 
ATOM     25  N   UNL     1      31.817  -6.929 -23.588  0.00  0.00    -0.170 NA
ATOM     26  C   UNL     1      32.721  -6.700 -21.350  0.00  0.00    +0.272 C 
ATOM     27  C   UNL     1      32.270  -5.285 -21.372  0.00  0.00    +0.062 C 
ATOM     28  C   UNL     1      31.470  -5.689 -23.552  0.00  0.00    +0.118 C 
ATOM     29  C   UNL     1      31.660  -4.772 -22.434  0.00  0.00    +0.027 C 
ENDBRANCH  22  24
ENDBRANCH   6  17
TORSDOF 3
ENDMDL
MODEL 7
REMARK VINA RESULT:     -10.3      7.784     15.042
REMARK  Name = 24743471
REMARK  3 active torsions:
REMARK  status: ('A' for Active; 'I' for Inactive)
REMARK    1  A    between atoms: C_1  and  N_7
REMARK    2  A    between atoms: C_6  and  C_17
REMARK    3  A    between atoms: C_22  and  N_24
REMARK                            x       y       z     vdW  Elec       q    Type
REMARK                         _______ _______ _______ _____ _____    ______ ____
ROOT
ATOM      1  C   UNL     1      36.621 -23.632 -15.221  0.00  0.00    +0.048 C 
ATOM      2  C   UNL     1      35.329 -23.581 -15.744  0.00  0.00    +0.015 C 
ATOM      3  C   UNL     1      37.639 -22.876 -15.803  0.00  0.00    +0.015 C 
ATOM      4  C   UNL     1      35.054 -22.775 -16.849  0.00  0.00    +0.001 C 
ATOM      5  C   UNL     1      37.364 -22.070 -16.908  0.00  0.00    +0.001 C 
ATOM      6  C   UNL     1      36.072 -22.020 -17.430  0.00  0.00    +0.000 C 
ENDROOT
BRANCH   1   7
ATOM      7  N   UNL     1      36.894 -24.429 -14.126  0.00  0.00    -0.311 N 
ATOM      8  N   UNL     1      37.384 -23.389 -10.829  0.00  0.00    +0.387 N 
ATOM      9  C   UNL     1      37.783 -25.276 -12.089  0.00  0.00    -0.003 C 
ATOM     10  C   UNL     1      37.829 -24.078 -13.054  0.00  0.00    +0.050 C 
ATOM     11  C   UNL     1      37.161 -26.410 -12.886  0.00  0.00    +0.021 C 
ATOM     12  C   UNL     1      36.956 -24.784 -10.909  0.00  0.00    -0.076 C 
ATOM     13  C   UNL     1      37.341 -22.894 -12.209  0.00  0.00    -0.057 C 
ATOM     14  C   UNL     1      36.239 -25.712 -13.880  0.00  0.00    +0.091 C 
ATOM     15  C   UNL     1      36.552 -22.602  -9.931  0.00  0.00    -0.101 C 
ATOM     16  H   UNL     1      38.321 -23.307 -10.433  0.00  0.00    -0.080 HD
ENDBRANCH   1   7
BRANCH   6  17
ATOM     17  C   UNL     1      35.788 -21.184 -18.577  0.00  0.00    +0.000 C 
ATOM     18  C   UNL     1      34.487 -21.105 -19.076  0.00  0.00    +0.001 C 
ATOM     19  C   UNL     1      36.813 -20.459 -19.182  0.00  0.00    +0.001 C 
ATOM     20  C   UNL     1      34.213 -20.299 -20.181  0.00  0.00    +0.017 C 
ATOM     21  C   UNL     1      36.539 -19.652 -20.287  0.00  0.00    +0.017 C 
ATOM     22  C   UNL     1      35.238 -19.573 -20.787  0.00  0.00    +0.077 C 
BRANCH  22  24
ATOM     23  O   UNL     1      35.488 -16.620 -21.049  0.00  0.00    -0.268 OA
ATOM     24  N   UNL     1      34.954 -18.739 -21.931  0.00  0.00    -0.155 N 
ATOM     25  N   UNL     1      34.551 -19.451 -23.036  0.00  0.00    -0.170 NA
ATOM     26  C   UNL     1      35.077 -17.345 -21.955  0.00  0.00    +0.272 C 
ATOM     27  C   UNL     1      34.686 -16.663 -23.215  0.00  0.00    +0.062 C 
ATOM     28  C   UNL     1      34.247 -18.800 -24.106  0.00  0.00    +0.118 C 
ATOM     29  C   UNL     1      34.280 -17.353 -24.275  0.00  0.00    +0.027 C 
ENDBRANCH  22  24
ENDBRANCH   6  17
TORSDOF 3
ENDMDL
MODEL 8
REMARK VINA RESULT:      -9.2      7.872     11.948
REMARK  Name = 24743471
REMARK  3 active torsions:
REMARK  status: ('A' for Active; 'I' for Inactive)
REMARK    1  A    between atoms: C_1  and  N_7
REMARK    2  A    between atoms: C_6  and  C_17
REMARK    3  A    between atoms: C_22  and  N_24
REMARK                            x       y       z     vdW  Elec       q    Type
REMARK                         _______ _______ _______ _____ _____    ______ ____
ROOT
ATOM      1  C   UNL     1      35.459 -19.005 -21.017  0.00  0.00    +0.048 C 
ATOM      2  C   UNL     1      34.422 -19.788 -20.511  0.00  0.00    +0.015 C 
ATOM      3  C   UNL     1      36.728 -19.069 -20.440  0.00  0.00    +0.015 C 
ATOM      4  C   UNL     1      34.653 -20.636 -19.427  0.00  0.00    +0.001 C 
ATOM      5  C   UNL     1      36.958 -19.918 -19.356  0.00  0.00    +0.001 C 
ATOM      6  C   UNL     1      35.921 -20.700 -18.850  0.00  0.00    +0.000 C 
ENDROOT
BRANCH   1   7
ATOM      7  N   UNL     1      35.232 -18.166 -22.090  0.00  0.00    -0.311 N 
ATOM      8  N   UNL     1      33.229 -18.802 -24.879  0.00  0.00    +0.387 N 
ATOM      9  C   UNL     1      34.886 -17.316 -24.284  0.00  0.00    -0.003 C 
ATOM     10  C   UNL     1      35.138 -18.606 -23.485  0.00  0.00    +0.050 C 
ATOM     11  C   UNL     1      35.283 -16.183 -23.354  0.00  0.00    +0.021 C 
ATOM     12  C   UNL     1      33.408 -17.370 -24.643  0.00  0.00    -0.076 C 
ATOM     13  C   UNL     1      33.894 -19.463 -23.751  0.00  0.00    -0.057 C 
ATOM     14  C   UNL     1      35.010 -16.728 -21.956  0.00  0.00    +0.091 C 
ATOM     15  C   UNL     1      31.829 -19.177 -24.997  0.00  0.00    -0.101 C 
ATOM     16  H   UNL     1      33.637 -19.087 -25.770  0.00  0.00    -0.080 HD
ENDBRANCH   1   7
BRANCH   6  17
ATOM     17  C   UNL     1      36.161 -21.579 -17.726  0.00  0.00    +0.000 C 
ATOM     18  C   UNL     1      37.435 -21.656 -17.162  0.00  0.00    +0.001 C 
ATOM     19  C   UNL     1      35.120 -22.350 -17.208  0.00  0.00    +0.001 C 
ATOM     20  C   UNL     1      37.667 -22.504 -16.078  0.00  0.00    +0.017 C 
ATOM     21  C   UNL     1      35.353 -23.197 -16.124  0.00  0.00    +0.017 C 
ATOM     22  C   UNL     1      36.626 -23.274 -15.560  0.00  0.00    +0.077 C 
BRANCH  22  24
ATOM     23  O   UNL     1      35.991 -26.168 -15.285  0.00  0.00    -0.268 OA
ATOM     24  N   UNL     1      36.867 -24.151 -14.438  0.00  0.00    -0.155 N 
ATOM     25  N   UNL     1      37.511 -23.532 -13.392  0.00  0.00    -0.170 NA
ATOM     26  C   UNL     1      36.508 -25.503 -14.387  0.00  0.00    +0.272 C 
ATOM     27  C   UNL     1      36.796 -26.222 -13.121  0.00  0.00    +0.062 C 
ATOM     28  C   UNL     1      37.751 -24.219 -12.329  0.00  0.00    +0.118 C 
ATOM     29  C   UNL     1      37.402 -25.616 -12.106  0.00  0.00    +0.027 C 
ENDBRANCH  22  24
ENDBRANCH   6  17
TORSDOF 3
ENDMDL
MODEL 9
REMARK VINA RESULT:      -9.0      1.677      2.588
REMARK  Name = 24743471
REMARK  3 active torsions:
REMARK  status: ('A' for Active; 'I' for Inactive)
REMARK    1  A    between atoms: C_1  and  N_7
REMARK    2  A    between atoms: C_6  and  C_17
REMARK    3  A    between atoms: C_22  and  N_24
REMARK                            x       y       z     vdW  Elec       q    Type
REMARK                         _______ _______ _______ _____ _____    ______ ____
ROOT
ATOM      1  C   UNL     1      32.634  -9.956 -22.715  0.00  0.00    +0.048 C 
ATOM      2  C   UNL     1      33.724 -10.456 -23.427  0.00  0.00    +0.015 C 
ATOM      3  C   UNL     1      31.998 -10.754 -21.763  0.00  0.00    +0.015 C 
ATOM      4  C   UNL     1      34.178 -11.753 -23.188  0.00  0.00    +0.001 C 
ATOM      5  C   UNL     1      32.453 -12.051 -21.524  0.00  0.00    +0.001 C 
ATOM      6  C   UNL     1      33.543 -12.549 -22.236  0.00  0.00    +0.000 C 
ENDROOT
BRANCH   1   7
ATOM      7  N   UNL     1      32.184  -8.672 -22.951  0.00  0.00    -0.311 N 
ATOM      8  N   UNL     1      31.705  -6.139 -20.595  0.00  0.00    +0.387 N 
ATOM      9  C   UNL     1      31.071  -6.578 -22.766  0.00  0.00    -0.003 C 
ATOM     10  C   UNL     1      31.264  -7.939 -22.075  0.00  0.00    +0.050 C 
ATOM     11  C   UNL     1      31.542  -6.782 -24.196  0.00  0.00    +0.021 C 
ATOM     12  C   UNL     1      31.907  -5.608 -21.942  0.00  0.00    -0.076 C 
ATOM     13  C   UNL     1      31.893  -7.588 -20.721  0.00  0.00    -0.057 C 
ATOM     14  C   UNL     1      32.611  -7.864 -24.091  0.00  0.00    +0.091 C 
ATOM     15  C   UNL     1      32.606  -5.544 -19.621  0.00  0.00    -0.101 C 
ATOM     16  H   UNL     1      30.774  -5.914 -20.241  0.00  0.00    -0.080 HD
ENDBRANCH   1   7
BRANCH   6  17
ATOM     17  C   UNL     1      34.014 -13.895 -21.987  0.00  0.00    +0.000 C 
ATOM     18  C   UNL     1      34.396 -14.708 -23.055  0.00  0.00    +0.001 C 
ATOM     19  C   UNL     1      34.085 -14.379 -20.681  0.00  0.00    +0.001 C 
ATOM     20  C   UNL     1      34.850 -16.005 -22.816  0.00  0.00    +0.017 C 
ATOM     21  C   UNL     1      34.539 -15.676 -20.442  0.00  0.00    +0.017 C 
ATOM     22  C   UNL     1      34.921 -16.489 -21.510  0.00  0.00    +0.077 C 
BRANCH  22  24
ATOM     23  O   UNL     1      33.804 -19.067 -22.491  0.00  0.00    -0.268 OA
ATOM     24  N   UNL     1      35.391 -17.832 -21.262  0.00  0.00    -0.155 N 
ATOM     25  N   UNL     1      36.531 -17.876 -20.494  0.00  0.00    -0.170 NA
ATOM     26  C   UNL     1      34.782 -18.995 -21.747  0.00  0.00    +0.272 C 
ATOM     27  C   UNL     1      35.391 -20.286 -21.337  0.00  0.00    +0.062 C 
ATOM     28  C   UNL     1      37.022 -19.028 -20.192  0.00  0.00    +0.118 C 
ATOM     29  C   UNL     1      36.482 -20.326 -20.581  0.00  0.00    +0.027 C 
ENDBRANCH  22  24
ENDBRANCH   6  17
TORSDOF 3
ENDMDL
