MODEL 1
REMARK VINA RESULT:     -11.3      0.000      0.000
REMARK  Name = 10224181
REMARK  7 active torsions:
REMARK  status: ('A' for Active; 'I' for Inactive)
REMARK    1  A    between atoms: N_3  and  C_23
REMARK    2  A    between atoms: C_12  and  C_14
REMARK    3  A    between atoms: C_15  and  C_16
REMARK    4  A    between atoms: C_16  and  C_17
REMARK    5  A    between atoms: C_23  and  C_24
REMARK    6  A    between atoms: C_29  and  C_31
REMARK    7  A    between atoms: C_31  and  O_32
REMARK                            x       y       z     vdW  Elec       q    Type
REMARK                         _______ _______ _______ _____ _____    ______ ____
ROOT
ATOM      1  O   UNL     1      36.840 -22.795 -15.010  0.00  0.00    -0.267 OA
ATOM      2  O   UNL     1      34.649 -24.963 -11.531  0.00  0.00    -0.246 OA
ATOM      3  N   UNL     1      35.767 -23.886 -13.249  0.00  0.00    -0.244 N 
ATOM      4  N   UNL     1      33.410 -24.256 -13.357  0.00  0.00    -0.279 N 
ATOM      5  C   UNL     1      33.365 -23.616 -14.631  0.00  0.00    +0.069 A 
ATOM      6  C   UNL     1      34.536 -23.114 -15.201  0.00  0.00    +0.073 A 
ATOM      7  C   UNL     1      35.820 -23.244 -14.492  0.00  0.00    +0.266 A 
ATOM      8  C   UNL     1      34.605 -24.408 -12.636  0.00  0.00    +0.334 A 
ATOM      9  C   UNL     1      34.512 -22.482 -16.455  0.00  0.00    +0.014 C 
ATOM     10  C   UNL     1      32.163 -23.469 -15.348  0.00  0.00    +0.018 C 
ATOM     11  C   UNL     1      32.168 -24.772 -12.783  0.00  0.00    +0.135 C 
ATOM     12  C   UNL     1      33.313 -22.345 -17.148  0.00  0.00    +0.042 C 
ATOM     13  C   UNL     1      32.139 -22.839 -16.595  0.00  0.00    +0.010 C 
ENDROOT
BRANCH  12  14
ATOM     14  C   UNL     1      33.290 -21.701 -18.423  0.00  0.00    -0.064 C 
ATOM     15  C   UNL     1      33.273 -21.155 -19.497  0.00  0.00    -0.082 C 
BRANCH  15  16
ATOM     16  C   UNL     1      33.251 -20.486 -20.803  0.00  0.00    +0.103 C 
BRANCH  16  17
ATOM     17  C   UNL     1      34.550 -19.780 -21.096  0.00  0.00    -0.009 C 
ATOM     18  C   UNL     1      35.614 -19.916 -20.216  0.00  0.00    -0.003 C 
ATOM     19  C   UNL     1      34.662 -19.006 -22.241  0.00  0.00    -0.003 C 
ATOM     20  C   UNL     1      36.816 -19.263 -20.488  0.00  0.00    -0.000 C 
ATOM     21  C   UNL     1      35.864 -18.352 -22.512  0.00  0.00    -0.000 C 
ATOM     22  C   UNL     1      36.941 -18.481 -21.636  0.00  0.00    -0.000 C 
ENDBRANCH  16  17
ENDBRANCH  15  16
ENDBRANCH  12  14
BRANCH   3  23
ATOM     23  C   UNL     1      37.025 -24.030 -12.521  0.00  0.00    +0.140 C 
BRANCH  23  24
ATOM     24  C   UNL     1      37.915 -25.074 -13.141  0.00  0.00    +0.001 C 
ATOM     25  C   UNL     1      39.277 -24.828 -13.257  0.00  0.00    -0.002 C 
ATOM     26  C   UNL     1      37.363 -26.266 -13.586  0.00  0.00    -0.002 C 
ATOM     27  C   UNL     1      40.102 -25.795 -13.831  0.00  0.00    +0.006 C 
ATOM     28  C   UNL     1      38.188 -27.234 -14.160  0.00  0.00    +0.006 C 
ATOM     29  C   UNL     1      39.558 -26.998 -14.283  0.00  0.00    +0.075 C 
BRANCH  29  31
ATOM     30  O   UNL     1      40.629 -29.133 -14.418  0.00  0.00    -0.245 OA
ATOM     31  C   UNL     1      40.419 -28.007 -14.881  0.00  0.00    +0.338 C 
BRANCH  31  32
ATOM     32  O   UNL     1      40.993 -27.581 -16.039  0.00  0.00    -0.477 OA
ATOM     33  H   UNL     1      41.433 -26.754 -16.067  0.00  0.00    +0.295 HD
ENDBRANCH  31  32
ENDBRANCH  29  31
ENDBRANCH  23  24
ENDBRANCH   3  23
TORSDOF 7
ENDMDL
MODEL 2
REMARK VINA RESULT:     -11.1      1.310      2.353
REMARK  Name = 10224181
REMARK  7 active torsions:
REMARK  status: ('A' for Active; 'I' for Inactive)
REMARK    1  A    between atoms: N_3  and  C_23
REMARK    2  A    between atoms: C_12  and  C_14
REMARK    3  A    between atoms: C_15  and  C_16
REMARK    4  A    between atoms: C_16  and  C_17
REMARK    5  A    between atoms: C_23  and  C_24
REMARK    6  A    between atoms: C_29  and  C_31
REMARK    7  A    between atoms: C_31  and  O_32
REMARK                            x       y       z     vdW  Elec       q    Type
REMARK                         _______ _______ _______ _____ _____    ______ ____
ROOT
ATOM      1  O   UNL     1      37.266 -22.587 -15.535  0.00  0.00    -0.267 OA
ATOM      2  O   UNL     1      33.577 -24.701 -13.659  0.00  0.00    -0.246 OA
ATOM      3  N   UNL     1      35.431 -23.658 -14.570  0.00  0.00    -0.244 N 
ATOM      4  N   UNL     1      33.314 -23.581 -15.670  0.00  0.00    -0.279 N 
ATOM      5  C   UNL     1      33.884 -22.804 -16.721  0.00  0.00    +0.069 A 
ATOM      6  C   UNL     1      35.236 -22.460 -16.680  0.00  0.00    +0.073 A 
ATOM      7  C   UNL     1      36.078 -22.899 -15.554  0.00  0.00    +0.266 A 
ATOM      8  C   UNL     1      34.067 -24.027 -14.572  0.00  0.00    +0.334 A 
ATOM      9  C   UNL     1      35.816 -21.696 -17.705  0.00  0.00    +0.014 C 
ATOM     10  C   UNL     1      33.122 -22.361 -17.818  0.00  0.00    +0.018 C 
ATOM     11  C   UNL     1      31.894 -23.925 -15.738  0.00  0.00    +0.135 C 
ATOM     12  C   UNL     1      35.045 -21.268 -18.782  0.00  0.00    +0.042 C 
ATOM     13  C   UNL     1      33.698 -21.601 -18.838  0.00  0.00    +0.010 C 
ENDROOT
BRANCH  12  14
ATOM     14  C   UNL     1      35.637 -20.491 -19.824  0.00  0.00    -0.064 C 
ATOM     15  C   UNL     1      36.133 -19.833 -20.704  0.00  0.00    -0.082 C 
BRANCH  15  16
ATOM     16  C   UNL     1      36.734 -19.032 -21.776  0.00  0.00    +0.103 C 
BRANCH  16  17
ATOM     17  C   UNL     1      35.693 -18.466 -22.708  0.00  0.00    -0.009 C 
ATOM     18  C   UNL     1      35.594 -17.092 -22.867  0.00  0.00    -0.003 C 
ATOM     19  C   UNL     1      34.850 -19.329 -23.392  0.00  0.00    -0.003 C 
ATOM     20  C   UNL     1      34.631 -16.569 -23.730  0.00  0.00    -0.000 C 
ATOM     21  C   UNL     1      33.886 -18.806 -24.255  0.00  0.00    -0.000 C 
ATOM     22  C   UNL     1      33.777 -17.427 -24.424  0.00  0.00    -0.000 C 
ENDBRANCH  16  17
ENDBRANCH  15  16
ENDBRANCH  12  14
BRANCH   3  23
ATOM     23  C   UNL     1      36.240 -24.108 -13.440  0.00  0.00    +0.140 C 
BRANCH  23  24
ATOM     24  C   UNL     1      37.275 -25.118 -13.858  0.00  0.00    +0.001 C 
ATOM     25  C   UNL     1      38.604 -24.919 -13.509  0.00  0.00    -0.002 C 
ATOM     26  C   UNL     1      36.887 -26.233 -14.587  0.00  0.00    -0.002 C 
ATOM     27  C   UNL     1      39.563 -25.854 -13.896  0.00  0.00    +0.006 C 
ATOM     28  C   UNL     1      37.847 -27.169 -14.974  0.00  0.00    +0.006 C 
ATOM     29  C   UNL     1      39.185 -26.979 -14.629  0.00  0.00    +0.075 C 
BRANCH  29  31
ATOM     30  O   UNL     1      40.356 -29.062 -14.510  0.00  0.00    -0.245 OA
ATOM     31  C   UNL     1      40.186 -27.955 -15.032  0.00  0.00    +0.338 C 
BRANCH  31  32
ATOM     32  O   UNL     1      40.945 -27.522 -16.075  0.00  0.00    -0.477 OA
ATOM     33  H   UNL     1      40.534 -27.241 -16.868  0.00  0.00    +0.295 HD
ENDBRANCH  31  32
ENDBRANCH  29  31
ENDBRANCH  23  24
ENDBRANCH   3  23
TORSDOF 7
ENDMDL
MODEL 3
REMARK VINA RESULT:     -10.6      3.269      6.788
REMARK  Name = 10224181
REMARK  7 active torsions:
REMARK  status: ('A' for Active; 'I' for Inactive)
REMARK    1  A    between atoms: N_3  and  C_23
REMARK    2  A    between atoms: C_12  and  C_14
REMARK    3  A    between atoms: C_15  and  C_16
REMARK    4  A    between atoms: C_16  and  C_17
REMARK    5  A    between atoms: C_23  and  C_24
REMARK    6  A    between atoms: C_29  and  C_31
REMARK    7  A    between atoms: C_31  and  O_32
REMARK                            x       y       z     vdW  Elec       q    Type
REMARK                         _______ _______ _______ _____ _____    ______ ____
ROOT
ATOM      1  O   UNL     1      32.237 -23.555 -16.912  0.00  0.00    -0.267 OA
ATOM      2  O   UNL     1      34.750 -24.309 -13.075  0.00  0.00    -0.246 OA
ATOM      3  N   UNL     1      33.475 -23.949 -14.973  0.00  0.00    -0.244 N 
ATOM      4  N   UNL     1      35.702 -23.104 -14.809  0.00  0.00    -0.279 N 
ATOM      5  C   UNL     1      35.589 -22.540 -16.114  0.00  0.00    +0.069 A 
ATOM      6  C   UNL     1      34.405 -22.692 -16.838  0.00  0.00    +0.073 A 
ATOM      7  C   UNL     1      33.271 -23.431 -16.259  0.00  0.00    +0.266 A 
ATOM      8  C   UNL     1      34.655 -23.819 -14.206  0.00  0.00    +0.334 A 
ATOM      9  C   UNL     1      34.273 -22.143 -18.124  0.00  0.00    +0.014 C 
ATOM     10  C   UNL     1      36.642 -21.824 -16.711  0.00  0.00    +0.018 C 
ATOM     11  C   UNL     1      36.954 -22.931 -14.073  0.00  0.00    +0.135 C 
ATOM     12  C   UNL     1      35.327 -21.439 -18.698  0.00  0.00    +0.042 C 
ATOM     13  C   UNL     1      36.512 -21.279 -17.990  0.00  0.00    +0.010 C 
ENDROOT
BRANCH  12  14
ATOM     14  C   UNL     1      35.191 -20.882 -20.006  0.00  0.00    -0.064 C 
ATOM     15  C   UNL     1      35.078 -20.415 -21.111  0.00  0.00    -0.082 C 
BRANCH  15  16
ATOM     16  C   UNL     1      34.942 -19.850 -22.458  0.00  0.00    +0.103 C 
BRANCH  16  17
ATOM     17  C   UNL     1      34.947 -18.343 -22.440  0.00  0.00    -0.009 C 
ATOM     18  C   UNL     1      35.197 -17.676 -21.249  0.00  0.00    -0.003 C 
ATOM     19  C   UNL     1      34.702 -17.645 -23.614  0.00  0.00    -0.003 C 
ATOM     20  C   UNL     1      35.203 -16.281 -21.233  0.00  0.00    -0.000 C 
ATOM     21  C   UNL     1      34.707 -16.251 -23.597  0.00  0.00    -0.000 C 
ATOM     22  C   UNL     1      34.957 -15.569 -22.407  0.00  0.00    -0.000 C 
ENDBRANCH  16  17
ENDBRANCH  15  16
ENDBRANCH  12  14
BRANCH   3  23
ATOM     23  C   UNL     1      32.369 -24.688 -14.371  0.00  0.00    +0.140 C 
BRANCH  23  24
ATOM     24  C   UNL     1      31.037 -24.063 -14.689  0.00  0.00    +0.001 C 
ATOM     25  C   UNL     1      30.791 -22.749 -14.312  0.00  0.00    -0.002 C 
ATOM     26  C   UNL     1      30.075 -24.807 -15.357  0.00  0.00    -0.002 C 
ATOM     27  C   UNL     1      29.557 -22.170 -14.608  0.00  0.00    +0.006 C 
ATOM     28  C   UNL     1      28.841 -24.227 -15.653  0.00  0.00    +0.006 C 
ATOM     29  C   UNL     1      28.582 -22.909 -15.278  0.00  0.00    +0.075 C 
BRANCH  29  31
ATOM     30  O   UNL     1      26.281 -22.384 -14.886  0.00  0.00    -0.245 OA
ATOM     31  C   UNL     1      27.295 -22.304 -15.587  0.00  0.00    +0.338 C 
BRANCH  31  32
ATOM     32  O   UNL     1      27.311 -21.619 -16.763  0.00  0.00    -0.477 OA
ATOM     33  H   UNL     1      27.930 -20.928 -16.893  0.00  0.00    +0.295 HD
ENDBRANCH  31  32
ENDBRANCH  29  31
ENDBRANCH  23  24
ENDBRANCH   3  23
TORSDOF 7
ENDMDL
MODEL 4
REMARK VINA RESULT:      -9.9      7.145     10.787
REMARK  Name = 10224181
REMARK  7 active torsions:
REMARK  status: ('A' for Active; 'I' for Inactive)
REMARK    1  A    between atoms: N_3  and  C_23
REMARK    2  A    between atoms: C_12  and  C_14
REMARK    3  A    between atoms: C_15  and  C_16
REMARK    4  A    between atoms: C_16  and  C_17
REMARK    5  A    between atoms: C_23  and  C_24
REMARK    6  A    between atoms: C_29  and  C_31
REMARK    7  A    between atoms: C_31  and  O_32
REMARK                            x       y       z     vdW  Elec       q    Type
REMARK                         _______ _______ _______ _____ _____    ______ ____
ROOT
ATOM      1  O   UNL     1      35.381 -16.395 -19.548  0.00  0.00    -0.267 OA
ATOM      2  O   UNL     1      36.024 -18.677 -23.545  0.00  0.00    -0.246 OA
ATOM      3  N   UNL     1      35.720 -17.562 -21.540  0.00  0.00    -0.244 N 
ATOM      4  N   UNL     1      34.790 -16.717 -23.570  0.00  0.00    -0.279 N 
ATOM      5  C   UNL     1      34.237 -15.610 -22.861  0.00  0.00    +0.069 A 
ATOM      6  C   UNL     1      34.436 -15.495 -21.484  0.00  0.00    +0.073 A 
ATOM      7  C   UNL     1      35.217 -16.513 -20.760  0.00  0.00    +0.266 A 
ATOM      8  C   UNL     1      35.543 -17.717 -22.934  0.00  0.00    +0.334 A 
ATOM      9  C   UNL     1      33.900 -14.413 -20.767  0.00  0.00    +0.014 C 
ATOM     10  C   UNL     1      33.485 -14.612 -23.506  0.00  0.00    +0.018 C 
ATOM     11  C   UNL     1      34.565 -16.813 -25.012  0.00  0.00    +0.135 C 
ATOM     12  C   UNL     1      33.158 -13.436 -21.424  0.00  0.00    +0.042 C 
ATOM     13  C   UNL     1      32.951 -13.535 -22.794  0.00  0.00    +0.010 C 
ENDROOT
BRANCH  12  14
ATOM     14  C   UNL     1      32.614 -12.336 -20.693  0.00  0.00    -0.064 C 
ATOM     15  C   UNL     1      32.156 -11.405 -20.080  0.00  0.00    -0.082 C 
BRANCH  15  16
ATOM     16  C   UNL     1      31.601 -10.270 -19.335  0.00  0.00    +0.103 C 
BRANCH  16  17
ATOM     17  C   UNL     1      31.922  -8.952 -19.993  0.00  0.00    -0.009 C 
ATOM     18  C   UNL     1      32.295  -7.870 -19.209  0.00  0.00    -0.003 C 
ATOM     19  C   UNL     1      31.840  -8.842 -21.374  0.00  0.00    -0.003 C 
ATOM     20  C   UNL     1      32.593  -6.652 -19.819  0.00  0.00    -0.000 C 
ATOM     21  C   UNL     1      32.137  -7.624 -21.983  0.00  0.00    -0.000 C 
ATOM     22  C   UNL     1      32.514  -6.529 -21.206  0.00  0.00    -0.000 C 
ENDBRANCH  16  17
ENDBRANCH  15  16
ENDBRANCH  12  14
BRANCH   3  23
ATOM     23  C   UNL     1      36.499 -18.587 -20.851  0.00  0.00    +0.140 C 
BRANCH  23  24
ATOM     24  C   UNL     1      35.619 -19.638 -20.229  0.00  0.00    +0.001 C 
ATOM     25  C   UNL     1      36.185 -20.606 -19.411  0.00  0.00    -0.002 C 
ATOM     26  C   UNL     1      34.255 -19.623 -20.481  0.00  0.00    -0.002 C 
ATOM     27  C   UNL     1      35.369 -21.580 -18.834  0.00  0.00    +0.006 C 
ATOM     28  C   UNL     1      33.439 -20.596 -19.904  0.00  0.00    +0.006 C 
ATOM     29  C   UNL     1      33.997 -21.575 -19.081  0.00  0.00    +0.075 C 
BRANCH  29  31
ATOM     30  O   UNL     1      32.114 -22.369 -17.835  0.00  0.00    -0.245 OA
ATOM     31  C   UNL     1      33.145 -22.590 -18.478  0.00  0.00    +0.338 C 
BRANCH  31  32
ATOM     32  O   UNL     1      33.606 -23.852 -18.696  0.00  0.00    -0.477 OA
ATOM     33  H   UNL     1      34.297 -23.998 -19.312  0.00  0.00    +0.295 HD
ENDBRANCH  31  32
ENDBRANCH  29  31
ENDBRANCH  23  24
ENDBRANCH   3  23
TORSDOF 7
ENDMDL
MODEL 5
REMARK VINA RESULT:      -9.8      4.896     11.093
REMARK  Name = 10224181
REMARK  7 active torsions:
REMARK  status: ('A' for Active; 'I' for Inactive)
REMARK    1  A    between atoms: N_3  and  C_23
REMARK    2  A    between atoms: C_12  and  C_14
REMARK    3  A    between atoms: C_15  and  C_16
REMARK    4  A    between atoms: C_16  and  C_17
REMARK    5  A    between atoms: C_23  and  C_24
REMARK    6  A    between atoms: C_29  and  C_31
REMARK    7  A    between atoms: C_31  and  O_32
REMARK                            x       y       z     vdW  Elec       q    Type
REMARK                         _______ _______ _______ _____ _____    ______ ____
ROOT
ATOM      1  O   UNL     1      37.541 -19.390 -20.414  0.00  0.00    -0.267 OA
ATOM      2  O   UNL     1      33.432 -19.036 -22.558  0.00  0.00    -0.246 OA
ATOM      3  N   UNL     1      35.491 -19.194 -21.511  0.00  0.00    -0.244 N 
ATOM      4  N   UNL     1      33.583 -20.344 -20.651  0.00  0.00    -0.279 N 
ATOM      5  C   UNL     1      34.375 -20.871 -19.589  0.00  0.00    +0.069 A 
ATOM      6  C   UNL     1      35.730 -20.547 -19.503  0.00  0.00    +0.073 A 
ATOM      7  C   UNL     1      36.346 -19.662 -20.506  0.00  0.00    +0.266 A 
ATOM      8  C   UNL     1      34.116 -19.495 -21.635  0.00  0.00    +0.334 A 
ATOM      9  C   UNL     1      36.527 -21.056 -18.464  0.00  0.00    +0.014 C 
ATOM     10  C   UNL     1      33.834 -21.720 -18.606  0.00  0.00    +0.018 C 
ATOM     11  C   UNL     1      32.166 -20.700 -20.718  0.00  0.00    +0.135 C 
ATOM     12  C   UNL     1      35.972 -21.894 -17.502  0.00  0.00    +0.042 C 
ATOM     13  C   UNL     1      34.626 -22.225 -17.573  0.00  0.00    +0.010 C 
ENDROOT
BRANCH  12  14
ATOM     14  C   UNL     1      36.784 -22.410 -16.445  0.00  0.00    -0.064 C 
ATOM     15  C   UNL     1      37.470 -22.849 -15.557  0.00  0.00    -0.082 C 
BRANCH  15  16
ATOM     16  C   UNL     1      38.304 -23.386 -14.476  0.00  0.00    +0.103 C 
BRANCH  16  17
ATOM     17  C   UNL     1      37.476 -23.879 -13.317  0.00  0.00    -0.009 C 
ATOM     18  C   UNL     1      36.268 -23.261 -13.030  0.00  0.00    -0.003 C 
ATOM     19  C   UNL     1      37.935 -24.944 -12.556  0.00  0.00    -0.003 C 
ATOM     20  C   UNL     1      35.501 -23.718 -11.958  0.00  0.00    -0.000 C 
ATOM     21  C   UNL     1      37.169 -25.400 -11.483  0.00  0.00    -0.000 C 
ATOM     22  C   UNL     1      35.953 -24.788 -11.184  0.00  0.00    -0.000 C 
ENDBRANCH  16  17
ENDBRANCH  15  16
ENDBRANCH  12  14
BRANCH   3  23
ATOM     23  C   UNL     1      36.072 -18.313 -22.521  0.00  0.00    +0.140 C 
BRANCH  23  24
ATOM     24  C   UNL     1      35.410 -16.962 -22.535  0.00  0.00    +0.001 C 
ATOM     25  C   UNL     1      35.227 -16.278 -21.340  0.00  0.00    -0.002 C 
ATOM     26  C   UNL     1      34.994 -16.416 -23.741  0.00  0.00    -0.002 C 
ATOM     27  C   UNL     1      34.614 -15.026 -21.353  0.00  0.00    +0.006 C 
ATOM     28  C   UNL     1      34.381 -15.164 -23.754  0.00  0.00    +0.006 C 
ATOM     29  C   UNL     1      34.191 -14.468 -22.559  0.00  0.00    +0.075 C 
BRANCH  29  31
ATOM     30  O   UNL     1      32.439 -12.904 -22.102  0.00  0.00    -0.245 OA
ATOM     31  C   UNL     1      33.552 -13.161 -22.572  0.00  0.00    +0.338 C 
BRANCH  31  32
ATOM     32  O   UNL     1      34.320 -12.212 -23.174  0.00  0.00    -0.477 OA
ATOM     33  H   UNL     1      34.654 -12.359 -24.037  0.00  0.00    +0.295 HD
ENDBRANCH  31  32
ENDBRANCH  29  31
ENDBRANCH  23  24
ENDBRANCH   3  23
TORSDOF 7
ENDMDL
MODEL 6
REMARK VINA RESULT:      -9.7      4.884     11.055
REMARK  Name = 10224181
REMARK  7 active torsions:
REMARK  status: ('A' for Active; 'I' for Inactive)
REMARK    1  A    between atoms: N_3  and  C_23
REMARK    2  A    between atoms: C_12  and  C_14
REMARK    3  A    between atoms: C_15  and  C_16
REMARK    4  A    between atoms: C_16  and  C_17
REMARK    5  A    between atoms: C_23  and  C_24
REMARK    6  A    between atoms: C_29  and  C_31
REMARK    7  A    between atoms: C_31  and  O_32
REMARK                            x       y       z     vdW  Elec       q    Type
REMARK                         _______ _______ _______ _____ _____    ______ ____
ROOT
ATOM      1  O   UNL     1      37.526 -19.368 -20.376  0.00  0.00    -0.267 OA
ATOM      2  O   UNL     1      33.456 -19.052 -22.598  0.00  0.00    -0.246 OA
ATOM      3  N   UNL     1      35.495 -19.191 -21.512  0.00  0.00    -0.244 N 
ATOM      4  N   UNL     1      33.581 -20.353 -20.685  0.00  0.00    -0.279 N 
ATOM      5  C   UNL     1      34.356 -20.870 -19.606  0.00  0.00    +0.069 A 
ATOM      6  C   UNL     1      35.707 -20.536 -19.496  0.00  0.00    +0.073 A 
ATOM      7  C   UNL     1      36.335 -19.650 -20.489  0.00  0.00    +0.266 A 
ATOM      8  C   UNL     1      34.125 -19.503 -21.661  0.00  0.00    +0.334 A 
ATOM      9  C   UNL     1      36.488 -21.035 -18.440  0.00  0.00    +0.014 C 
ATOM     10  C   UNL     1      33.803 -21.721 -18.631  0.00  0.00    +0.018 C 
ATOM     11  C   UNL     1      32.168 -20.720 -20.777  0.00  0.00    +0.135 C 
ATOM     12  C   UNL     1      35.922 -21.876 -17.486  0.00  0.00    +0.042 C 
ATOM     13  C   UNL     1      34.579 -22.217 -17.581  0.00  0.00    +0.010 C 
ENDROOT
BRANCH  12  14
ATOM     14  C   UNL     1      36.718 -22.382 -16.413  0.00  0.00    -0.064 C 
ATOM     15  C   UNL     1      37.385 -22.811 -15.506  0.00  0.00    -0.082 C 
BRANCH  15  16
ATOM     16  C   UNL     1      38.196 -23.333 -14.401  0.00  0.00    +0.103 C 
BRANCH  16  17
ATOM     17  C   UNL     1      38.109 -24.834 -14.299  0.00  0.00    -0.009 C 
ATOM     18  C   UNL     1      36.911 -25.470 -14.588  0.00  0.00    -0.003 C 
ATOM     19  C   UNL     1      39.230 -25.558 -13.918  0.00  0.00    -0.003 C 
ATOM     20  C   UNL     1      36.831 -26.859 -14.495  0.00  0.00    -0.000 C 
ATOM     21  C   UNL     1      39.151 -26.947 -13.824  0.00  0.00    -0.000 C 
ATOM     22  C   UNL     1      37.952 -27.598 -14.112  0.00  0.00    -0.000 C 
ENDBRANCH  16  17
ENDBRANCH  15  16
ENDBRANCH  12  14
BRANCH   3  23
ATOM     23  C   UNL     1      36.089 -18.308 -22.514  0.00  0.00    +0.140 C 
BRANCH  23  24
ATOM     24  C   UNL     1      35.422 -16.960 -22.539  0.00  0.00    +0.001 C 
ATOM     25  C   UNL     1      35.233 -16.268 -21.350  0.00  0.00    -0.002 C 
ATOM     26  C   UNL     1      35.005 -16.425 -23.750  0.00  0.00    -0.002 C 
ATOM     27  C   UNL     1      34.615 -15.018 -21.373  0.00  0.00    +0.006 C 
ATOM     28  C   UNL     1      34.388 -15.175 -23.773  0.00  0.00    +0.006 C 
ATOM     29  C   UNL     1      34.192 -14.471 -22.584  0.00  0.00    +0.075 C 
BRANCH  29  31
ATOM     30  O   UNL     1      32.452 -12.901 -22.106  0.00  0.00    -0.245 OA
ATOM     31  C   UNL     1      33.549 -13.167 -22.609  0.00  0.00    +0.338 C 
BRANCH  31  32
ATOM     32  O   UNL     1      34.291 -12.232 -23.262  0.00  0.00    -0.477 OA
ATOM     33  H   UNL     1      34.077 -11.323 -23.180  0.00  0.00    +0.295 HD
ENDBRANCH  31  32
ENDBRANCH  29  31
ENDBRANCH  23  24
ENDBRANCH   3  23
TORSDOF 7
ENDMDL
MODEL 7
REMARK VINA RESULT:      -9.7     12.212     17.966
REMARK  Name = 10224181
REMARK  7 active torsions:
REMARK  status: ('A' for Active; 'I' for Inactive)
REMARK    1  A    between atoms: N_3  and  C_23
REMARK    2  A    between atoms: C_12  and  C_14
REMARK    3  A    between atoms: C_15  and  C_16
REMARK    4  A    between atoms: C_16  and  C_17
REMARK    5  A    between atoms: C_23  and  C_24
REMARK    6  A    between atoms: C_29  and  C_31
REMARK    7  A    between atoms: C_31  and  O_32
REMARK                            x       y       z     vdW  Elec       q    Type
REMARK                         _______ _______ _______ _____ _____    ______ ____
ROOT
ATOM      1  O   UNL     1      35.165  -9.032 -24.176  0.00  0.00    -0.267 OA
ATOM      2  O   UNL     1      32.890  -6.493 -21.016  0.00  0.00    -0.246 OA
ATOM      3  N   UNL     1      34.038  -7.732 -22.599  0.00  0.00    -0.244 N 
ATOM      4  N   UNL     1      32.444  -8.762 -21.150  0.00  0.00    -0.279 N 
ATOM      5  C   UNL     1      32.695 -10.024 -21.765  0.00  0.00    +0.069 A 
ATOM      6  C   UNL     1      33.625 -10.122 -22.801  0.00  0.00    +0.073 A 
ATOM      7  C   UNL     1      34.350  -8.926 -23.262  0.00  0.00    +0.266 A 
ATOM      8  C   UNL     1      33.105  -7.588 -21.547  0.00  0.00    +0.334 A 
ATOM      9  C   UNL     1      33.887 -11.355 -23.419  0.00  0.00    +0.014 C 
ATOM     10  C   UNL     1      32.029 -11.195 -21.361  0.00  0.00    +0.018 C 
ATOM     11  C   UNL     1      31.463  -8.688 -20.068  0.00  0.00    +0.135 C 
ATOM     12  C   UNL     1      33.217 -12.503 -23.005  0.00  0.00    +0.042 C 
ATOM     13  C   UNL     1      32.288 -12.423 -21.975  0.00  0.00    +0.010 C 
ENDROOT
BRANCH  12  14
ATOM     14  C   UNL     1      33.484 -13.757 -23.635  0.00  0.00    -0.064 C 
ATOM     15  C   UNL     1      33.714 -14.814 -24.166  0.00  0.00    -0.082 C 
BRANCH  15  16
ATOM     16  C   UNL     1      33.997 -16.099 -24.815  0.00  0.00    +0.103 C 
BRANCH  16  17
ATOM     17  C   UNL     1      34.488 -17.130 -23.831  0.00  0.00    -0.009 C 
ATOM     18  C   UNL     1      35.283 -16.732 -22.765  0.00  0.00    -0.003 C 
ATOM     19  C   UNL     1      34.137 -18.461 -24.005  0.00  0.00    -0.003 C 
ATOM     20  C   UNL     1      35.736 -17.686 -21.855  0.00  0.00    -0.000 C 
ATOM     21  C   UNL     1      34.592 -19.415 -23.095  0.00  0.00    -0.000 C 
ATOM     22  C   UNL     1      35.391 -19.028 -22.020  0.00  0.00    -0.000 C 
ENDBRANCH  16  17
ENDBRANCH  15  16
ENDBRANCH  12  14
BRANCH   3  23
ATOM     23  C   UNL     1      34.741  -6.527 -23.033  0.00  0.00    +0.140 C 
BRANCH  23  24
ATOM     24  C   UNL     1      33.832  -5.583 -23.771  0.00  0.00    +0.001 C 
ATOM     25  C   UNL     1      32.988  -4.745 -23.054  0.00  0.00    -0.002 C 
ATOM     26  C   UNL     1      33.851  -5.560 -25.159  0.00  0.00    -0.002 C 
ATOM     27  C   UNL     1      32.146  -3.869 -23.739  0.00  0.00    +0.006 C 
ATOM     28  C   UNL     1      33.009  -4.684 -25.844  0.00  0.00    +0.006 C 
ATOM     29  C   UNL     1      32.156  -3.838 -25.133  0.00  0.00    +0.075 C 
BRANCH  29  31
ATOM     30  O   UNL     1      31.428  -2.557 -27.017  0.00  0.00    -0.245 OA
ATOM     31  C   UNL     1      31.278  -2.924 -25.848  0.00  0.00    +0.338 C 
BRANCH  31  32
ATOM     32  O   UNL     1      30.239  -2.494 -25.081  0.00  0.00    -0.477 OA
ATOM     33  H   UNL     1      30.311  -1.691 -24.604  0.00  0.00    +0.295 HD
ENDBRANCH  31  32
ENDBRANCH  29  31
ENDBRANCH  23  24
ENDBRANCH   3  23
TORSDOF 7
ENDMDL
MODEL 8
REMARK VINA RESULT:      -9.2      9.452     15.438
REMARK  Name = 10224181
REMARK  7 active torsions:
REMARK  status: ('A' for Active; 'I' for Inactive)
REMARK    1  A    between atoms: N_3  and  C_23
REMARK    2  A    between atoms: C_12  and  C_14
REMARK    3  A    between atoms: C_15  and  C_16
REMARK    4  A    between atoms: C_16  and  C_17
REMARK    5  A    between atoms: C_23  and  C_24
REMARK    6  A    between atoms: C_29  and  C_31
REMARK    7  A    between atoms: C_31  and  O_32
REMARK                            x       y       z     vdW  Elec       q    Type
REMARK                         _______ _______ _______ _____ _____    ______ ____
ROOT
ATOM      1  O   UNL     1      33.417 -12.978 -20.731  0.00  0.00    -0.267 OA
ATOM      2  O   UNL     1      32.574 -10.801 -24.750  0.00  0.00    -0.246 OA
ATOM      3  N   UNL     1      32.982 -11.861 -22.733  0.00  0.00    -0.244 N 
ATOM      4  N   UNL     1      33.546 -12.903 -24.806  0.00  0.00    -0.279 N 
ATOM      5  C   UNL     1      34.042 -14.041 -24.103  0.00  0.00    +0.069 A 
ATOM      6  C   UNL     1      34.000 -14.072 -22.708  0.00  0.00    +0.073 A 
ATOM      7  C   UNL     1      33.445 -12.933 -21.958  0.00  0.00    +0.266 A 
ATOM      8  C   UNL     1      33.005 -11.789 -24.144  0.00  0.00    +0.334 A 
ATOM      9  C   UNL     1      34.483 -15.183 -21.998  0.00  0.00    +0.014 C 
ATOM     10  C   UNL     1      34.582 -15.154 -24.774  0.00  0.00    +0.018 C 
ATOM     11  C   UNL     1      33.603 -12.898 -26.267  0.00  0.00    +0.135 C 
ATOM     12  C   UNL     1      35.014 -16.274 -22.680  0.00  0.00    +0.042 C 
ATOM     13  C   UNL     1      35.062 -16.259 -24.068  0.00  0.00    +0.010 C 
ENDROOT
BRANCH  12  14
ATOM     14  C   UNL     1      35.504 -17.403 -21.956  0.00  0.00    -0.064 C 
ATOM     15  C   UNL     1      35.922 -18.355 -21.346  0.00  0.00    -0.082 C 
BRANCH  15  16
ATOM     16  C   UNL     1      36.433 -19.514 -20.606  0.00  0.00    +0.103 C 
BRANCH  16  17
ATOM     17  C   UNL     1      35.322 -20.320 -19.984  0.00  0.00    -0.009 C 
ATOM     18  C   UNL     1      34.005 -20.046 -20.326  0.00  0.00    -0.003 C 
ATOM     19  C   UNL     1      35.632 -21.326 -19.080  0.00  0.00    -0.003 C 
ATOM     20  C   UNL     1      32.977 -20.793 -19.752  0.00  0.00    -0.000 C 
ATOM     21  C   UNL     1      34.604 -22.072 -18.505  0.00  0.00    -0.000 C 
ATOM     22  C   UNL     1      33.277 -21.806 -18.841  0.00  0.00    -0.000 C 
ENDBRANCH  16  17
ENDBRANCH  15  16
ENDBRANCH  12  14
BRANCH   3  23
ATOM     23  C   UNL     1      32.424 -10.716 -22.018  0.00  0.00    +0.140 C 
BRANCH  23  24
ATOM     24  C   UNL     1      32.880  -9.410 -22.610  0.00  0.00    +0.001 C 
ATOM     25  C   UNL     1      31.957  -8.391 -22.809  0.00  0.00    -0.002 C 
ATOM     26  C   UNL     1      34.215  -9.240 -22.947  0.00  0.00    -0.002 C 
ATOM     27  C   UNL     1      32.379  -7.180 -23.356  0.00  0.00    +0.006 C 
ATOM     28  C   UNL     1      34.637  -8.028 -23.495  0.00  0.00    +0.006 C 
ATOM     29  C   UNL     1      33.718  -6.998 -23.700  0.00  0.00    +0.075 C 
BRANCH  29  31
ATOM     30  O   UNL     1      35.060  -5.602 -25.105  0.00  0.00    -0.245 OA
ATOM     31  C   UNL     1      34.159  -5.735 -24.271  0.00  0.00    +0.338 C 
BRANCH  31  32
ATOM     32  O   UNL     1      33.462  -4.672 -23.783  0.00  0.00    -0.477 OA
ATOM     33  H   UNL     1      33.437  -3.868 -24.264  0.00  0.00    +0.295 HD
ENDBRANCH  31  32
ENDBRANCH  29  31
ENDBRANCH  23  24
ENDBRANCH   3  23
TORSDOF 7
ENDMDL
MODEL 9
REMARK VINA RESULT:      -9.2      3.324      6.698
REMARK  Name = 10224181
REMARK  7 active torsions:
REMARK  status: ('A' for Active; 'I' for Inactive)
REMARK    1  A    between atoms: N_3  and  C_23
REMARK    2  A    between atoms: C_12  and  C_14
REMARK    3  A    between atoms: C_15  and  C_16
REMARK    4  A    between atoms: C_16  and  C_17
REMARK    5  A    between atoms: C_23  and  C_24
REMARK    6  A    between atoms: C_29  and  C_31
REMARK    7  A    between atoms: C_31  and  O_32
REMARK                            x       y       z     vdW  Elec       q    Type
REMARK                         _______ _______ _______ _____ _____    ______ ____
ROOT
ATOM      1  O   UNL     1      32.931 -23.920 -16.275  0.00  0.00    -0.267 OA
ATOM      2  O   UNL     1      34.026 -24.719 -11.829  0.00  0.00    -0.246 OA
ATOM      3  N   UNL     1      33.456 -24.337 -14.039  0.00  0.00    -0.244 N 
ATOM      4  N   UNL     1      35.465 -23.437 -13.115  0.00  0.00    -0.279 N 
ATOM      5  C   UNL     1      35.778 -22.837 -14.371  0.00  0.00    +0.069 A 
ATOM      6  C   UNL     1      34.914 -23.000 -15.455  0.00  0.00    +0.073 A 
ATOM      7  C   UNL     1      33.679 -23.788 -15.308  0.00  0.00    +0.266 A 
ATOM      8  C   UNL     1      34.302 -24.198 -12.916  0.00  0.00    +0.334 A 
ATOM      9  C   UNL     1      35.205 -22.417 -16.700  0.00  0.00    +0.014 C 
ATOM     10  C   UNL     1      36.945 -22.075 -14.562  0.00  0.00    +0.018 C 
ATOM     11  C   UNL     1      36.388 -23.252 -11.996  0.00  0.00    +0.135 C 
ATOM     12  C   UNL     1      36.365 -21.667 -16.869  0.00  0.00    +0.042 C 
ATOM     13  C   UNL     1      37.234 -21.496 -15.800  0.00  0.00    +0.010 C 
ENDROOT
BRANCH  12  14
ATOM     14  C   UNL     1      36.658 -21.075 -18.135  0.00  0.00    -0.064 C 
ATOM     15  C   UNL     1      36.902 -20.577 -19.205  0.00  0.00    -0.082 C 
BRANCH  15  16
ATOM     16  C   UNL     1      37.197 -19.972 -20.509  0.00  0.00    +0.103 C 
BRANCH  16  17
ATOM     17  C   UNL     1      35.941 -19.654 -21.279  0.00  0.00    -0.009 C 
ATOM     18  C   UNL     1      36.036 -18.997 -22.497  0.00  0.00    -0.003 C 
ATOM     19  C   UNL     1      34.710 -20.023 -20.758  0.00  0.00    -0.003 C 
ATOM     20  C   UNL     1      34.874 -18.703 -23.210  0.00  0.00    -0.000 C 
ATOM     21  C   UNL     1      33.547 -19.729 -21.471  0.00  0.00    -0.000 C 
ATOM     22  C   UNL     1      33.629 -19.069 -22.696  0.00  0.00    -0.000 C 
ENDBRANCH  16  17
ENDBRANCH  15  16
ENDBRANCH  12  14
BRANCH   3  23
ATOM     23  C   UNL     1      32.238 -25.124 -13.861  0.00  0.00    +0.140 C 
BRANCH  23  24
ATOM     24  C   UNL     1      31.018 -24.387 -14.344  0.00  0.00    +0.001 C 
ATOM     25  C   UNL     1      30.829 -23.062 -13.975  0.00  0.00    -0.002 C 
ATOM     26  C   UNL     1      30.100 -25.042 -15.154  0.00  0.00    -0.002 C 
ATOM     27  C   UNL     1      29.699 -22.379 -14.423  0.00  0.00    +0.006 C 
ATOM     28  C   UNL     1      28.969 -24.359 -15.602  0.00  0.00    +0.006 C 
ATOM     29  C   UNL     1      28.769 -23.027 -15.236  0.00  0.00    +0.075 C 
BRANCH  29  31
ATOM     30  O   UNL     1      27.518 -21.661 -16.750  0.00  0.00    -0.245 OA
ATOM     31  C   UNL     1      27.590 -22.314 -15.705  0.00  0.00    +0.338 C 
BRANCH  31  32
ATOM     32  O   UNL     1      26.535 -22.437 -14.853  0.00  0.00    -0.477 OA
ATOM     33  H   UNL     1      25.763 -22.891 -15.128  0.00  0.00    +0.295 HD
ENDBRANCH  31  32
ENDBRANCH  29  31
ENDBRANCH  23  24
ENDBRANCH   3  23
TORSDOF 7
ENDMDL
