MODEL 1
REMARK VINA RESULT:     -10.7      0.000      0.000
REMARK  Name = 657140
REMARK  9 active torsions:
REMARK  status: ('A' for Active; 'I' for Inactive)
REMARK    1  A    between atoms: C_1  and  N_8
REMARK    2  A    between atoms: C_2  and  O_20
REMARK    3  A    between atoms: C_9  and  C_11
REMARK    4  A    between atoms: C_14  and  N_19
REMARK    5  A    between atoms: O_20  and  C_21
REMARK    6  A    between atoms: C_22  and  C_28
REMARK    7  A    between atoms: C_24  and  C_32
REMARK    8  A    between atoms: C_28  and  O_29
REMARK    9  A    between atoms: C_32  and  O_33
REMARK                            x       y       z     vdW  Elec       q    Type
REMARK                         _______ _______ _______ _____ _____    ______ ____
ROOT
ATOM      1  C   UNL     1      31.621 -23.318 -15.765  0.00  0.00    +0.086 C 
ATOM      2  C   UNL     1      32.364 -23.543 -14.618  0.00  0.00    +0.159 C 
ATOM      3  C   UNL     1      30.351 -23.849 -15.919  0.00  0.00    +0.018 C 
ATOM      4  C   UNL     1      31.822 -24.323 -13.597  0.00  0.00    +0.039 C 
ATOM      5  C   UNL     1      29.809 -24.630 -14.898  0.00  0.00    +0.001 C 
ATOM      6  C   UNL     1      30.545 -24.866 -13.736  0.00  0.00    +0.003 C 
ENDROOT
BRANCH   1   8
ATOM      7  O   UNL     1      33.576 -24.025 -17.925  0.00  0.00    -0.270 OA
ATOM      8  N   UNL     1      32.156 -22.526 -16.811  0.00  0.00    -0.278 N 
ATOM      9  C   UNL     1      33.073 -22.897 -17.805  0.00  0.00    +0.250 C 
ATOM     10  H   UNL     1      31.844 -21.593 -16.844  0.00  0.00    +0.155 HD
BRANCH   9  11
ATOM     11  C   UNL     1      33.461 -21.848 -18.734  0.00  0.00    +0.055 C 
ATOM     12  C   UNL     1      34.793 -21.443 -18.812  0.00  0.00    +0.029 C 
ATOM     13  C   UNL     1      32.501 -21.247 -19.549  0.00  0.00    +0.005 C 
ATOM     14  C   UNL     1      35.166 -20.438 -19.705  0.00  0.00    +0.143 C 
ATOM     15  C   UNL     1      32.873 -20.241 -20.440  0.00  0.00    +0.002 C 
ATOM     16  C   UNL     1      34.205 -19.837 -20.518  0.00  0.00    +0.024 C 
BRANCH  14  19
ATOM     17  O   UNL     1      37.277 -20.221 -18.803  0.00  0.00    -0.126 OA
ATOM     18  O   UNL     1      36.930 -19.478 -20.839  0.00  0.00    -0.126 OA
ATOM     19  N   UNL     1      36.522 -20.026 -19.786  0.00  0.00    +0.058 N 
ENDBRANCH  14  19
ENDBRANCH   9  11
ENDBRANCH   1   8
BRANCH   2  20
ATOM     20  O   UNL     1      33.613 -23.021 -14.462  0.00  0.00    -0.452 OA
BRANCH  20  21
ATOM     21  C   UNL     1      34.580 -23.831 -13.892  0.00  0.00    +0.146 C 
ATOM     22  C   UNL     1      35.819 -24.536 -11.966  0.00  0.00    +0.085 C 
ATOM     23  C   UNL     1      34.845 -23.718 -12.539  0.00  0.00    +0.044 C 
ATOM     24  C   UNL     1      36.512 -25.453 -12.755  0.00  0.00    +0.082 C 
ATOM     25  C   UNL     1      35.257 -24.736 -14.691  0.00  0.00    +0.038 C 
ATOM     26  C   UNL     1      36.231 -25.553 -14.117  0.00  0.00    +0.010 C 
BRANCH  22  28
ATOM     27  O   UNL     1      36.906 -23.632 -10.036  0.00  0.00    -0.245 OA
ATOM     28  C   UNL     1      36.089 -24.407 -10.540  0.00  0.00    +0.338 C 
BRANCH  28  29
ATOM     29  O   UNL     1      35.329 -25.249  -9.790  0.00  0.00    -0.477 OA
ATOM     30  H   UNL     1      35.621 -26.125  -9.629  0.00  0.00    +0.295 HD
ENDBRANCH  28  29
ENDBRANCH  22  28
BRANCH  24  32
ATOM     31  O   UNL     1      37.343 -27.174 -11.315  0.00  0.00    -0.245 OA
ATOM     32  C   UNL     1      37.535 -26.320 -12.187  0.00  0.00    +0.338 C 
BRANCH  32  33
ATOM     33  O   UNL     1      38.763 -26.094 -12.725  0.00  0.00    -0.477 OA
ATOM     34  H   UNL     1      39.191 -25.272 -12.586  0.00  0.00    +0.295 HD
ENDBRANCH  32  33
ENDBRANCH  24  32
ENDBRANCH  20  21
ENDBRANCH   2  20
TORSDOF 9
ENDMDL
MODEL 2
REMARK VINA RESULT:     -10.4      3.124      8.625
REMARK  Name = 657140
REMARK  9 active torsions:
REMARK  status: ('A' for Active; 'I' for Inactive)
REMARK    1  A    between atoms: C_1  and  N_8
REMARK    2  A    between atoms: C_2  and  O_20
REMARK    3  A    between atoms: C_9  and  C_11
REMARK    4  A    between atoms: C_14  and  N_19
REMARK    5  A    between atoms: O_20  and  C_21
REMARK    6  A    between atoms: C_22  and  C_28
REMARK    7  A    between atoms: C_24  and  C_32
REMARK    8  A    between atoms: C_28  and  O_29
REMARK    9  A    between atoms: C_32  and  O_33
REMARK                            x       y       z     vdW  Elec       q    Type
REMARK                         _______ _______ _______ _____ _____    ______ ____
ROOT
ATOM      1  C   UNL     1      34.745 -22.783 -16.005  0.00  0.00    +0.086 C 
ATOM      2  C   UNL     1      35.225 -22.410 -17.249  0.00  0.00    +0.159 C 
ATOM      3  C   UNL     1      35.553 -22.749 -14.880  0.00  0.00    +0.018 C 
ATOM      4  C   UNL     1      36.549 -21.991 -17.372  0.00  0.00    +0.039 C 
ATOM      5  C   UNL     1      36.877 -22.330 -15.003  0.00  0.00    +0.001 C 
ATOM      6  C   UNL     1      37.376 -21.951 -16.250  0.00  0.00    +0.003 C 
ENDROOT
BRANCH   1   8
ATOM      7  O   UNL     1      32.936 -22.723 -13.616  0.00  0.00    -0.270 OA
ATOM      8  N   UNL     1      33.402 -23.210 -15.863  0.00  0.00    -0.278 N 
ATOM      9  C   UNL     1      32.588 -23.164 -14.722  0.00  0.00    +0.250 C 
ATOM     10  H   UNL     1      32.986 -23.589 -16.671  0.00  0.00    +0.155 HD
BRANCH   9  11
ATOM     11  C   UNL     1      31.247 -23.707 -14.877  0.00  0.00    +0.055 C 
ATOM     12  C   UNL     1      30.314 -23.042 -15.672  0.00  0.00    +0.029 C 
ATOM     13  C   UNL     1      30.896 -24.893 -14.233  0.00  0.00    +0.005 C 
ATOM     14  C   UNL     1      29.029 -23.564 -15.823  0.00  0.00    +0.143 C 
ATOM     15  C   UNL     1      29.612 -25.414 -14.382  0.00  0.00    +0.002 C 
ATOM     16  C   UNL     1      28.678 -24.750 -15.177  0.00  0.00    +0.024 C 
BRANCH  14  19
ATOM     17  O   UNL     1      27.516 -23.519 -17.563  0.00  0.00    -0.126 OA
ATOM     18  O   UNL     1      27.825 -21.683 -16.399  0.00  0.00    -0.126 OA
ATOM     19  N   UNL     1      28.078 -22.890 -16.633  0.00  0.00    +0.058 N 
ENDBRANCH  14  19
ENDBRANCH   9  11
ENDBRANCH   1   8
BRANCH   2  20
ATOM     20  O   UNL     1      34.434 -22.441 -18.359  0.00  0.00    -0.452 OA
BRANCH  20  21
ATOM     21  C   UNL     1      34.544 -21.391 -19.255  0.00  0.00    +0.146 C 
ATOM     22  C   UNL     1      35.882 -19.722 -20.335  0.00  0.00    +0.085 C 
ATOM     23  C   UNL     1      35.772 -20.779 -19.432  0.00  0.00    +0.044 C 
ATOM     24  C   UNL     1      34.762 -19.293 -21.046  0.00  0.00    +0.082 C 
ATOM     25  C   UNL     1      33.421 -20.980 -19.952  0.00  0.00    +0.038 C 
ATOM     26  C   UNL     1      33.532 -19.922 -20.855  0.00  0.00    +0.010 C 
BRANCH  22  28
ATOM     27  O   UNL     1      37.786 -18.988 -21.583  0.00  0.00    -0.245 OA
ATOM     28  C   UNL     1      37.181 -19.086 -20.512  0.00  0.00    +0.338 C 
BRANCH  28  29
ATOM     29  O   UNL     1      37.681 -18.594 -19.348  0.00  0.00    -0.477 OA
ATOM     30  H   UNL     1      37.409 -17.752 -19.040  0.00  0.00    +0.295 HD
ENDBRANCH  28  29
ENDBRANCH  22  28
BRANCH  24  32
ATOM     31  O   UNL     1      34.589 -18.269 -23.202  0.00  0.00    -0.245 OA
ATOM     32  C   UNL     1      34.844 -18.192 -21.996  0.00  0.00    +0.338 C 
BRANCH  32  33
ATOM     33  O   UNL     1      35.240 -17.031 -21.409  0.00  0.00    -0.477 OA
ATOM     34  H   UNL     1      36.145 -16.891 -21.211  0.00  0.00    +0.295 HD
ENDBRANCH  32  33
ENDBRANCH  24  32
ENDBRANCH  20  21
ENDBRANCH   2  20
TORSDOF 9
ENDMDL
MODEL 3
REMARK VINA RESULT:     -10.3      1.249      1.828
REMARK  Name = 657140
REMARK  9 active torsions:
REMARK  status: ('A' for Active; 'I' for Inactive)
REMARK    1  A    between atoms: C_1  and  N_8
REMARK    2  A    between atoms: C_2  and  O_20
REMARK    3  A    between atoms: C_9  and  C_11
REMARK    4  A    between atoms: C_14  and  N_19
REMARK    5  A    between atoms: O_20  and  C_21
REMARK    6  A    between atoms: C_22  and  C_28
REMARK    7  A    between atoms: C_24  and  C_32
REMARK    8  A    between atoms: C_28  and  O_29
REMARK    9  A    between atoms: C_32  and  O_33
REMARK                            x       y       z     vdW  Elec       q    Type
REMARK                         _______ _______ _______ _____ _____    ______ ____
ROOT
ATOM      1  C   UNL     1      31.820 -23.145 -15.750  0.00  0.00    +0.086 C 
ATOM      2  C   UNL     1      32.181 -23.257 -14.418  0.00  0.00    +0.159 C 
ATOM      3  C   UNL     1      30.623 -23.660 -16.219  0.00  0.00    +0.018 C 
ATOM      4  C   UNL     1      31.322 -23.904 -13.530  0.00  0.00    +0.039 C 
ATOM      5  C   UNL     1      29.763 -24.307 -15.332  0.00  0.00    +0.001 C 
ATOM      6  C   UNL     1      30.113 -24.429 -13.986  0.00  0.00    +0.003 C 
ENDROOT
BRANCH   1   8
ATOM      7  O   UNL     1      33.466 -24.252 -17.998  0.00  0.00    -0.270 OA
ATOM      8  N   UNL     1      32.681 -22.489 -16.664  0.00  0.00    -0.278 N 
ATOM      9  C   UNL     1      33.436 -23.047 -17.706  0.00  0.00    +0.250 C 
ATOM     10  H   UNL     1      32.760 -21.514 -16.553  0.00  0.00    +0.155 HD
BRANCH   9  11
ATOM     11  C   UNL     1      34.256 -22.115 -18.464  0.00  0.00    +0.055 C 
ATOM     12  C   UNL     1      33.695 -21.390 -19.516  0.00  0.00    +0.029 C 
ATOM     13  C   UNL     1      35.601 -21.945 -18.139  0.00  0.00    +0.005 C 
ATOM     14  C   UNL     1      34.481 -20.495 -20.242  0.00  0.00    +0.143 C 
ATOM     15  C   UNL     1      36.387 -21.051 -18.866  0.00  0.00    +0.002 C 
ATOM     16  C   UNL     1      35.827 -20.326 -19.917  0.00  0.00    +0.024 C 
BRANCH  14  19
ATOM     17  O   UNL     1      32.677 -19.844 -21.524  0.00  0.00    -0.126 OA
ATOM     18  O   UNL     1      34.656 -19.032 -22.017  0.00  0.00    -0.126 OA
ATOM     19  N   UNL     1      33.911 -19.755 -21.312  0.00  0.00    +0.058 N 
ENDBRANCH  14  19
ENDBRANCH   9  11
ENDBRANCH   1   8
BRANCH   2  20
ATOM     20  O   UNL     1      33.358 -22.750 -13.951  0.00  0.00    -0.452 OA
BRANCH  20  21
ATOM     21  C   UNL     1      34.369 -23.648 -13.652  0.00  0.00    +0.146 C 
ATOM     22  C   UNL     1      35.822 -24.670 -12.044  0.00  0.00    +0.085 C 
ATOM     23  C   UNL     1      34.804 -23.765 -12.344  0.00  0.00    +0.044 C 
ATOM     24  C   UNL     1      36.389 -25.443 -13.057  0.00  0.00    +0.082 C 
ATOM     25  C   UNL     1      34.918 -24.407 -14.671  0.00  0.00    +0.038 C 
ATOM     26  C   UNL     1      35.937 -25.312 -14.370  0.00  0.00    +0.010 C 
BRANCH  22  28
ATOM     27  O   UNL     1      35.588 -25.198  -9.723  0.00  0.00    -0.245 OA
ATOM     28  C   UNL     1      36.271 -24.784 -10.663  0.00  0.00    +0.338 C 
BRANCH  28  29
ATOM     29  O   UNL     1      37.559 -24.378 -10.501  0.00  0.00    -0.477 OA
ATOM     30  H   UNL     1      38.262 -24.929 -10.780  0.00  0.00    +0.295 HD
ENDBRANCH  28  29
ENDBRANCH  22  28
BRANCH  24  32
ATOM     31  O   UNL     1      38.660 -26.138 -12.774  0.00  0.00    -0.245 OA
ATOM     32  C   UNL     1      37.453 -26.396 -12.776  0.00  0.00    +0.338 C 
BRANCH  32  33
ATOM     33  O   UNL     1      36.976 -27.641 -12.508  0.00  0.00    -0.477 OA
ATOM     34  H   UNL     1      37.047 -27.994 -11.643  0.00  0.00    +0.295 HD
ENDBRANCH  32  33
ENDBRANCH  24  32
ENDBRANCH  20  21
ENDBRANCH   2  20
TORSDOF 9
ENDMDL
MODEL 4
REMARK VINA RESULT:     -10.1      2.487      7.200
REMARK  Name = 657140
REMARK  9 active torsions:
REMARK  status: ('A' for Active; 'I' for Inactive)
REMARK    1  A    between atoms: C_1  and  N_8
REMARK    2  A    between atoms: C_2  and  O_20
REMARK    3  A    between atoms: C_9  and  C_11
REMARK    4  A    between atoms: C_14  and  N_19
REMARK    5  A    between atoms: O_20  and  C_21
REMARK    6  A    between atoms: C_22  and  C_28
REMARK    7  A    between atoms: C_24  and  C_32
REMARK    8  A    between atoms: C_28  and  O_29
REMARK    9  A    between atoms: C_32  and  O_33
REMARK                            x       y       z     vdW  Elec       q    Type
REMARK                         _______ _______ _______ _____ _____    ______ ____
ROOT
ATOM      1  C   UNL     1      36.067 -25.187 -14.249  0.00  0.00    +0.086 C 
ATOM      2  C   UNL     1      36.939 -24.112 -14.284  0.00  0.00    +0.159 C 
ATOM      3  C   UNL     1      36.527 -26.486 -14.110  0.00  0.00    +0.018 C 
ATOM      4  C   UNL     1      38.310 -24.342 -14.180  0.00  0.00    +0.039 C 
ATOM      5  C   UNL     1      37.899 -26.717 -14.005  0.00  0.00    +0.001 C 
ATOM      6  C   UNL     1      38.791 -25.644 -14.040  0.00  0.00    +0.003 C 
ENDROOT
BRANCH   1   8
ATOM      7  O   UNL     1      34.147 -23.955 -12.303  0.00  0.00    -0.270 OA
ATOM      8  N   UNL     1      34.670 -24.970 -14.353  0.00  0.00    -0.278 N 
ATOM      9  C   UNL     1      33.806 -24.388 -13.415  0.00  0.00    +0.250 C 
ATOM     10  H   UNL     1      34.253 -25.268 -15.193  0.00  0.00    +0.155 HD
BRANCH   9  11
ATOM     11  C   UNL     1      32.404 -24.327 -13.797  0.00  0.00    +0.055 C 
ATOM     12  C   UNL     1      32.007 -23.518 -14.862  0.00  0.00    +0.029 C 
ATOM     13  C   UNL     1      31.458 -25.079 -13.102  0.00  0.00    +0.005 C 
ATOM     14  C   UNL     1      30.662 -23.461 -15.230  0.00  0.00    +0.143 C 
ATOM     15  C   UNL     1      30.113 -25.021 -13.469  0.00  0.00    +0.002 C 
ATOM     16  C   UNL     1      29.716 -24.212 -14.533  0.00  0.00    +0.024 C 
BRANCH  14  19
ATOM     17  O   UNL     1      31.125 -22.217 -17.116  0.00  0.00    -0.126 OA
ATOM     18  O   UNL     1      29.040 -22.356 -16.442  0.00  0.00    -0.126 OA
ATOM     19  N   UNL     1      30.256 -22.639 -16.315  0.00  0.00    +0.058 N 
ENDBRANCH  14  19
ENDBRANCH   9  11
ENDBRANCH   1   8
BRANCH   2  20
ATOM     20  O   UNL     1      36.490 -22.832 -14.419  0.00  0.00    -0.452 OA
BRANCH  20  21
ATOM     21  C   UNL     1      36.411 -22.312 -15.700  0.00  0.00    +0.146 C 
ATOM     22  C   UNL     1      35.225 -22.071 -17.768  0.00  0.00    +0.085 C 
ATOM     23  C   UNL     1      35.303 -22.596 -16.478  0.00  0.00    +0.044 C 
ATOM     24  C   UNL     1      36.255 -21.270 -18.259  0.00  0.00    +0.082 C 
ATOM     25  C   UNL     1      37.444 -21.518 -16.170  0.00  0.00    +0.038 C 
ATOM     26  C   UNL     1      37.364 -20.993 -17.460  0.00  0.00    +0.010 C 
BRANCH  22  28
ATOM     27  O   UNL     1      33.803 -23.476 -19.082  0.00  0.00    -0.245 OA
ATOM     28  C   UNL     1      34.053 -22.378 -18.577  0.00  0.00    +0.338 C 
BRANCH  28  29
ATOM     29  O   UNL     1      33.231 -21.306 -18.729  0.00  0.00    -0.477 OA
ATOM     30  H   UNL     1      32.488 -21.202 -18.168  0.00  0.00    +0.295 HD
ENDBRANCH  28  29
ENDBRANCH  22  28
BRANCH  24  32
ATOM     31  O   UNL     1      35.674 -21.243 -20.580  0.00  0.00    -0.245 OA
ATOM     32  C   UNL     1      36.202 -20.707 -19.601  0.00  0.00    +0.338 C 
BRANCH  32  33
ATOM     33  O   UNL     1      36.812 -19.494 -19.678  0.00  0.00    -0.477 OA
ATOM     34  H   UNL     1      37.736 -19.424 -19.541  0.00  0.00    +0.295 HD
ENDBRANCH  32  33
ENDBRANCH  24  32
ENDBRANCH  20  21
ENDBRANCH   2  20
TORSDOF 9
ENDMDL
MODEL 5
REMARK VINA RESULT:     -10.0      2.751      5.905
REMARK  Name = 657140
REMARK  9 active torsions:
REMARK  status: ('A' for Active; 'I' for Inactive)
REMARK    1  A    between atoms: C_1  and  N_8
REMARK    2  A    between atoms: C_2  and  O_20
REMARK    3  A    between atoms: C_9  and  C_11
REMARK    4  A    between atoms: C_14  and  N_19
REMARK    5  A    between atoms: O_20  and  C_21
REMARK    6  A    between atoms: C_22  and  C_28
REMARK    7  A    between atoms: C_24  and  C_32
REMARK    8  A    between atoms: C_28  and  O_29
REMARK    9  A    between atoms: C_32  and  O_33
REMARK                            x       y       z     vdW  Elec       q    Type
REMARK                         _______ _______ _______ _____ _____    ______ ____
ROOT
ATOM      1  C   UNL     1      34.857 -22.280 -17.140  0.00  0.00    +0.086 C 
ATOM      2  C   UNL     1      36.011 -22.233 -16.376  0.00  0.00    +0.159 C 
ATOM      3  C   UNL     1      34.853 -21.885 -18.468  0.00  0.00    +0.018 C 
ATOM      4  C   UNL     1      37.194 -21.774 -16.955  0.00  0.00    +0.039 C 
ATOM      5  C   UNL     1      36.036 -21.427 -19.047  0.00  0.00    +0.001 C 
ATOM      6  C   UNL     1      37.208 -21.372 -18.290  0.00  0.00    +0.003 C 
ENDROOT
BRANCH   1   8
ATOM      7  O   UNL     1      32.016 -21.849 -17.997  0.00  0.00    -0.270 OA
ATOM      8  N   UNL     1      33.647 -22.744 -16.567  0.00  0.00    -0.278 N 
ATOM      9  C   UNL     1      32.333 -22.518 -17.001  0.00  0.00    +0.250 C 
ATOM     10  H   UNL     1      33.742 -23.297 -15.758  0.00  0.00    +0.155 HD
BRANCH   9  11
ATOM     11  C   UNL     1      31.285 -23.107 -16.183  0.00  0.00    +0.055 C 
ATOM     12  C   UNL     1      29.945 -22.862 -16.483  0.00  0.00    +0.029 C 
ATOM     13  C   UNL     1      31.619 -23.919 -15.099  0.00  0.00    +0.005 C 
ATOM     14  C   UNL     1      28.940 -23.429 -15.699  0.00  0.00    +0.143 C 
ATOM     15  C   UNL     1      30.615 -24.486 -14.315  0.00  0.00    +0.002 C 
ATOM     16  C   UNL     1      29.275 -24.240 -14.615  0.00  0.00    +0.024 C 
BRANCH  14  19
ATOM     17  O   UNL     1      26.822 -22.736 -15.106  0.00  0.00    -0.126 OA
ATOM     18  O   UNL     1      27.160 -23.414 -17.166  0.00  0.00    -0.126 OA
ATOM     19  N   UNL     1      27.576 -23.181 -16.005  0.00  0.00    +0.058 N 
ENDBRANCH  14  19
ENDBRANCH   9  11
ENDBRANCH   1   8
BRANCH   2  20
ATOM     20  O   UNL     1      36.020 -22.622 -15.070  0.00  0.00    -0.452 OA
BRANCH  20  21
ATOM     21  C   UNL     1      36.580 -23.853 -14.772  0.00  0.00    +0.146 C 
ATOM     22  C   UNL     1      38.518 -25.211 -14.401  0.00  0.00    +0.085 C 
ATOM     23  C   UNL     1      37.956 -23.971 -14.702  0.00  0.00    +0.044 C 
ATOM     24  C   UNL     1      37.696 -26.314 -14.174  0.00  0.00    +0.082 C 
ATOM     25  C   UNL     1      35.746 -24.935 -14.549  0.00  0.00    +0.038 C 
ATOM     26  C   UNL     1      36.309 -26.176 -14.248  0.00  0.00    +0.010 C 
BRANCH  22  28
ATOM     27  O   UNL     1      40.658 -25.053 -13.343  0.00  0.00    -0.245 OA
ATOM     28  C   UNL     1      39.969 -25.322 -14.331  0.00  0.00    +0.338 C 
BRANCH  28  29
ATOM     29  O   UNL     1      40.512 -25.766 -15.496  0.00  0.00    -0.477 OA
ATOM     30  H   UNL     1      41.240 -26.355 -15.479  0.00  0.00    +0.295 HD
ENDBRANCH  28  29
ENDBRANCH  22  28
BRANCH  24  32
ATOM     31  O   UNL     1      38.911 -28.323 -14.632  0.00  0.00    -0.245 OA
ATOM     32  C   UNL     1      38.252 -27.622 -13.858  0.00  0.00    +0.338 C 
BRANCH  32  33
ATOM     33  O   UNL     1      37.967 -28.013 -12.587  0.00  0.00    -0.477 OA
ATOM     34  H   UNL     1      37.457 -27.458 -12.029  0.00  0.00    +0.295 HD
ENDBRANCH  32  33
ENDBRANCH  24  32
ENDBRANCH  20  21
ENDBRANCH   2  20
TORSDOF 9
ENDMDL
MODEL 6
REMARK VINA RESULT:     -10.0      3.015      5.988
REMARK  Name = 657140
REMARK  9 active torsions:
REMARK  status: ('A' for Active; 'I' for Inactive)
REMARK    1  A    between atoms: C_1  and  N_8
REMARK    2  A    between atoms: C_2  and  O_20
REMARK    3  A    between atoms: C_9  and  C_11
REMARK    4  A    between atoms: C_14  and  N_19
REMARK    5  A    between atoms: O_20  and  C_21
REMARK    6  A    between atoms: C_22  and  C_28
REMARK    7  A    between atoms: C_24  and  C_32
REMARK    8  A    between atoms: C_28  and  O_29
REMARK    9  A    between atoms: C_32  and  O_33
REMARK                            x       y       z     vdW  Elec       q    Type
REMARK                         _______ _______ _______ _____ _____    ______ ____
ROOT
ATOM      1  C   UNL     1      35.283 -22.796 -15.675  0.00  0.00    +0.086 C 
ATOM      2  C   UNL     1      36.259 -23.273 -14.816  0.00  0.00    +0.159 C 
ATOM      3  C   UNL     1      35.609 -22.041 -16.790  0.00  0.00    +0.018 C 
ATOM      4  C   UNL     1      37.599 -22.986 -15.079  0.00  0.00    +0.039 C 
ATOM      5  C   UNL     1      36.948 -21.754 -17.053  0.00  0.00    +0.001 C 
ATOM      6  C   UNL     1      37.944 -22.227 -16.197  0.00  0.00    +0.003 C 
ENDROOT
BRANCH   1   8
ATOM      7  O   UNL     1      32.977 -23.062 -17.572  0.00  0.00    -0.270 OA
ATOM      8  N   UNL     1      33.918 -23.079 -15.423  0.00  0.00    -0.278 N 
ATOM      9  C   UNL     1      32.867 -23.195 -16.343  0.00  0.00    +0.250 C 
ATOM     10  H   UNL     1      33.676 -23.212 -14.478  0.00  0.00    +0.155 HD
BRANCH   9  11
ATOM     11  C   UNL     1      31.555 -23.468 -15.777  0.00  0.00    +0.055 C 
ATOM     12  C   UNL     1      30.406 -23.038 -16.440  0.00  0.00    +0.029 C 
ATOM     13  C   UNL     1      31.447 -24.162 -14.572  0.00  0.00    +0.005 C 
ATOM     14  C   UNL     1      29.148 -23.301 -15.898  0.00  0.00    +0.143 C 
ATOM     15  C   UNL     1      30.189 -24.425 -14.029  0.00  0.00    +0.002 C 
ATOM     16  C   UNL     1      29.040 -23.994 -14.692  0.00  0.00    +0.024 C 
BRANCH  14  19
ATOM     17  O   UNL     1      27.465 -23.609 -17.444  0.00  0.00    -0.126 OA
ATOM     18  O   UNL     1      27.488 -21.748 -16.281  0.00  0.00    -0.126 OA
ATOM     19  N   UNL     1      27.978 -22.865 -16.573  0.00  0.00    +0.058 N 
ENDBRANCH  14  19
ENDBRANCH   9  11
ENDBRANCH   1   8
BRANCH   2  20
ATOM     20  O   UNL     1      35.944 -24.017 -13.719  0.00  0.00    -0.452 OA
BRANCH  20  21
ATOM     21  C   UNL     1      36.552 -25.255 -13.587  0.00  0.00    +0.146 C 
ATOM     22  C   UNL     1      37.347 -27.287 -14.576  0.00  0.00    +0.085 C 
ATOM     23  C   UNL     1      36.734 -26.041 -14.710  0.00  0.00    +0.044 C 
ATOM     24  C   UNL     1      37.767 -27.726 -13.321  0.00  0.00    +0.082 C 
ATOM     25  C   UNL     1      36.963 -25.672 -12.333  0.00  0.00    +0.038 C 
ATOM     26  C   UNL     1      37.575 -26.918 -12.200  0.00  0.00    +0.010 C 
BRANCH  22  28
ATOM     27  O   UNL     1      36.821 -29.059 -16.093  0.00  0.00    -0.245 OA
ATOM     28  C   UNL     1      37.533 -28.106 -15.766  0.00  0.00    +0.338 C 
BRANCH  28  29
ATOM     29  O   UNL     1      38.600 -27.708 -16.508  0.00  0.00    -0.477 OA
ATOM     30  H   UNL     1      39.470 -27.896 -16.216  0.00  0.00    +0.295 HD
ENDBRANCH  28  29
ENDBRANCH  22  28
BRANCH  24  32
ATOM     31  O   UNL     1      39.544 -29.313 -13.537  0.00  0.00    -0.245 OA
ATOM     32  C   UNL     1      38.410 -29.021 -13.147  0.00  0.00    +0.338 C 
BRANCH  32  33
ATOM     33  O   UNL     1      37.615 -29.910 -12.493  0.00  0.00    -0.477 OA
ATOM     34  H   UNL     1      37.875 -30.246 -11.659  0.00  0.00    +0.295 HD
ENDBRANCH  32  33
ENDBRANCH  24  32
ENDBRANCH  20  21
ENDBRANCH   2  20
TORSDOF 9
ENDMDL
MODEL 7
REMARK VINA RESULT:      -9.8      1.687      2.338
REMARK  Name = 657140
REMARK  9 active torsions:
REMARK  status: ('A' for Active; 'I' for Inactive)
REMARK    1  A    between atoms: C_1  and  N_8
REMARK    2  A    between atoms: C_2  and  O_20
REMARK    3  A    between atoms: C_9  and  C_11
REMARK    4  A    between atoms: C_14  and  N_19
REMARK    5  A    between atoms: O_20  and  C_21
REMARK    6  A    between atoms: C_22  and  C_28
REMARK    7  A    between atoms: C_24  and  C_32
REMARK    8  A    between atoms: C_28  and  O_29
REMARK    9  A    between atoms: C_32  and  O_33
REMARK                            x       y       z     vdW  Elec       q    Type
REMARK                         _______ _______ _______ _____ _____    ______ ____
ROOT
ATOM      1  C   UNL     1      32.168 -23.338 -15.458  0.00  0.00    +0.086 C 
ATOM      2  C   UNL     1      33.013 -23.449 -14.366  0.00  0.00    +0.159 C 
ATOM      3  C   UNL     1      30.944 -23.987 -15.493  0.00  0.00    +0.018 C 
ATOM      4  C   UNL     1      32.624 -24.232 -13.280  0.00  0.00    +0.039 C 
ATOM      5  C   UNL     1      30.555 -24.770 -14.406  0.00  0.00    +0.001 C 
ATOM      6  C   UNL     1      31.396 -24.892 -13.299  0.00  0.00    +0.003 C 
ENDROOT
BRANCH   1   8
ATOM      7  O   UNL     1      33.557 -24.105 -18.002  0.00  0.00    -0.270 OA
ATOM      8  N   UNL     1      32.547 -22.545 -16.569  0.00  0.00    -0.278 N 
ATOM      9  C   UNL     1      33.198 -22.945 -17.745  0.00  0.00    +0.250 C 
ATOM     10  H   UNL     1      32.324 -21.588 -16.507  0.00  0.00    +0.155 HD
BRANCH   9  11
ATOM     11  C   UNL     1      33.483 -21.888 -18.703  0.00  0.00    +0.055 C 
ATOM     12  C   UNL     1      34.798 -21.474 -18.913  0.00  0.00    +0.029 C 
ATOM     13  C   UNL     1      32.441 -21.291 -19.412  0.00  0.00    +0.005 C 
ATOM     14  C   UNL     1      35.071 -20.462 -19.834  0.00  0.00    +0.143 C 
ATOM     15  C   UNL     1      32.713 -20.279 -20.332  0.00  0.00    +0.002 C 
ATOM     16  C   UNL     1      34.028 -19.865 -20.543  0.00  0.00    +0.024 C 
BRANCH  14  19
ATOM     17  O   UNL     1      37.325 -20.898 -20.049  0.00  0.00    -0.126 OA
ATOM     18  O   UNL     1      36.640 -18.821 -20.238  0.00  0.00    -0.126 OA
ATOM     19  N   UNL     1      36.409 -20.040 -20.051  0.00  0.00    +0.058 N 
ENDBRANCH  14  19
ENDBRANCH   9  11
ENDBRANCH   1   8
BRANCH   2  20
ATOM     20  O   UNL     1      34.217 -22.811 -14.327  0.00  0.00    -0.452 OA
BRANCH  20  21
ATOM     21  C   UNL     1      35.355 -23.595 -14.242  0.00  0.00    +0.146 C 
ATOM     22  C   UNL     1      36.456 -25.693 -14.602  0.00  0.00    +0.085 C 
ATOM     23  C   UNL     1      35.308 -24.905 -14.686  0.00  0.00    +0.044 C 
ATOM     24  C   UNL     1      37.632 -25.159 -14.075  0.00  0.00    +0.082 C 
ATOM     25  C   UNL     1      36.512 -23.047 -13.717  0.00  0.00    +0.038 C 
ATOM     26  C   UNL     1      37.660 -23.836 -13.633  0.00  0.00    +0.010 C 
BRANCH  22  28
ATOM     27  O   UNL     1      36.449 -27.423 -16.253  0.00  0.00    -0.245 OA
ATOM     28  C   UNL     1      36.394 -27.070 -15.072  0.00  0.00    +0.338 C 
BRANCH  28  29
ATOM     29  O   UNL     1      36.265 -27.961 -14.053  0.00  0.00    -0.477 OA
ATOM     30  H   UNL     1      35.445 -28.387 -13.903  0.00  0.00    +0.295 HD
ENDBRANCH  28  29
ENDBRANCH  22  28
BRANCH  24  32
ATOM     31  O   UNL     1      39.780 -25.940 -14.779  0.00  0.00    -0.245 OA
ATOM     32  C   UNL     1      38.846 -25.956 -13.972  0.00  0.00    +0.338 C 
BRANCH  32  33
ATOM     33  O   UNL     1      38.854 -26.747 -12.866  0.00  0.00    -0.477 OA
ATOM     34  H   UNL     1      39.608 -26.767 -12.309  0.00  0.00    +0.295 HD
ENDBRANCH  32  33
ENDBRANCH  24  32
ENDBRANCH  20  21
ENDBRANCH   2  20
TORSDOF 9
ENDMDL
MODEL 8
REMARK VINA RESULT:      -9.8      1.856      2.870
REMARK  Name = 657140
REMARK  9 active torsions:
REMARK  status: ('A' for Active; 'I' for Inactive)
REMARK    1  A    between atoms: C_1  and  N_8
REMARK    2  A    between atoms: C_2  and  O_20
REMARK    3  A    between atoms: C_9  and  C_11
REMARK    4  A    between atoms: C_14  and  N_19
REMARK    5  A    between atoms: O_20  and  C_21
REMARK    6  A    between atoms: C_22  and  C_28
REMARK    7  A    between atoms: C_24  and  C_32
REMARK    8  A    between atoms: C_28  and  O_29
REMARK    9  A    between atoms: C_32  and  O_33
REMARK                            x       y       z     vdW  Elec       q    Type
REMARK                         _______ _______ _______ _____ _____    ______ ____
ROOT
ATOM      1  C   UNL     1      32.244 -23.325 -14.991  0.00  0.00    +0.086 C 
ATOM      2  C   UNL     1      32.576 -24.475 -14.294  0.00  0.00    +0.159 C 
ATOM      3  C   UNL     1      31.024 -22.695 -14.807  0.00  0.00    +0.018 C 
ATOM      4  C   UNL     1      31.660 -25.011 -13.389  0.00  0.00    +0.039 C 
ATOM      5  C   UNL     1      30.108 -23.232 -13.902  0.00  0.00    +0.001 C 
ATOM      6  C   UNL     1      30.427 -24.390 -13.192  0.00  0.00    +0.003 C 
ENDROOT
BRANCH   1   8
ATOM      7  O   UNL     1      31.936 -22.722 -17.912  0.00  0.00    -0.270 OA
ATOM      8  N   UNL     1      33.164 -22.766 -15.913  0.00  0.00    -0.278 N 
ATOM      9  C   UNL     1      32.979 -22.500 -17.277  0.00  0.00    +0.250 C 
ATOM     10  H   UNL     1      34.049 -22.536 -15.548  0.00  0.00    +0.155 HD
BRANCH   9  11
ATOM     11  C   UNL     1      34.127 -21.945 -17.976  0.00  0.00    +0.055 C 
ATOM     12  C   UNL     1      33.940 -21.191 -19.135  0.00  0.00    +0.029 C 
ATOM     13  C   UNL     1      35.414 -22.164 -17.487  0.00  0.00    +0.005 C 
ATOM     14  C   UNL     1      35.041 -20.656 -19.804  0.00  0.00    +0.143 C 
ATOM     15  C   UNL     1      36.516 -21.630 -18.156  0.00  0.00    +0.002 C 
ATOM     16  C   UNL     1      36.328 -20.877 -19.315  0.00  0.00    +0.024 C 
BRANCH  14  19
ATOM     17  O   UNL     1      33.701 -19.803 -21.476  0.00  0.00    -0.126 OA
ATOM     18  O   UNL     1      35.840 -19.314 -21.501  0.00  0.00    -0.126 OA
ATOM     19  N   UNL     1      34.852 -19.888 -20.983  0.00  0.00    +0.058 N 
ENDBRANCH  14  19
ENDBRANCH   9  11
ENDBRANCH   1   8
BRANCH   2  20
ATOM     20  O   UNL     1      33.776 -25.097 -14.470  0.00  0.00    -0.452 OA
BRANCH  20  21
ATOM     21  C   UNL     1      34.868 -24.587 -13.788  0.00  0.00    +0.146 C 
ATOM     22  C   UNL     1      37.180 -23.958 -13.758  0.00  0.00    +0.085 C 
ATOM     23  C   UNL     1      36.080 -24.472 -14.445  0.00  0.00    +0.044 C 
ATOM     24  C   UNL     1      37.050 -23.568 -12.425  0.00  0.00    +0.082 C 
ATOM     25  C   UNL     1      34.719 -24.205 -12.466  0.00  0.00    +0.038 C 
ATOM     26  C   UNL     1      35.819 -23.692 -11.780  0.00  0.00    +0.010 C 
BRANCH  22  28
ATOM     27  O   UNL     1      38.697 -23.033 -15.360  0.00  0.00    -0.245 OA
ATOM     28  C   UNL     1      38.451 -23.841 -14.460  0.00  0.00    +0.338 C 
BRANCH  28  29
ATOM     29  O   UNL     1      39.373 -24.737 -14.016  0.00  0.00    -0.477 OA
ATOM     30  H   UNL     1      39.953 -25.151 -14.623  0.00  0.00    +0.295 HD
ENDBRANCH  28  29
ENDBRANCH  22  28
BRANCH  24  32
ATOM     31  O   UNL     1      39.115 -23.691 -11.224  0.00  0.00    -0.245 OA
ATOM     32  C   UNL     1      38.179 -23.028 -11.680  0.00  0.00    +0.338 C 
BRANCH  32  33
ATOM     33  O   UNL     1      38.102 -21.679 -11.528  0.00  0.00    -0.477 OA
ATOM     34  H   UNL     1      37.855 -21.139 -12.253  0.00  0.00    +0.295 HD
ENDBRANCH  32  33
ENDBRANCH  24  32
ENDBRANCH  20  21
ENDBRANCH   2  20
TORSDOF 9
ENDMDL
MODEL 9
REMARK VINA RESULT:      -9.7      2.676      5.828
REMARK  Name = 657140
REMARK  9 active torsions:
REMARK  status: ('A' for Active; 'I' for Inactive)
REMARK    1  A    between atoms: C_1  and  N_8
REMARK    2  A    between atoms: C_2  and  O_20
REMARK    3  A    between atoms: C_9  and  C_11
REMARK    4  A    between atoms: C_14  and  N_19
REMARK    5  A    between atoms: O_20  and  C_21
REMARK    6  A    between atoms: C_22  and  C_28
REMARK    7  A    between atoms: C_24  and  C_32
REMARK    8  A    between atoms: C_28  and  O_29
REMARK    9  A    between atoms: C_32  and  O_33
REMARK                            x       y       z     vdW  Elec       q    Type
REMARK                         _______ _______ _______ _____ _____    ______ ____
ROOT
ATOM      1  C   UNL     1      34.595 -22.334 -17.383  0.00  0.00    +0.086 C 
ATOM      2  C   UNL     1      35.788 -22.134 -16.708  0.00  0.00    +0.159 C 
ATOM      3  C   UNL     1      34.474 -22.055 -18.734  0.00  0.00    +0.018 C 
ATOM      4  C   UNL     1      36.890 -21.639 -17.405  0.00  0.00    +0.039 C 
ATOM      5  C   UNL     1      35.576 -21.560 -19.431  0.00  0.00    +0.001 C 
ATOM      6  C   UNL     1      36.785 -21.353 -18.766  0.00  0.00    +0.003 C 
ENDROOT
BRANCH   1   8
ATOM      7  O   UNL     1      31.676 -21.764 -17.761  0.00  0.00    -0.270 OA
ATOM      8  N   UNL     1      33.466 -22.837 -16.690  0.00  0.00    -0.278 N 
ATOM      9  C   UNL     1      32.111 -22.543 -16.899  0.00  0.00    +0.250 C 
ATOM     10  H   UNL     1      33.659 -23.477 -15.966  0.00  0.00    +0.155 HD
BRANCH   9  11
ATOM     11  C   UNL     1      31.174 -23.201 -16.003  0.00  0.00    +0.055 C 
ATOM     12  C   UNL     1      31.591 -23.610 -14.736  0.00  0.00    +0.029 C 
ATOM     13  C   UNL     1      29.858 -23.419 -16.408  0.00  0.00    +0.005 C 
ATOM     14  C   UNL     1      30.691 -24.238 -13.875  0.00  0.00    +0.143 C 
ATOM     15  C   UNL     1      28.958 -24.049 -15.548  0.00  0.00    +0.002 C 
ATOM     16  C   UNL     1      29.375 -24.458 -14.281  0.00  0.00    +0.024 C 
BRANCH  14  19
ATOM     17  O   UNL     1      32.290 -25.064 -12.433  0.00  0.00    -0.126 OA
ATOM     18  O   UNL     1      30.300 -24.600 -11.631  0.00  0.00    -0.126 OA
ATOM     19  N   UNL     1      31.114 -24.654 -12.585  0.00  0.00    +0.058 N 
ENDBRANCH  14  19
ENDBRANCH   9  11
ENDBRANCH   1   8
BRANCH   2  20
ATOM     20  O   UNL     1      35.913 -22.408 -15.379  0.00  0.00    -0.452 OA
BRANCH  20  21
ATOM     21  C   UNL     1      36.447 -23.635 -15.025  0.00  0.00    +0.146 C 
ATOM     22  C   UNL     1      38.357 -25.004 -14.556  0.00  0.00    +0.085 C 
ATOM     23  C   UNL     1      37.820 -23.767 -14.913  0.00  0.00    +0.044 C 
ATOM     24  C   UNL     1      37.513 -26.088 -14.315  0.00  0.00    +0.082 C 
ATOM     25  C   UNL     1      35.594 -24.699 -14.790  0.00  0.00    +0.038 C 
ATOM     26  C   UNL     1      36.132 -25.935 -14.432  0.00  0.00    +0.010 C 
BRANCH  22  28
ATOM     27  O   UNL     1      40.468 -24.845 -13.442  0.00  0.00    -0.245 OA
ATOM     28  C   UNL     1      39.804 -25.130 -14.442  0.00  0.00    +0.338 C 
BRANCH  28  29
ATOM     29  O   UNL     1      40.374 -25.610 -15.579  0.00  0.00    -0.477 OA
ATOM     30  H   UNL     1      40.029 -25.365 -16.415  0.00  0.00    +0.295 HD
ENDBRANCH  28  29
ENDBRANCH  22  28
BRANCH  24  32
ATOM     31  O   UNL     1      38.083 -27.842 -12.792  0.00  0.00    -0.245 OA
ATOM     32  C   UNL     1      38.043 -27.391 -13.940  0.00  0.00    +0.338 C 
BRANCH  32  33
ATOM     33  O   UNL     1      38.507 -28.090 -15.012  0.00  0.00    -0.477 OA
ATOM     34  H   UNL     1      38.485 -27.706 -15.866  0.00  0.00    +0.295 HD
ENDBRANCH  32  33
ENDBRANCH  24  32
ENDBRANCH  20  21
ENDBRANCH   2  20
TORSDOF 9
ENDMDL
