MODEL 1
REMARK VINA RESULT:     -12.7      0.000      0.000
REMARK  Name = 11697676
REMARK  7 active torsions:
REMARK  status: ('A' for Active; 'I' for Inactive)
REMARK    1  A    between atoms: N_1  and  C_18
REMARK    2  A    between atoms: N_2  and  C_8
REMARK    3  A    between atoms: C_18  and  C_19
REMARK    4  A    between atoms: C_19  and  C_20
REMARK    5  A    between atoms: C_20  and  C_21
REMARK    6  A    between atoms: C_21  and  O_22
REMARK    7  A    between atoms: O_22  and  C_28
REMARK                            x       y       z     vdW  Elec       q    Type
REMARK                         _______ _______ _______ _____ _____    ______ ____
ROOT
ATOM      1  N   UNL     1      34.736 -15.456 -23.698  0.00  0.00    +0.389 N 
ATOM      2  N   UNL     1      33.402 -13.090 -22.817  0.00  0.00    -0.312 N 
ATOM      3  C   UNL     1      33.573 -14.943 -24.432  0.00  0.00    -0.055 C 
ATOM      4  C   UNL     1      34.584 -15.178 -22.264  0.00  0.00    -0.055 C 
ATOM      5  C   UNL     1      33.429 -13.431 -24.244  0.00  0.00    +0.068 C 
ATOM      6  C   UNL     1      34.473 -13.674 -22.004  0.00  0.00    +0.068 C 
ATOM      7  H   UNL     1      35.575 -14.985 -24.038  0.00  0.00    -0.080 HD
ENDROOT
BRANCH   2   8
ATOM      8  C   UNL     1      32.839 -11.864 -22.444  0.00  0.00    +0.048 C 
ATOM      9  C   UNL     1      33.343 -10.614 -22.902  0.00  0.00    +0.013 C 
ATOM     10  C   UNL     1      31.723 -11.858 -21.579  0.00  0.00    +0.015 C 
ATOM     11  C   UNL     1      32.736  -9.403 -22.494  0.00  0.00    +0.001 C 
ATOM     12  C   UNL     1      34.451 -10.571 -23.763  0.00  0.00    +0.001 C 
ATOM     13  C   UNL     1      31.125 -10.666 -21.179  0.00  0.00    +0.001 C 
ATOM     14  C   UNL     1      31.627  -9.447 -21.633  0.00  0.00    +0.000 C 
ATOM     15  C   UNL     1      33.254  -8.184 -22.960  0.00  0.00    +0.000 C 
ATOM     16  C   UNL     1      34.953  -9.351 -24.217  0.00  0.00    +0.000 C 
ATOM     17  C   UNL     1      34.355  -8.159 -23.816  0.00  0.00    +0.000 C 
ENDBRANCH   2   8
BRANCH   1  18
ATOM     18  C   UNL     1      34.896 -16.892 -23.928  0.00  0.00    -0.077 C 
BRANCH  18  19
ATOM     19  C   UNL     1      35.302 -17.595 -22.635  0.00  0.00    -0.019 C 
BRANCH  19  20
ATOM     20  C   UNL     1      34.755 -19.021 -22.586  0.00  0.00    +0.045 C 
BRANCH  20  21
ATOM     21  C   UNL     1      34.999 -19.671 -21.231  0.00  0.00    +0.208 C 
BRANCH  21  22
ATOM     22  O   UNL     1      33.770 -20.136 -20.691  0.00  0.00    -0.452 OA
BRANCH  22  28
ATOM     23  O   UNL     1      30.384 -23.470 -15.577  0.00  0.00    -0.275 OA
ATOM     24  N   UNL     1      31.537 -22.432 -17.271  0.00  0.00    -0.263 N 
ATOM     25  N   UNL     1      32.675 -21.276 -18.993  0.00  0.00    -0.357 NA
ATOM     26  C   UNL     1      33.949 -22.507 -17.348  0.00  0.00    +0.090 C 
ATOM     27  C   UNL     1      33.948 -23.457 -16.189  0.00  0.00    +0.022 C 
ATOM     28  C   UNL     1      33.844 -20.928 -19.574  0.00  0.00    +0.278 C 
ATOM     29  C   UNL     1      32.745 -22.050 -17.884  0.00  0.00    +0.170 C 
ATOM     30  C   UNL     1      32.750 -23.207 -15.287  0.00  0.00    +0.086 C 
ATOM     31  C   UNL     1      35.133 -22.136 -17.988  0.00  0.00    -0.012 C 
ATOM     32  C   UNL     1      35.087 -21.325 -19.115  0.00  0.00    +0.068 C 
ATOM     33  C   UNL     1      31.451 -23.088 -16.058  0.00  0.00    +0.228 C 
ATOM     34  H   UNL     1      30.697 -22.217 -17.737  0.00  0.00    +0.157 HD
ENDBRANCH  22  28
ENDBRANCH  21  22
ENDBRANCH  20  21
ENDBRANCH  19  20
ENDBRANCH  18  19
ENDBRANCH   1  18
TORSDOF 7
ENDMDL
MODEL 2
REMARK VINA RESULT:     -12.3      0.500      2.111
REMARK  Name = 11697676
REMARK  7 active torsions:
REMARK  status: ('A' for Active; 'I' for Inactive)
REMARK    1  A    between atoms: N_1  and  C_18
REMARK    2  A    between atoms: N_2  and  C_8
REMARK    3  A    between atoms: C_18  and  C_19
REMARK    4  A    between atoms: C_19  and  C_20
REMARK    5  A    between atoms: C_20  and  C_21
REMARK    6  A    between atoms: C_21  and  O_22
REMARK    7  A    between atoms: O_22  and  C_28
REMARK                            x       y       z     vdW  Elec       q    Type
REMARK                         _______ _______ _______ _____ _____    ______ ____
ROOT
ATOM      1  N   UNL     1      34.020 -15.718 -23.754  0.00  0.00    +0.389 N 
ATOM      2  N   UNL     1      33.978 -12.866 -23.611  0.00  0.00    -0.312 N 
ATOM      3  C   UNL     1      34.937 -15.006 -22.855  0.00  0.00    -0.055 C 
ATOM      4  C   UNL     1      33.782 -14.916 -24.961  0.00  0.00    -0.055 C 
ATOM      5  C   UNL     1      34.354 -13.656 -22.432  0.00  0.00    +0.068 C 
ATOM      6  C   UNL     1      33.161 -13.563 -24.608  0.00  0.00    +0.068 C 
ATOM      7  H   UNL     1      33.132 -15.861 -23.272  0.00  0.00    -0.080 HD
ENDROOT
BRANCH   2   8
ATOM      8  C   UNL     1      33.858 -11.479 -23.462  0.00  0.00    +0.048 C 
ATOM      9  C   UNL     1      32.966 -10.879 -22.530  0.00  0.00    +0.013 C 
ATOM     10  C   UNL     1      34.653 -10.634 -24.267  0.00  0.00    +0.015 C 
ATOM     11  C   UNL     1      32.884  -9.471 -22.420  0.00  0.00    +0.001 C 
ATOM     12  C   UNL     1      32.157 -11.681 -21.709  0.00  0.00    +0.001 C 
ATOM     13  C   UNL     1      34.573  -9.248 -24.158  0.00  0.00    +0.001 C 
ATOM     14  C   UNL     1      33.695  -8.670 -23.241  0.00  0.00    +0.000 C 
ATOM     15  C   UNL     1      31.995  -8.905 -21.492  0.00  0.00    +0.000 C 
ATOM     16  C   UNL     1      31.279 -11.102 -20.792  0.00  0.00    +0.000 C 
ATOM     17  C   UNL     1      31.198  -9.716 -20.684  0.00  0.00    +0.000 C 
ENDBRANCH   2   8
BRANCH   1  18
ATOM     18  C   UNL     1      34.563 -17.029 -24.108  0.00  0.00    -0.077 C 
BRANCH  18  19
ATOM     19  C   UNL     1      35.187 -17.693 -22.882  0.00  0.00    -0.019 C 
BRANCH  19  20
ATOM     20  C   UNL     1      34.644 -19.107 -22.683  0.00  0.00    +0.045 C 
BRANCH  20  21
ATOM     21  C   UNL     1      34.884 -19.608 -21.265  0.00  0.00    +0.208 C 
BRANCH  21  22
ATOM     22  O   UNL     1      33.680 -20.143 -20.733  0.00  0.00    -0.452 OA
BRANCH  22  28
ATOM     23  O   UNL     1      30.470 -23.485 -15.512  0.00  0.00    -0.275 OA
ATOM     24  N   UNL     1      31.566 -22.444 -17.242  0.00  0.00    -0.263 N 
ATOM     25  N   UNL     1      32.644 -21.286 -19.000  0.00  0.00    -0.357 NA
ATOM     26  C   UNL     1      33.975 -22.497 -17.386  0.00  0.00    +0.090 C 
ATOM     27  C   UNL     1      34.015 -23.442 -16.223  0.00  0.00    +0.022 C 
ATOM     28  C   UNL     1      33.793 -20.929 -19.616  0.00  0.00    +0.278 C 
ATOM     29  C   UNL     1      32.752 -22.054 -17.891  0.00  0.00    +0.170 C 
ATOM     30  C   UNL     1      32.840 -23.199 -15.290  0.00  0.00    +0.086 C 
ATOM     31  C   UNL     1      35.137 -22.118 -18.060  0.00  0.00    -0.012 C 
ATOM     32  C   UNL     1      35.052 -21.313 -19.189  0.00  0.00    +0.068 C 
ATOM     33  C   UNL     1      31.520 -23.095 -16.024  0.00  0.00    +0.228 C 
ATOM     34  H   UNL     1      30.711 -22.239 -17.685  0.00  0.00    +0.157 HD
ENDBRANCH  22  28
ENDBRANCH  21  22
ENDBRANCH  20  21
ENDBRANCH  19  20
ENDBRANCH  18  19
ENDBRANCH   1  18
TORSDOF 7
ENDMDL
MODEL 3
REMARK VINA RESULT:     -12.1      1.949      2.263
REMARK  Name = 11697676
REMARK  7 active torsions:
REMARK  status: ('A' for Active; 'I' for Inactive)
REMARK    1  A    between atoms: N_1  and  C_18
REMARK    2  A    between atoms: N_2  and  C_8
REMARK    3  A    between atoms: C_18  and  C_19
REMARK    4  A    between atoms: C_19  and  C_20
REMARK    5  A    between atoms: C_20  and  C_21
REMARK    6  A    between atoms: C_21  and  O_22
REMARK    7  A    between atoms: O_22  and  C_28
REMARK                            x       y       z     vdW  Elec       q    Type
REMARK                         _______ _______ _______ _____ _____    ______ ____
ROOT
ATOM      1  N   UNL     1      34.835 -15.556 -23.441  0.00  0.00    +0.389 N 
ATOM      2  N   UNL     1      33.447 -13.172 -22.702  0.00  0.00    -0.312 N 
ATOM      3  C   UNL     1      33.655 -15.119 -24.198  0.00  0.00    -0.055 C 
ATOM      4  C   UNL     1      34.683 -15.192 -22.026  0.00  0.00    -0.055 C 
ATOM      5  C   UNL     1      33.475 -13.602 -24.105  0.00  0.00    +0.068 C 
ATOM      6  C   UNL     1      34.536 -13.677 -21.861  0.00  0.00    +0.068 C 
ATOM      7  H   UNL     1      35.660 -15.087 -23.815  0.00  0.00    -0.080 HD
ENDROOT
BRANCH   2   8
ATOM      8  C   UNL     1      32.856 -11.938 -22.404  0.00  0.00    +0.048 C 
ATOM      9  C   UNL     1      33.327 -10.709 -22.943  0.00  0.00    +0.013 C 
ATOM     10  C   UNL     1      31.746 -11.905 -21.532  0.00  0.00    +0.015 C 
ATOM     11  C   UNL     1      32.692  -9.489 -22.609  0.00  0.00    +0.001 C 
ATOM     12  C   UNL     1      34.428 -10.694 -23.814  0.00  0.00    +0.001 C 
ATOM     13  C   UNL     1      31.121 -10.705 -21.203  0.00  0.00    +0.001 C 
ATOM     14  C   UNL     1      31.590  -9.505 -21.738  0.00  0.00    +0.000 C 
ATOM     15  C   UNL     1      33.177  -8.290 -23.155  0.00  0.00    +0.000 C 
ATOM     16  C   UNL     1      34.897  -9.493 -24.348  0.00  0.00    +0.000 C 
ATOM     17  C   UNL     1      34.273  -8.293 -24.019  0.00  0.00    +0.000 C 
ENDBRANCH   2   8
BRANCH   1  18
ATOM     18  C   UNL     1      35.028 -16.999 -23.581  0.00  0.00    -0.077 C 
BRANCH  18  19
ATOM     19  C   UNL     1      35.430 -17.614 -22.242  0.00  0.00    -0.019 C 
BRANCH  19  20
ATOM     20  C   UNL     1      35.044 -19.090 -22.173  0.00  0.00    +0.045 C 
BRANCH  20  21
ATOM     21  C   UNL     1      34.733 -19.525 -20.747  0.00  0.00    +0.208 C 
BRANCH  21  22
ATOM     22  O   UNL     1      35.590 -20.594 -20.372  0.00  0.00    -0.452 OA
BRANCH  22  28
ATOM     23  O   UNL     1      37.752 -22.935 -14.161  0.00  0.00    -0.275 OA
ATOM     24  N   UNL     1      36.982 -22.139 -16.173  0.00  0.00    -0.263 N 
ATOM     25  N   UNL     1      36.268 -21.364 -18.291  0.00  0.00    -0.357 NA
ATOM     26  C   UNL     1      34.712 -22.560 -16.880  0.00  0.00    +0.090 C 
ATOM     27  C   UNL     1      34.420 -23.174 -15.544  0.00  0.00    +0.022 C 
ATOM     28  C   UNL     1      35.283 -21.254 -19.210  0.00  0.00    +0.278 C 
ATOM     29  C   UNL     1      35.971 -22.023 -17.146  0.00  0.00    +0.170 C 
ATOM     30  C   UNL     1      35.668 -23.813 -14.959  0.00  0.00    +0.086 C 
ATOM     31  C   UNL     1      33.719 -22.412 -17.849  0.00  0.00    -0.012 C 
ATOM     32  C   UNL     1      34.006 -21.758 -19.040  0.00  0.00    +0.068 C 
ATOM     33  C   UNL     1      36.879 -22.906 -15.029  0.00  0.00    +0.228 C 
ATOM     34  H   UNL     1      37.818 -21.639 -16.317  0.00  0.00    +0.157 HD
ENDBRANCH  22  28
ENDBRANCH  21  22
ENDBRANCH  20  21
ENDBRANCH  19  20
ENDBRANCH  18  19
ENDBRANCH   1  18
TORSDOF 7
ENDMDL
MODEL 4
REMARK VINA RESULT:     -11.9      2.254      3.969
REMARK  Name = 11697676
REMARK  7 active torsions:
REMARK  status: ('A' for Active; 'I' for Inactive)
REMARK    1  A    between atoms: N_1  and  C_18
REMARK    2  A    between atoms: N_2  and  C_8
REMARK    3  A    between atoms: C_18  and  C_19
REMARK    4  A    between atoms: C_19  and  C_20
REMARK    5  A    between atoms: C_20  and  C_21
REMARK    6  A    between atoms: C_21  and  O_22
REMARK    7  A    between atoms: O_22  and  C_28
REMARK                            x       y       z     vdW  Elec       q    Type
REMARK                         _______ _______ _______ _____ _____    ______ ____
ROOT
ATOM      1  N   UNL     1      33.219 -12.360 -22.803  0.00  0.00    +0.389 N 
ATOM      2  N   UNL     1      32.542  -9.734 -21.909  0.00  0.00    -0.312 N 
ATOM      3  C   UNL     1      33.477 -11.196 -23.659  0.00  0.00    -0.055 C 
ATOM      4  C   UNL     1      32.008 -12.136 -22.005  0.00  0.00    -0.055 C 
ATOM      5  C   UNL     1      33.676  -9.931 -22.820  0.00  0.00    +0.068 C 
ATOM      6  C   UNL     1      32.158 -10.902 -21.112  0.00  0.00    +0.068 C 
ATOM      7  H   UNL     1      34.011 -12.486 -22.172  0.00  0.00    -0.080 HD
ENDROOT
BRANCH   2   8
ATOM      8  C   UNL     1      32.320  -8.447 -21.406  0.00  0.00    +0.048 C 
ATOM      9  C   UNL     1      31.907  -7.360 -22.226  0.00  0.00    +0.013 C 
ATOM     10  C   UNL     1      32.511  -8.209 -20.027  0.00  0.00    +0.015 C 
ATOM     11  C   UNL     1      31.696  -6.078 -21.666  0.00  0.00    +0.001 C 
ATOM     12  C   UNL     1      31.704  -7.550 -23.602  0.00  0.00    +0.001 C 
ATOM     13  C   UNL     1      32.303  -6.948 -19.476  0.00  0.00    +0.001 C 
ATOM     14  C   UNL     1      31.898  -5.889 -20.288  0.00  0.00    +0.000 C 
ATOM     15  C   UNL     1      31.289  -5.023 -22.498  0.00  0.00    +0.000 C 
ATOM     16  C   UNL     1      31.300  -6.490 -24.415  0.00  0.00    +0.000 C 
ATOM     17  C   UNL     1      31.093  -5.229 -23.864  0.00  0.00    +0.000 C 
ENDBRANCH   2   8
BRANCH   1  18
ATOM     18  C   UNL     1      33.085 -13.572 -23.611  0.00  0.00    -0.077 C 
BRANCH  18  19
ATOM     19  C   UNL     1      34.161 -14.586 -23.232  0.00  0.00    -0.019 C 
BRANCH  19  20
ATOM     20  C   UNL     1      34.319 -15.655 -24.311  0.00  0.00    +0.045 C 
BRANCH  20  21
ATOM     21  C   UNL     1      34.791 -16.980 -23.727  0.00  0.00    +0.208 C 
BRANCH  21  22
ATOM     22  O   UNL     1      35.358 -16.766 -22.442  0.00  0.00    -0.452 OA
BRANCH  22  28
ATOM     23  O   UNL     1      32.594 -22.179 -19.009  0.00  0.00    -0.275 OA
ATOM     24  N   UNL     1      33.552 -20.442 -20.167  0.00  0.00    -0.263 N 
ATOM     25  N   UNL     1      34.475 -18.589 -21.312  0.00  0.00    -0.357 NA
ATOM     26  C   UNL     1      35.941 -20.096 -20.119  0.00  0.00    +0.090 C 
ATOM     27  C   UNL     1      36.103 -21.379 -19.361  0.00  0.00    +0.022 C 
ATOM     28  C   UNL     1      35.567 -17.876 -21.665  0.00  0.00    +0.278 C 
ATOM     29  C   UNL     1      34.677 -19.681 -20.537  0.00  0.00    +0.170 C 
ATOM     30  C   UNL     1      34.879 -21.657 -18.503  0.00  0.00    +0.086 C 
ATOM     31  C   UNL     1      37.043 -19.339 -20.518  0.00  0.00    -0.012 C 
ATOM     32  C   UNL     1      36.859 -18.203 -21.296  0.00  0.00    +0.068 C 
ATOM     33  C   UNL     1      33.580 -21.486 -19.263  0.00  0.00    +0.228 C 
ATOM     34  H   UNL     1      32.688 -20.216 -20.580  0.00  0.00    +0.157 HD
ENDBRANCH  22  28
ENDBRANCH  21  22
ENDBRANCH  20  21
ENDBRANCH  19  20
ENDBRANCH  18  19
ENDBRANCH   1  18
TORSDOF 7
ENDMDL
MODEL 5
REMARK VINA RESULT:     -11.8      1.345      2.704
REMARK  Name = 11697676
REMARK  7 active torsions:
REMARK  status: ('A' for Active; 'I' for Inactive)
REMARK    1  A    between atoms: N_1  and  C_18
REMARK    2  A    between atoms: N_2  and  C_8
REMARK    3  A    between atoms: C_18  and  C_19
REMARK    4  A    between atoms: C_19  and  C_20
REMARK    5  A    between atoms: C_20  and  C_21
REMARK    6  A    between atoms: C_21  and  O_22
REMARK    7  A    between atoms: O_22  and  C_28
REMARK                            x       y       z     vdW  Elec       q    Type
REMARK                         _______ _______ _______ _____ _____    ______ ____
ROOT
ATOM      1  N   UNL     1      35.166 -17.277 -22.945  0.00  0.00    +0.389 N 
ATOM      2  N   UNL     1      34.172 -14.609 -23.184  0.00  0.00    -0.312 N 
ATOM      3  C   UNL     1      34.202 -16.935 -24.000  0.00  0.00    -0.055 C 
ATOM      4  C   UNL     1      34.900 -16.472 -21.746  0.00  0.00    -0.055 C 
ATOM      5  C   UNL     1      34.303 -15.455 -24.377  0.00  0.00    +0.068 C 
ATOM      6  C   UNL     1      35.023 -14.977 -22.049  0.00  0.00    +0.068 C 
ATOM      7  H   UNL     1      36.107 -17.069 -23.280  0.00  0.00    -0.080 HD
ENDROOT
BRANCH   2   8
ATOM      8  C   UNL     1      33.792 -13.274 -23.363  0.00  0.00    +0.048 C 
ATOM      9  C   UNL     1      33.048 -12.548 -22.392  0.00  0.00    +0.013 C 
ATOM     10  C   UNL     1      34.159 -12.613 -24.555  0.00  0.00    +0.015 C 
ATOM     11  C   UNL     1      32.690 -11.199 -22.624  0.00  0.00    +0.001 C 
ATOM     12  C   UNL     1      32.661 -13.165 -21.191  0.00  0.00    +0.001 C 
ATOM     13  C   UNL     1      33.807 -11.286 -24.783  0.00  0.00    +0.001 C 
ATOM     14  C   UNL     1      33.078 -10.583 -23.825  0.00  0.00    +0.000 C 
ATOM     15  C   UNL     1      31.955 -10.506 -21.648  0.00  0.00    +0.000 C 
ATOM     16  C   UNL     1      31.931 -12.461 -20.232  0.00  0.00    +0.000 C 
ATOM     17  C   UNL     1      31.578 -11.134 -20.461  0.00  0.00    +0.000 C 
ENDBRANCH   2   8
BRANCH   1  18
ATOM     18  C   UNL     1      35.097 -18.703 -22.632  0.00  0.00    -0.077 C 
BRANCH  18  19
ATOM     19  C   UNL     1      35.237 -18.923 -21.127  0.00  0.00    -0.019 C 
BRANCH  19  20
ATOM     20  C   UNL     1      34.244 -19.970 -20.626  0.00  0.00    +0.045 C 
BRANCH  20  21
ATOM     21  C   UNL     1      34.826 -20.802 -19.491  0.00  0.00    +0.208 C 
BRANCH  21  22
ATOM     22  O   UNL     1      34.131 -22.037 -19.392  0.00  0.00    -0.452 OA
BRANCH  22  28
ATOM     23  O   UNL     1      28.625 -22.915 -15.192  0.00  0.00    -0.275 OA
ATOM     24  N   UNL     1      30.462 -22.689 -16.552  0.00  0.00    -0.263 N 
ATOM     25  N   UNL     1      32.322 -22.362 -17.977  0.00  0.00    -0.357 NA
ATOM     26  C   UNL     1      32.686 -23.073 -15.695  0.00  0.00    +0.090 C 
ATOM     27  C   UNL     1      32.096 -23.544 -14.400  0.00  0.00    +0.022 C 
ATOM     28  C   UNL     1      33.662 -22.385 -18.152  0.00  0.00    +0.278 C 
ATOM     29  C   UNL     1      31.855 -22.697 -16.750  0.00  0.00    +0.170 C 
ATOM     30  C   UNL     1      30.772 -22.851 -14.127  0.00  0.00    +0.086 C 
ATOM     31  C   UNL     1      34.063 -23.097 -15.923  0.00  0.00    -0.012 C 
ATOM     32  C   UNL     1      34.566 -22.738 -17.167  0.00  0.00    +0.068 C 
ATOM     33  C   UNL     1      29.847 -22.858 -15.326  0.00  0.00    +0.228 C 
ATOM     34  H   UNL     1      29.886 -22.555 -17.339  0.00  0.00    +0.157 HD
ENDBRANCH  22  28
ENDBRANCH  21  22
ENDBRANCH  20  21
ENDBRANCH  19  20
ENDBRANCH  18  19
ENDBRANCH   1  18
TORSDOF 7
ENDMDL
MODEL 6
REMARK VINA RESULT:     -11.7      3.820     12.127
REMARK  Name = 11697676
REMARK  7 active torsions:
REMARK  status: ('A' for Active; 'I' for Inactive)
REMARK    1  A    between atoms: N_1  and  C_18
REMARK    2  A    between atoms: N_2  and  C_8
REMARK    3  A    between atoms: C_18  and  C_19
REMARK    4  A    between atoms: C_19  and  C_20
REMARK    5  A    between atoms: C_20  and  C_21
REMARK    6  A    between atoms: C_21  and  O_22
REMARK    7  A    between atoms: O_22  and  C_28
REMARK                            x       y       z     vdW  Elec       q    Type
REMARK                         _______ _______ _______ _____ _____    ______ ____
ROOT
ATOM      1  N   UNL     1      34.949 -16.667 -23.679  0.00  0.00    +0.389 N 
ATOM      2  N   UNL     1      35.312 -18.619 -21.626  0.00  0.00    -0.312 N 
ATOM      3  C   UNL     1      35.012 -16.259 -22.270  0.00  0.00    -0.055 C 
ATOM      4  C   UNL     1      34.318 -17.988 -23.789  0.00  0.00    -0.055 C 
ATOM      5  C   UNL     1      35.829 -17.258 -21.446  0.00  0.00    +0.068 C 
ATOM      6  C   UNL     1      35.111 -19.043 -23.015  0.00  0.00    +0.068 C 
ATOM      7  H   UNL     1      35.899 -16.724 -24.048  0.00  0.00    -0.080 HD
ENDROOT
BRANCH   2   8
ATOM      8  C   UNL     1      35.614 -19.572 -20.646  0.00  0.00    +0.048 C 
ATOM      9  C   UNL     1      34.614 -20.325 -19.970  0.00  0.00    +0.013 C 
ATOM     10  C   UNL     1      36.966 -19.802 -20.310  0.00  0.00    +0.015 C 
ATOM     11  C   UNL     1      34.975 -21.276 -18.987  0.00  0.00    +0.001 C 
ATOM     12  C   UNL     1      33.257 -20.130 -20.272  0.00  0.00    +0.001 C 
ATOM     13  C   UNL     1      37.321 -20.738 -19.343  0.00  0.00    +0.001 C 
ATOM     14  C   UNL     1      36.333 -21.471 -18.686  0.00  0.00    +0.000 C 
ATOM     15  C   UNL     1      33.968 -22.006 -18.334  0.00  0.00    +0.000 C 
ATOM     16  C   UNL     1      32.269 -20.864 -19.614  0.00  0.00    +0.000 C 
ATOM     17  C   UNL     1      32.623 -21.799 -18.646  0.00  0.00    +0.000 C 
ENDBRANCH   2   8
BRANCH   1  18
ATOM     18  C   UNL     1      34.213 -15.679 -24.466  0.00  0.00    -0.077 C 
BRANCH  18  19
ATOM     19  C   UNL     1      33.833 -14.483 -23.595  0.00  0.00    -0.019 C 
BRANCH  19  20
ATOM     20  C   UNL     1      33.521 -13.255 -24.449  0.00  0.00    +0.045 C 
BRANCH  20  21
ATOM     21  C   UNL     1      34.091 -11.983 -23.834  0.00  0.00    +0.208 C 
BRANCH  21  22
ATOM     22  O   UNL     1      33.043 -11.211 -23.265  0.00  0.00    -0.452 OA
BRANCH  22  28
ATOM     23  O   UNL     1      30.382  -4.940 -21.740  0.00  0.00    -0.275 OA
ATOM     24  N   UNL     1      31.319  -6.984 -22.211  0.00  0.00    -0.263 N 
ATOM     25  N   UNL     1      32.199  -9.113 -22.747  0.00  0.00    -0.357 NA
ATOM     26  C   UNL     1      33.514  -7.137 -23.204  0.00  0.00    +0.090 C 
ATOM     27  C   UNL     1      33.673  -5.653 -23.059  0.00  0.00    +0.022 C 
ATOM     28  C   UNL     1      33.213  -9.851 -23.251  0.00  0.00    +0.278 C 
ATOM     29  C   UNL     1      32.360  -7.769 -22.741  0.00  0.00    +0.170 C 
ATOM     30  C   UNL     1      32.325  -4.955 -23.145  0.00  0.00    +0.086 C 
ATOM     31  C   UNL     1      34.543  -7.936 -23.703  0.00  0.00    -0.012 C 
ATOM     32  C   UNL     1      34.392  -9.317 -23.739  0.00  0.00    +0.068 C 
ATOM     33  C   UNL     1      31.272  -5.605 -22.273  0.00  0.00    +0.228 C 
ATOM     34  H   UNL     1      30.574  -7.449 -21.765  0.00  0.00    +0.157 HD
ENDBRANCH  22  28
ENDBRANCH  21  22
ENDBRANCH  20  21
ENDBRANCH  19  20
ENDBRANCH  18  19
ENDBRANCH   1  18
TORSDOF 7
ENDMDL
MODEL 7
REMARK VINA RESULT:     -11.7      2.020      3.104
REMARK  Name = 11697676
REMARK  7 active torsions:
REMARK  status: ('A' for Active; 'I' for Inactive)
REMARK    1  A    between atoms: N_1  and  C_18
REMARK    2  A    between atoms: N_2  and  C_8
REMARK    3  A    between atoms: C_18  and  C_19
REMARK    4  A    between atoms: C_19  and  C_20
REMARK    5  A    between atoms: C_20  and  C_21
REMARK    6  A    between atoms: C_21  and  O_22
REMARK    7  A    between atoms: O_22  and  C_28
REMARK                            x       y       z     vdW  Elec       q    Type
REMARK                         _______ _______ _______ _____ _____    ______ ____
ROOT
ATOM      1  N   UNL     1      34.152 -15.940 -23.527  0.00  0.00    +0.389 N 
ATOM      2  N   UNL     1      33.984 -13.089 -23.499  0.00  0.00    -0.312 N 
ATOM      3  C   UNL     1      34.912 -15.161 -22.541  0.00  0.00    -0.055 C 
ATOM      4  C   UNL     1      34.049 -15.189 -24.785  0.00  0.00    -0.055 C 
ATOM      5  C   UNL     1      34.226 -13.824 -22.252  0.00  0.00    +0.068 C 
ATOM      6  C   UNL     1      33.335 -13.852 -24.569  0.00  0.00    +0.068 C 
ATOM      7  H   UNL     1      33.214 -16.105 -23.164  0.00  0.00    -0.080 HD
ENDROOT
BRANCH   2   8
ATOM      8  C   UNL     1      33.793 -11.705 -23.420  0.00  0.00    +0.048 C 
ATOM      9  C   UNL     1      32.892 -11.103 -22.497  0.00  0.00    +0.013 C 
ATOM     10  C   UNL     1      34.521 -10.863 -24.288  0.00  0.00    +0.015 C 
ATOM     11  C   UNL     1      32.736  -9.698 -22.459  0.00  0.00    +0.001 C 
ATOM     12  C   UNL     1      32.146 -11.901 -21.614  0.00  0.00    +0.001 C 
ATOM     13  C   UNL     1      34.369  -9.480 -24.250  0.00  0.00    +0.001 C 
ATOM     14  C   UNL     1      33.483  -8.900 -23.342  0.00  0.00    +0.000 C 
ATOM     15  C   UNL     1      31.840  -9.130 -21.539  0.00  0.00    +0.000 C 
ATOM     16  C   UNL     1      31.260 -11.321 -20.706  0.00  0.00    +0.000 C 
ATOM     17  C   UNL     1      31.107  -9.938 -20.669  0.00  0.00    +0.000 C 
ENDBRANCH   2   8
BRANCH   1  18
ATOM     18  C   UNL     1      34.787 -17.238 -23.755  0.00  0.00    -0.077 C 
BRANCH  18  19
ATOM     19  C   UNL     1      35.295 -17.819 -22.437  0.00  0.00    -0.019 C 
BRANCH  19  20
ATOM     20  C   UNL     1      34.938 -19.299 -22.312  0.00  0.00    +0.045 C 
BRANCH  20  21
ATOM     21  C   UNL     1      34.615 -19.681 -20.874  0.00  0.00    +0.208 C 
BRANCH  21  22
ATOM     22  O   UNL     1      35.612 -20.560 -20.373  0.00  0.00    -0.452 OA
BRANCH  22  28
ATOM     23  O   UNL     1      37.787 -22.857 -14.150  0.00  0.00    -0.275 OA
ATOM     24  N   UNL     1      37.012 -22.077 -16.167  0.00  0.00    -0.263 N 
ATOM     25  N   UNL     1      36.295 -21.317 -18.288  0.00  0.00    -0.357 NA
ATOM     26  C   UNL     1      34.767 -22.577 -16.902  0.00  0.00    +0.090 C 
ATOM     27  C   UNL     1      34.482 -23.208 -15.573  0.00  0.00    +0.022 C 
ATOM     28  C   UNL     1      35.317 -21.237 -19.218  0.00  0.00    +0.278 C 
ATOM     29  C   UNL     1      36.009 -21.993 -17.151  0.00  0.00    +0.170 C 
ATOM     30  C   UNL     1      35.746 -23.805 -14.976  0.00  0.00    +0.086 C 
ATOM     31  C   UNL     1      33.781 -22.459 -17.882  0.00  0.00    -0.012 C 
ATOM     32  C   UNL     1      34.057 -21.788 -19.066  0.00  0.00    +0.068 C 
ATOM     33  C   UNL     1      36.924 -22.855 -15.028  0.00  0.00    +0.228 C 
ATOM     34  H   UNL     1      37.831 -21.547 -16.298  0.00  0.00    +0.157 HD
ENDBRANCH  22  28
ENDBRANCH  21  22
ENDBRANCH  20  21
ENDBRANCH  19  20
ENDBRANCH  18  19
ENDBRANCH   1  18
TORSDOF 7
ENDMDL
MODEL 8
REMARK VINA RESULT:     -11.6      4.080      7.282
REMARK  Name = 11697676
REMARK  7 active torsions:
REMARK  status: ('A' for Active; 'I' for Inactive)
REMARK    1  A    between atoms: N_1  and  C_18
REMARK    2  A    between atoms: N_2  and  C_8
REMARK    3  A    between atoms: C_18  and  C_19
REMARK    4  A    between atoms: C_19  and  C_20
REMARK    5  A    between atoms: C_20  and  C_21
REMARK    6  A    between atoms: C_21  and  O_22
REMARK    7  A    between atoms: O_22  and  C_28
REMARK                            x       y       z     vdW  Elec       q    Type
REMARK                         _______ _______ _______ _____ _____    ______ ____
ROOT
ATOM      1  N   UNL     1      31.609  -8.959 -20.443  0.00  0.00    +0.389 N 
ATOM      2  N   UNL     1      32.039  -6.555 -21.924  0.00  0.00    -0.312 N 
ATOM      3  C   UNL     1      32.517  -7.925 -19.931  0.00  0.00    -0.055 C 
ATOM      4  C   UNL     1      31.662  -8.989 -21.910  0.00  0.00    -0.055 C 
ATOM      5  C   UNL     1      32.126  -6.542 -20.459  0.00  0.00    +0.068 C 
ATOM      6  C   UNL     1      31.243  -7.641 -22.503  0.00  0.00    +0.068 C 
ATOM      7  H   UNL     1      30.658  -8.736 -20.152  0.00  0.00    -0.080 HD
ENDROOT
BRANCH   2   8
ATOM      8  C   UNL     1      32.141  -5.334 -22.600  0.00  0.00    +0.048 C 
ATOM      9  C   UNL     1      33.063  -5.115 -23.661  0.00  0.00    +0.013 C 
ATOM     10  C   UNL     1      31.297  -4.268 -22.217  0.00  0.00    +0.015 C 
ATOM     11  C   UNL     1      33.125  -3.860 -24.311  0.00  0.00    +0.001 C 
ATOM     12  C   UNL     1      33.922  -6.146 -24.075  0.00  0.00    +0.001 C 
ATOM     13  C   UNL     1      31.357  -3.033 -22.857  0.00  0.00    +0.001 C 
ATOM     14  C   UNL     1      32.264  -2.829 -23.896  0.00  0.00    +0.000 C 
ATOM     15  C   UNL     1      34.044  -3.671 -25.355  0.00  0.00    +0.000 C 
ATOM     16  C   UNL     1      34.829  -5.941 -25.116  0.00  0.00    +0.000 C 
ATOM     17  C   UNL     1      34.890  -4.706 -25.754  0.00  0.00    +0.000 C 
ENDBRANCH   2   8
BRANCH   1  18
ATOM     18  C   UNL     1      31.960 -10.267 -19.890  0.00  0.00    -0.077 C 
BRANCH  18  19
ATOM     19  C   UNL     1      31.326 -11.382 -20.721  0.00  0.00    -0.019 C 
BRANCH  19  20
ATOM     20  C   UNL     1      32.312 -12.524 -20.958  0.00  0.00    +0.045 C 
BRANCH  20  21
ATOM     21  C   UNL     1      32.593 -12.727 -22.441  0.00  0.00    +0.208 C 
BRANCH  21  22
ATOM     22  O   UNL     1      33.958 -13.069 -22.631  0.00  0.00    -0.452 OA
BRANCH  22  28
ATOM     23  O   UNL     1      36.363 -19.095 -20.054  0.00  0.00    -0.275 OA
ATOM     24  N   UNL     1      35.516 -17.148 -20.930  0.00  0.00    -0.263 N 
ATOM     25  N   UNL     1      34.728 -15.094 -21.799  0.00  0.00    -0.357 NA
ATOM     26  C   UNL     1      34.813 -17.035 -23.237  0.00  0.00    +0.090 C 
ATOM     27  C   UNL     1      35.043 -18.511 -23.369  0.00  0.00    +0.022 C 
ATOM     28  C   UNL     1      34.240 -14.393 -22.847  0.00  0.00    +0.278 C 
ATOM     29  C   UNL     1      35.017 -16.399 -22.012  0.00  0.00    +0.170 C 
ATOM     30  C   UNL     1      36.154 -18.969 -22.439  0.00  0.00    +0.086 C 
ATOM     31  C   UNL     1      34.294 -16.279 -24.288  0.00  0.00    -0.012 C 
ATOM     32  C   UNL     1      34.010 -14.933 -24.100  0.00  0.00    +0.068 C 
ATOM     33  C   UNL     1      35.995 -18.440 -21.029  0.00  0.00    +0.228 C 
ATOM     34  H   UNL     1      35.525 -16.722 -20.042  0.00  0.00    +0.157 HD
ENDBRANCH  22  28
ENDBRANCH  21  22
ENDBRANCH  20  21
ENDBRANCH  19  20
ENDBRANCH  18  19
ENDBRANCH   1  18
TORSDOF 7
ENDMDL
MODEL 9
REMARK VINA RESULT:     -11.6      2.974     11.385
REMARK  Name = 11697676
REMARK  7 active torsions:
REMARK  status: ('A' for Active; 'I' for Inactive)
REMARK    1  A    between atoms: N_1  and  C_18
REMARK    2  A    between atoms: N_2  and  C_8
REMARK    3  A    between atoms: C_18  and  C_19
REMARK    4  A    between atoms: C_19  and  C_20
REMARK    5  A    between atoms: C_20  and  C_21
REMARK    6  A    between atoms: C_21  and  O_22
REMARK    7  A    between atoms: O_22  and  C_28
REMARK                            x       y       z     vdW  Elec       q    Type
REMARK                         _______ _______ _______ _____ _____    ______ ____
ROOT
ATOM      1  N   UNL     1      35.344 -19.562 -21.500  0.00  0.00    +0.389 N 
ATOM      2  N   UNL     1      34.747 -21.042 -19.131  0.00  0.00    -0.312 N 
ATOM      3  C   UNL     1      36.415 -19.931 -20.565  0.00  0.00    -0.055 C 
ATOM      4  C   UNL     1      34.100 -19.312 -20.761  0.00  0.00    -0.055 C 
ATOM      5  C   UNL     1      36.052 -21.197 -19.786  0.00  0.00    +0.068 C 
ATOM      6  C   UNL     1      33.661 -20.558 -19.987  0.00  0.00    +0.068 C 
ATOM      7  H   UNL     1      35.193 -20.335 -22.148  0.00  0.00    -0.080 HD
ENDROOT
BRANCH   2   8
ATOM      8  C   UNL     1      34.456 -21.871 -18.042  0.00  0.00    +0.048 C 
ATOM      9  C   UNL     1      35.414 -22.193 -17.040  0.00  0.00    +0.013 C 
ATOM     10  C   UNL     1      33.159 -22.416 -17.925  0.00  0.00    +0.015 C 
ATOM     11  C   UNL     1      35.067 -23.038 -15.960  0.00  0.00    +0.001 C 
ATOM     12  C   UNL     1      36.717 -21.674 -17.116  0.00  0.00    +0.001 C 
ATOM     13  C   UNL     1      32.817 -23.247 -16.862  0.00  0.00    +0.001 C 
ATOM     14  C   UNL     1      33.763 -23.556 -15.885  0.00  0.00    +0.000 C 
ATOM     15  C   UNL     1      36.032 -23.339 -14.986  0.00  0.00    +0.000 C 
ATOM     16  C   UNL     1      37.664 -21.984 -16.138  0.00  0.00    +0.000 C 
ATOM     17  C   UNL     1      37.322 -22.815 -15.076  0.00  0.00    +0.000 C 
ENDBRANCH   2   8
BRANCH   1  18
ATOM     18  C   UNL     1      35.725 -18.383 -22.277  0.00  0.00    -0.077 C 
BRANCH  18  19
ATOM     19  C   UNL     1      34.718 -18.140 -23.400  0.00  0.00    -0.019 C 
BRANCH  19  20
ATOM     20  C   UNL     1      34.693 -16.668 -23.809  0.00  0.00    +0.045 C 
BRANCH  20  21
ATOM     21  C   UNL     1      34.926 -15.748 -22.619  0.00  0.00    +0.208 C 
BRANCH  21  22
ATOM     22  O   UNL     1      34.921 -14.394 -23.047  0.00  0.00    -0.452 OA
BRANCH  22  28
ATOM     23  O   UNL     1      31.711  -8.196 -22.997  0.00  0.00    -0.275 OA
ATOM     24  N   UNL     1      32.704 -10.267 -23.000  0.00  0.00    -0.263 N 
ATOM     25  N   UNL     1      33.818 -12.353 -23.014  0.00  0.00    -0.357 NA
ATOM     26  C   UNL     1      32.278 -11.843 -21.222  0.00  0.00    +0.090 C 
ATOM     27  C   UNL     1      31.244 -10.915 -20.659  0.00  0.00    +0.022 C 
ATOM     28  C   UNL     1      34.036 -13.551 -22.427  0.00  0.00    +0.278 C 
ATOM     29  C   UNL     1      32.952 -11.515 -22.398  0.00  0.00    +0.170 C 
ATOM     30  C   UNL     1      31.593  -9.468 -20.968  0.00  0.00    +0.086 C 
ATOM     31  C   UNL     1      32.521 -13.096 -20.657  0.00  0.00    -0.012 C 
ATOM     32  C   UNL     1      33.421 -13.965 -21.259  0.00  0.00    +0.068 C 
ATOM     33  C   UNL     1      31.969  -9.252 -22.419  0.00  0.00    +0.228 C 
ATOM     34  H   UNL     1      33.080 -10.106 -23.896  0.00  0.00    +0.157 HD
ENDBRANCH  22  28
ENDBRANCH  21  22
ENDBRANCH  20  21
ENDBRANCH  19  20
ENDBRANCH  18  19
ENDBRANCH   1  18
TORSDOF 7
ENDMDL
