MODEL 1
REMARK VINA RESULT:     -12.9      0.000      0.000
REMARK  Name = 10200813
REMARK  4 active torsions:
REMARK  status: ('A' for Active; 'I' for Inactive)
REMARK    1  A    between atoms: C_3  and  C_24
REMARK    2  A    between atoms: C_8  and  C_11
REMARK    3  A    between atoms: N_10  and  C_16
REMARK    4  A    between atoms: C_24  and  C_26
REMARK                            x       y       z     vdW  Elec       q    Type
REMARK                         _______ _______ _______ _____ _____    ______ ____
ROOT
ATOM      1  O   UNL     1      34.095 -18.334 -24.701  0.00  0.00    -0.265 OA
ATOM      2  N   UNL     1      34.671 -16.336 -23.604  0.00  0.00    -0.272 N 
ATOM      3  C   UNL     1      33.824 -13.642 -22.959  0.00  0.00    +0.008 C 
ATOM      4  C   UNL     1      33.245 -14.407 -24.159  0.00  0.00    +0.022 C 
ATOM      5  C   UNL     1      34.281 -14.627 -21.872  0.00  0.00    +0.022 C 
ATOM      6  C   UNL     1      34.234 -15.449 -24.679  0.00  0.00    +0.094 C 
ATOM      7  C   UNL     1      35.249 -15.666 -22.435  0.00  0.00    +0.094 C 
ATOM      8  C   UNL     1      34.564 -17.711 -23.757  0.00  0.00    +0.303 C 
ENDROOT
BRANCH   8  11
ATOM      9  O   UNL     1      36.293 -18.560 -22.487  0.00  0.00    -0.265 OA
ATOM     10  N   UNL     1      34.072 -19.159 -21.931  0.00  0.00    -0.277 N 
ATOM     11  C   UNL     1      35.079 -18.536 -22.640  0.00  0.00    +0.303 C 
ATOM     12  H   UNL     1      33.151 -18.991 -22.239  0.00  0.00    +0.155 HD
BRANCH  10  16
ATOM     13  O   UNL     1      32.273 -21.922 -18.343  0.00  0.00    -0.407 OA
ATOM     14  O   UNL     1      32.483 -23.323 -16.514  0.00  0.00    -0.223 OA
ATOM     15  N   UNL     1      34.371 -22.481 -17.589  0.00  0.00    -0.287 N 
ATOM     16  C   UNL     1      34.214 -20.013 -20.812  0.00  0.00    +0.054 C 
ATOM     17  C   UNL     1      33.072 -20.501 -20.189  0.00  0.00    +0.054 C 
ATOM     18  C   UNL     1      35.504 -20.340 -20.372  0.00  0.00    +0.016 C 
ATOM     19  C   UNL     1      33.267 -21.329 -19.105  0.00  0.00    +0.167 A 
ATOM     20  C   UNL     1      34.532 -21.653 -18.668  0.00  0.00    +0.096 A 
ATOM     21  C   UNL     1      35.677 -21.182 -19.271  0.00  0.00    +0.022 C 
ATOM     22  C   UNL     1      33.010 -22.647 -17.389  0.00  0.00    +0.419 A 
ATOM     23  H   UNL     1      35.091 -22.886 -17.053  0.00  0.00    +0.172 HD
ENDBRANCH  10  16
ENDBRANCH   8  11
BRANCH   3  24
ATOM     24  C   UNL     1      32.803 -12.653 -22.402  0.00  0.00    +0.026 C 
BRANCH  24  26
ATOM     25  F   UNL     1      34.062  -7.361 -23.818  0.00  0.00    -0.204 F 
ATOM     26  C   UNL     1      33.140 -11.237 -22.780  0.00  0.00    -0.022 C 
ATOM     27  C   UNL     1      32.355 -10.196 -22.303  0.00  0.00    -0.002 C 
ATOM     28  C   UNL     1      34.231 -10.990 -23.603  0.00  0.00    -0.002 C 
ATOM     29  C   UNL     1      32.669  -8.882 -22.654  0.00  0.00    +0.029 C 
ATOM     30  C   UNL     1      34.544  -9.676 -23.954  0.00  0.00    +0.029 C 
ATOM     31  C   UNL     1      33.763  -8.623 -23.479  0.00  0.00    +0.140 C 
ENDBRANCH  24  26
ENDBRANCH   3  24
TORSDOF 4
ENDMDL
MODEL 2
REMARK VINA RESULT:     -12.3      1.626      2.086
REMARK  Name = 10200813
REMARK  4 active torsions:
REMARK  status: ('A' for Active; 'I' for Inactive)
REMARK    1  A    between atoms: C_3  and  C_24
REMARK    2  A    between atoms: C_8  and  C_11
REMARK    3  A    between atoms: N_10  and  C_16
REMARK    4  A    between atoms: C_24  and  C_26
REMARK                            x       y       z     vdW  Elec       q    Type
REMARK                         _______ _______ _______ _____ _____    ______ ____
ROOT
ATOM      1  O   UNL     1      35.116 -17.365 -23.578  0.00  0.00    -0.265 OA
ATOM      2  N   UNL     1      34.748 -15.473 -22.233  0.00  0.00    -0.272 N 
ATOM      3  C   UNL     1      33.120 -13.109 -21.840  0.00  0.00    +0.008 C 
ATOM      4  C   UNL     1      33.241 -13.789 -23.212  0.00  0.00    +0.022 C 
ATOM      5  C   UNL     1      33.339 -14.135 -20.717  0.00  0.00    +0.022 C 
ATOM      6  C   UNL     1      34.565 -14.539 -23.342  0.00  0.00    +0.094 C 
ATOM      7  C   UNL     1      34.660 -14.880 -20.895  0.00  0.00    +0.094 C 
ATOM      8  C   UNL     1      35.028 -16.806 -22.492  0.00  0.00    +0.303 C 
ENDROOT
BRANCH   8  11
ATOM      9  O   UNL     1      36.022 -17.252 -20.458  0.00  0.00    -0.265 OA
ATOM     10  N   UNL     1      34.523 -18.843 -21.364  0.00  0.00    -0.277 N 
ATOM     11  C   UNL     1      35.249 -17.671 -21.310  0.00  0.00    +0.303 C 
ATOM     12  H   UNL     1      33.956 -18.970 -22.160  0.00  0.00    +0.155 HD
BRANCH  10  16
ATOM     13  O   UNL     1      32.229 -21.816 -18.259  0.00  0.00    -0.407 OA
ATOM     14  O   UNL     1      32.172 -23.516 -16.692  0.00  0.00    -0.223 OA
ATOM     15  N   UNL     1      34.191 -22.842 -17.640  0.00  0.00    -0.287 N 
ATOM     16  C   UNL     1      34.502 -19.882 -20.406  0.00  0.00    +0.054 C 
ATOM     17  C   UNL     1      33.285 -20.265 -19.855  0.00  0.00    +0.054 C 
ATOM     18  C   UNL     1      35.711 -20.493 -20.045  0.00  0.00    +0.016 C 
ATOM     19  C   UNL     1      33.320 -21.283 -18.927  0.00  0.00    +0.167 A 
ATOM     20  C   UNL     1      34.505 -21.886 -18.568  0.00  0.00    +0.096 A 
ATOM     21  C   UNL     1      35.722 -21.523 -19.102  0.00  0.00    +0.022 C 
ATOM     22  C   UNL     1      32.819 -22.804 -17.449  0.00  0.00    +0.419 A 
ATOM     23  H   UNL     1      34.824 -23.447 -17.189  0.00  0.00    +0.172 HD
ENDBRANCH  10  16
ENDBRANCH   8  11
BRANCH   3  24
ATOM     24  C   UNL     1      31.765 -12.421 -21.691  0.00  0.00    +0.026 C 
BRANCH  24  26
ATOM     25  F   UNL     1      32.286  -7.275 -19.494  0.00  0.00    -0.204 F 
ATOM     26  C   UNL     1      31.904 -11.044 -21.104  0.00  0.00    -0.022 C 
ATOM     27  C   UNL     1      32.200  -9.972 -21.935  0.00  0.00    -0.002 C 
ATOM     28  C   UNL     1      31.735 -10.863 -19.737  0.00  0.00    -0.002 C 
ATOM     29  C   UNL     1      32.328  -8.695 -21.389  0.00  0.00    +0.029 C 
ATOM     30  C   UNL     1      31.864  -9.586 -19.191  0.00  0.00    +0.029 C 
ATOM     31  C   UNL     1      32.160  -8.502 -20.017  0.00  0.00    +0.140 C 
ENDBRANCH  24  26
ENDBRANCH   3  24
TORSDOF 4
ENDMDL
MODEL 3
REMARK VINA RESULT:     -12.0      1.223      1.811
REMARK  Name = 10200813
REMARK  4 active torsions:
REMARK  status: ('A' for Active; 'I' for Inactive)
REMARK    1  A    between atoms: C_3  and  C_24
REMARK    2  A    between atoms: C_8  and  C_11
REMARK    3  A    between atoms: N_10  and  C_16
REMARK    4  A    between atoms: C_24  and  C_26
REMARK                            x       y       z     vdW  Elec       q    Type
REMARK                         _______ _______ _______ _____ _____    ______ ____
ROOT
ATOM      1  O   UNL     1      34.163 -18.250 -24.775  0.00  0.00    -0.265 OA
ATOM      2  N   UNL     1      34.693 -16.244 -23.671  0.00  0.00    -0.272 N 
ATOM      3  C   UNL     1      33.817 -13.547 -23.078  0.00  0.00    +0.008 C 
ATOM      4  C   UNL     1      33.284 -14.322 -24.293  0.00  0.00    +0.022 C 
ATOM      5  C   UNL     1      34.236 -14.523 -21.967  0.00  0.00    +0.022 C 
ATOM      6  C   UNL     1      34.294 -15.365 -24.769  0.00  0.00    +0.094 C 
ATOM      7  C   UNL     1      35.226 -15.563 -22.486  0.00  0.00    +0.094 C 
ATOM      8  C   UNL     1      34.595 -17.619 -23.818  0.00  0.00    +0.303 C 
ENDROOT
BRANCH   8  11
ATOM      9  O   UNL     1      36.280 -18.480 -22.497  0.00  0.00    -0.265 OA
ATOM     10  N   UNL     1      34.036 -19.027 -21.979  0.00  0.00    -0.277 N 
ATOM     11  C   UNL     1      35.070 -18.435 -22.677  0.00  0.00    +0.303 C 
ATOM     12  H   UNL     1      33.126 -18.846 -22.310  0.00  0.00    +0.155 HD
BRANCH  10  16
ATOM     13  O   UNL     1      36.567 -21.229 -18.444  0.00  0.00    -0.407 OA
ATOM     14  O   UNL     1      36.757 -22.592 -16.586  0.00  0.00    -0.223 OA
ATOM     15  N   UNL     1      34.683 -22.222 -17.581  0.00  0.00    -0.287 N 
ATOM     16  C   UNL     1      34.139 -19.865 -20.844  0.00  0.00    +0.054 C 
ATOM     17  C   UNL     1      35.388 -20.069 -20.271  0.00  0.00    +0.054 C 
ATOM     18  C   UNL     1      32.976 -20.459 -20.336  0.00  0.00    +0.016 C 
ATOM     19  C   UNL     1      35.432 -20.892 -19.166  0.00  0.00    +0.167 A 
ATOM     20  C   UNL     1      34.292 -21.479 -18.663  0.00  0.00    +0.096 A 
ATOM     21  C   UNL     1      33.045 -21.290 -19.216  0.00  0.00    +0.022 C 
ATOM     22  C   UNL     1      36.053 -22.075 -17.445  0.00  0.00    +0.419 A 
ATOM     23  H   UNL     1      34.096 -22.764 -17.004  0.00  0.00    +0.172 HD
ENDBRANCH  10  16
ENDBRANCH   8  11
BRANCH   3  24
ATOM     24  C   UNL     1      32.773 -12.557 -22.566  0.00  0.00    +0.026 C 
BRANCH  24  26
ATOM     25  F   UNL     1      34.205  -7.249 -23.737  0.00  0.00    -0.204 F 
ATOM     26  C   UNL     1      33.156 -11.137 -22.880  0.00  0.00    -0.022 C 
ATOM     27  C   UNL     1      34.222 -10.888 -23.734  0.00  0.00    -0.002 C 
ATOM     28  C   UNL     1      32.439 -10.093 -22.311  0.00  0.00    -0.002 C 
ATOM     29  C   UNL     1      34.577  -9.571 -24.025  0.00  0.00    +0.029 C 
ATOM     30  C   UNL     1      32.794  -8.775 -22.601  0.00  0.00    +0.029 C 
ATOM     31  C   UNL     1      33.863  -8.515 -23.459  0.00  0.00    +0.140 C 
ENDBRANCH  24  26
ENDBRANCH   3  24
TORSDOF 4
ENDMDL
MODEL 4
REMARK VINA RESULT:     -11.8      4.236      7.217
REMARK  Name = 10200813
REMARK  4 active torsions:
REMARK  status: ('A' for Active; 'I' for Inactive)
REMARK    1  A    between atoms: C_3  and  C_24
REMARK    2  A    between atoms: C_8  and  C_11
REMARK    3  A    between atoms: N_10  and  C_16
REMARK    4  A    between atoms: C_24  and  C_26
REMARK                            x       y       z     vdW  Elec       q    Type
REMARK                         _______ _______ _______ _____ _____    ______ ____
ROOT
ATOM      1  O   UNL     1      31.879 -22.063 -17.625  0.00  0.00    -0.265 OA
ATOM      2  N   UNL     1      33.735 -21.822 -19.048  0.00  0.00    -0.272 N 
ATOM      3  C   UNL     1      35.275 -19.975 -20.663  0.00  0.00    +0.008 C 
ATOM      4  C   UNL     1      33.809 -19.700 -20.294  0.00  0.00    +0.022 C 
ATOM      5  C   UNL     1      35.936 -20.856 -19.591  0.00  0.00    +0.022 C 
ATOM      6  C   UNL     1      33.049 -21.001 -20.043  0.00  0.00    +0.094 C 
ATOM      7  C   UNL     1      35.136 -22.134 -19.351  0.00  0.00    +0.094 C 
ATOM      8  C   UNL     1      33.043 -22.283 -17.938  0.00  0.00    +0.303 C 
ENDROOT
BRANCH   8  11
ATOM      9  O   UNL     1      33.590 -24.355 -17.082  0.00  0.00    -0.265 OA
ATOM     10  N   UNL     1      34.648 -22.438 -16.185  0.00  0.00    -0.277 N 
ATOM     11  C   UNL     1      33.801 -23.152 -17.007  0.00  0.00    +0.303 C 
ATOM     12  H   UNL     1      34.653 -21.460 -16.305  0.00  0.00    +0.155 HD
BRANCH  10  16
ATOM     13  O   UNL     1      35.521 -24.311 -11.772  0.00  0.00    -0.407 OA
ATOM     14  O   UNL     1      36.911 -25.161 -10.130  0.00  0.00    -0.223 OA
ATOM     15  N   UNL     1      37.778 -24.469 -12.179  0.00  0.00    -0.287 N 
ATOM     16  C   UNL     1      35.509 -22.954 -15.188  0.00  0.00    +0.054 C 
ATOM     17  C   UNL     1      34.966 -23.358 -13.975  0.00  0.00    +0.054 C 
ATOM     18  C   UNL     1      36.881 -23.041 -15.460  0.00  0.00    +0.016 C 
ATOM     19  C   UNL     1      35.848 -23.854 -13.039  0.00  0.00    +0.167 A 
ATOM     20  C   UNL     1      37.198 -23.942 -13.301  0.00  0.00    +0.096 A 
ATOM     21  C   UNL     1      37.757 -23.547 -14.496  0.00  0.00    +0.022 C 
ATOM     22  C   UNL     1      36.772 -24.694 -11.253  0.00  0.00    +0.419 A 
ATOM     23  H   UNL     1      38.737 -24.656 -12.052  0.00  0.00    +0.172 HD
ENDBRANCH  10  16
ENDBRANCH   8  11
BRANCH   3  24
ATOM     24  C   UNL     1      36.045 -18.669 -20.843  0.00  0.00    +0.026 C 
BRANCH  24  26
ATOM     25  F   UNL     1      33.907 -15.569 -25.016  0.00  0.00    -0.204 F 
ATOM     26  C   UNL     1      35.473 -17.839 -21.960  0.00  0.00    -0.022 C 
ATOM     27  C   UNL     1      35.361 -16.464 -21.803  0.00  0.00    -0.002 C 
ATOM     28  C   UNL     1      35.065 -18.459 -23.133  0.00  0.00    -0.002 C 
ATOM     29  C   UNL     1      34.830 -15.695 -22.839  0.00  0.00    +0.029 C 
ATOM     30  C   UNL     1      34.534 -17.690 -24.169  0.00  0.00    +0.029 C 
ATOM     31  C   UNL     1      34.417 -16.308 -24.022  0.00  0.00    +0.140 C 
ENDBRANCH  24  26
ENDBRANCH   3  24
TORSDOF 4
ENDMDL
MODEL 5
REMARK VINA RESULT:     -11.8      4.192      7.276
REMARK  Name = 10200813
REMARK  4 active torsions:
REMARK  status: ('A' for Active; 'I' for Inactive)
REMARK    1  A    between atoms: C_3  and  C_24
REMARK    2  A    between atoms: C_8  and  C_11
REMARK    3  A    between atoms: N_10  and  C_16
REMARK    4  A    between atoms: C_24  and  C_26
REMARK                            x       y       z     vdW  Elec       q    Type
REMARK                         _______ _______ _______ _____ _____    ______ ____
ROOT
ATOM      1  O   UNL     1      31.788 -21.940 -17.589  0.00  0.00    -0.265 OA
ATOM      2  N   UNL     1      33.568 -21.762 -19.114  0.00  0.00    -0.272 N 
ATOM      3  C   UNL     1      35.144 -19.952 -20.737  0.00  0.00    +0.008 C 
ATOM      4  C   UNL     1      33.728 -19.591 -20.264  0.00  0.00    +0.022 C 
ATOM      5  C   UNL     1      35.799 -20.932 -19.751  0.00  0.00    +0.022 C 
ATOM      6  C   UNL     1      32.888 -20.844 -20.025  0.00  0.00    +0.094 C 
ATOM      7  C   UNL     1      34.921 -22.159 -19.519  0.00  0.00    +0.094 C 
ATOM      8  C   UNL     1      32.911 -22.228 -17.985  0.00  0.00    +0.303 C 
ENDROOT
BRANCH   8  11
ATOM      9  O   UNL     1      33.514 -24.381 -17.413  0.00  0.00    -0.265 OA
ATOM     10  N   UNL     1      34.413 -22.579 -16.170  0.00  0.00    -0.277 N 
ATOM     11  C   UNL     1      33.656 -23.195 -17.145  0.00  0.00    +0.303 C 
ATOM     12  H   UNL     1      34.375 -21.595 -16.141  0.00  0.00    +0.155 HD
BRANCH  10  16
ATOM     13  O   UNL     1      38.744 -24.037 -14.477  0.00  0.00    -0.407 OA
ATOM     14  O   UNL     1      40.112 -25.051 -12.912  0.00  0.00    -0.223 OA
ATOM     15  N   UNL     1      37.808 -24.941 -12.582  0.00  0.00    -0.287 N 
ATOM     16  C   UNL     1      35.238 -23.204 -15.206  0.00  0.00    +0.054 C 
ATOM     17  C   UNL     1      36.609 -23.257 -15.427  0.00  0.00    +0.054 C 
ATOM     18  C   UNL     1      34.645 -23.747 -14.058  0.00  0.00    +0.016 C 
ATOM     19  C   UNL     1      37.368 -23.875 -14.457  0.00  0.00    +0.167 A 
ATOM     20  C   UNL     1      36.789 -24.411 -13.327  0.00  0.00    +0.096 A 
ATOM     21  C   UNL     1      35.433 -24.370 -13.088  0.00  0.00    +0.022 C 
ATOM     22  C   UNL     1      38.990 -24.718 -13.271  0.00  0.00    +0.419 A 
ATOM     23  H   UNL     1      37.719 -25.397 -11.714  0.00  0.00    +0.172 HD
ENDBRANCH  10  16
ENDBRANCH   8  11
BRANCH   3  24
ATOM     24  C   UNL     1      35.997 -18.697 -20.905  0.00  0.00    +0.026 C 
BRANCH  24  26
ATOM     25  F   UNL     1      33.981 -15.346 -24.941  0.00  0.00    -0.204 F 
ATOM     26  C   UNL     1      35.457 -17.801 -21.985  0.00  0.00    -0.022 C 
ATOM     27  C   UNL     1      35.055 -18.352 -23.194  0.00  0.00    -0.002 C 
ATOM     28  C   UNL     1      35.369 -16.434 -21.759  0.00  0.00    -0.002 C 
ATOM     29  C   UNL     1      34.554 -17.519 -24.196  0.00  0.00    +0.029 C 
ATOM     30  C   UNL     1      34.868 -15.601 -22.760  0.00  0.00    +0.029 C 
ATOM     31  C   UNL     1      34.461 -16.145 -23.978  0.00  0.00    +0.140 C 
ENDBRANCH  24  26
ENDBRANCH   3  24
TORSDOF 4
ENDMDL
MODEL 6
REMARK VINA RESULT:     -11.2      5.308     10.799
REMARK  Name = 10200813
REMARK  4 active torsions:
REMARK  status: ('A' for Active; 'I' for Inactive)
REMARK    1  A    between atoms: C_3  and  C_24
REMARK    2  A    between atoms: C_8  and  C_11
REMARK    3  A    between atoms: N_10  and  C_16
REMARK    4  A    between atoms: C_24  and  C_26
REMARK                            x       y       z     vdW  Elec       q    Type
REMARK                         _______ _______ _______ _____ _____    ______ ____
ROOT
ATOM      1  O   UNL     1      33.746 -13.150 -25.554  0.00  0.00    -0.265 OA
ATOM      2  N   UNL     1      33.816 -14.609 -23.712  0.00  0.00    -0.272 N 
ATOM      3  C   UNL     1      34.941 -17.060 -22.655  0.00  0.00    +0.008 C 
ATOM      4  C   UNL     1      34.859 -16.792 -24.166  0.00  0.00    +0.022 C 
ATOM      5  C   UNL     1      35.028 -15.733 -21.885  0.00  0.00    +0.022 C 
ATOM      6  C   UNL     1      33.714 -15.837 -24.496  0.00  0.00    +0.094 C 
ATOM      7  C   UNL     1      33.882 -14.797 -22.260  0.00  0.00    +0.094 C 
ATOM      8  C   UNL     1      33.800 -13.378 -24.352  0.00  0.00    +0.303 C 
ENDROOT
BRANCH   8  11
ATOM      9  O   UNL     1      34.124 -12.377 -22.299  0.00  0.00    -0.265 OA
ATOM     10  N   UNL     1      33.589 -11.013 -24.158  0.00  0.00    -0.277 N 
ATOM     11  C   UNL     1      33.855 -12.184 -23.478  0.00  0.00    +0.303 C 
ATOM     12  H   UNL     1      33.397 -11.100 -25.120  0.00  0.00    +0.155 HD
BRANCH  10  16
ATOM     13  O   UNL     1      31.413  -7.356 -21.783  0.00  0.00    -0.407 OA
ATOM     14  O   UNL     1      31.345  -5.218 -20.905  0.00  0.00    -0.223 OA
ATOM     15  N   UNL     1      33.243  -5.986 -22.018  0.00  0.00    -0.287 N 
ATOM     16  C   UNL     1      33.560  -9.703 -23.627  0.00  0.00    +0.054 C 
ATOM     17  C   UNL     1      32.416  -9.269 -22.969  0.00  0.00    +0.054 C 
ATOM     18  C   UNL     1      34.688  -8.886 -23.783  0.00  0.00    +0.016 C 
ATOM     19  C   UNL     1      32.440  -7.985 -22.470  0.00  0.00    +0.167 A 
ATOM     20  C   UNL     1      33.546  -7.178 -22.620  0.00  0.00    +0.096 A 
ATOM     21  C   UNL     1      34.691  -7.587 -23.268  0.00  0.00    +0.022 C 
ATOM     22  C   UNL     1      31.958  -6.088 -21.512  0.00  0.00    +0.419 A 
ATOM     23  H   UNL     1      33.832  -5.198 -21.955  0.00  0.00    +0.172 HD
ENDBRANCH  10  16
ENDBRANCH   8  11
BRANCH   3  24
ATOM     24  C   UNL     1      36.131 -17.958 -22.326  0.00  0.00    +0.026 C 
BRANCH  24  26
ATOM     25  F   UNL     1      34.772 -21.895 -18.552  0.00  0.00    -0.204 F 
ATOM     26  C   UNL     1      35.767 -19.012 -21.317  0.00  0.00    -0.022 C 
ATOM     27  C   UNL     1      34.436 -19.367 -21.148  0.00  0.00    -0.002 C 
ATOM     28  C   UNL     1      36.768 -19.615 -20.566  0.00  0.00    -0.002 C 
ATOM     29  C   UNL     1      34.099 -20.345 -20.211  0.00  0.00    +0.029 C 
ATOM     30  C   UNL     1      36.431 -20.592 -19.629  0.00  0.00    +0.029 C 
ATOM     31  C   UNL     1      35.097 -20.957 -19.452  0.00  0.00    +0.140 C 
ENDBRANCH  24  26
ENDBRANCH   3  24
TORSDOF 4
ENDMDL
MODEL 7
REMARK VINA RESULT:     -11.0      6.144     11.351
REMARK  Name = 10200813
REMARK  4 active torsions:
REMARK  status: ('A' for Active; 'I' for Inactive)
REMARK    1  A    between atoms: C_3  and  C_24
REMARK    2  A    between atoms: C_8  and  C_11
REMARK    3  A    between atoms: N_10  and  C_16
REMARK    4  A    between atoms: C_24  and  C_26
REMARK                            x       y       z     vdW  Elec       q    Type
REMARK                         _______ _______ _______ _____ _____    ______ ____
ROOT
ATOM      1  O   UNL     1      34.090 -10.912 -25.743  0.00  0.00    -0.265 OA
ATOM      2  N   UNL     1      33.569 -12.288 -23.909  0.00  0.00    -0.272 N 
ATOM      3  C   UNL     1      34.109 -14.812 -22.595  0.00  0.00    +0.008 C 
ATOM      4  C   UNL     1      34.391 -14.602 -24.091  0.00  0.00    +0.022 C 
ATOM      5  C   UNL     1      34.201 -13.475 -21.844  0.00  0.00    +0.022 C 
ATOM      6  C   UNL     1      33.479 -13.527 -24.679  0.00  0.00    +0.094 C 
ATOM      7  C   UNL     1      33.294 -12.420 -22.475  0.00  0.00    +0.094 C 
ATOM      8  C   UNL     1      33.852 -11.093 -24.555  0.00  0.00    +0.303 C 
ENDROOT
BRANCH   8  11
ATOM      9  O   UNL     1      34.973  -9.469 -23.360  0.00  0.00    -0.265 OA
ATOM     10  N   UNL     1      32.609  -9.393 -23.442  0.00  0.00    -0.277 N 
ATOM     11  C   UNL     1      33.873  -9.879 -23.707  0.00  0.00    +0.303 C 
ATOM     12  H   UNL     1      31.857  -9.893 -23.834  0.00  0.00    +0.155 HD
BRANCH  10  16
ATOM     13  O   UNL     1      30.893  -4.860 -22.937  0.00  0.00    -0.407 OA
ATOM     14  O   UNL     1      30.334  -2.993 -21.692  0.00  0.00    -0.223 OA
ATOM     15  N   UNL     1      31.231  -4.882 -20.663  0.00  0.00    -0.287 N 
ATOM     16  C   UNL     1      32.274  -8.257 -22.670  0.00  0.00    +0.054 C 
ATOM     17  C   UNL     1      31.741  -7.143 -23.308  0.00  0.00    +0.054 C 
ATOM     18  C   UNL     1      32.488  -8.294 -21.285  0.00  0.00    +0.016 C 
ATOM     19  C   UNL     1      31.431  -6.064 -22.509  0.00  0.00    +0.167 A 
ATOM     20  C   UNL     1      31.640  -6.095 -21.148  0.00  0.00    +0.096 A 
ATOM     21  C   UNL     1      32.166  -7.188 -20.495  0.00  0.00    +0.022 C 
ATOM     22  C   UNL     1      30.779  -4.133 -21.738  0.00  0.00    +0.419 A 
ATOM     23  H   UNL     1      31.253  -4.593 -19.722  0.00  0.00    +0.172 HD
ENDBRANCH  10  16
ENDBRANCH   8  11
BRANCH   3  24
ATOM     24  C   UNL     1      35.072 -15.837 -22.000  0.00  0.00    +0.026 C 
BRANCH  24  26
ATOM     25  F   UNL     1      34.662 -20.809 -24.589  0.00  0.00    -0.204 F 
ATOM     26  C   UNL     1      34.962 -17.167 -22.692  0.00  0.00    -0.022 C 
ATOM     27  C   UNL     1      35.640 -18.264 -22.178  0.00  0.00    -0.002 C 
ATOM     28  C   UNL     1      34.184 -17.281 -23.837  0.00  0.00    -0.002 C 
ATOM     29  C   UNL     1      35.538 -19.498 -22.821  0.00  0.00    +0.029 C 
ATOM     30  C   UNL     1      34.082 -18.515 -24.480  0.00  0.00    +0.029 C 
ATOM     31  C   UNL     1      34.759 -19.624 -23.971  0.00  0.00    +0.140 C 
ENDBRANCH  24  26
ENDBRANCH   3  24
TORSDOF 4
ENDMDL
MODEL 8
REMARK VINA RESULT:     -10.8      5.847     10.983
REMARK  Name = 10200813
REMARK  4 active torsions:
REMARK  status: ('A' for Active; 'I' for Inactive)
REMARK    1  A    between atoms: C_3  and  C_24
REMARK    2  A    between atoms: C_8  and  C_11
REMARK    3  A    between atoms: N_10  and  C_16
REMARK    4  A    between atoms: C_24  and  C_26
REMARK                            x       y       z     vdW  Elec       q    Type
REMARK                         _______ _______ _______ _____ _____    ______ ____
ROOT
ATOM      1  O   UNL     1      37.210 -21.545 -16.866  0.00  0.00    -0.265 OA
ATOM      2  N   UNL     1      35.301 -22.880 -16.547  0.00  0.00    -0.272 N 
ATOM      3  C   UNL     1      33.228 -23.667 -14.683  0.00  0.00    +0.008 C 
ATOM      4  C   UNL     1      34.570 -23.090 -14.205  0.00  0.00    +0.022 C 
ATOM      5  C   UNL     1      32.895 -23.142 -16.088  0.00  0.00    +0.022 C 
ATOM      6  C   UNL     1      35.680 -23.359 -15.219  0.00  0.00    +0.094 C 
ATOM      7  C   UNL     1      34.036 -23.408 -17.066  0.00  0.00    +0.094 C 
ATOM      8  C   UNL     1      36.145 -22.022 -17.237  0.00  0.00    +0.303 C 
ENDROOT
BRANCH   8  11
ATOM      9  O   UNL     1      34.964 -22.402 -19.182  0.00  0.00    -0.265 OA
ATOM     10  N   UNL     1      36.228 -20.411 -18.990  0.00  0.00    -0.277 N 
ATOM     11  C   UNL     1      35.708 -21.628 -18.597  0.00  0.00    +0.303 C 
ATOM     12  H   UNL     1      36.814 -19.955 -18.342  0.00  0.00    +0.155 HD
BRANCH  10  16
ATOM     13  O   UNL     1      33.521 -19.289 -22.884  0.00  0.00    -0.407 OA
ATOM     14  O   UNL     1      33.148 -18.209 -24.894  0.00  0.00    -0.223 OA
ATOM     15  N   UNL     1      35.165 -17.940 -23.758  0.00  0.00    -0.287 N 
ATOM     16  C   UNL     1      36.013 -19.746 -20.220  0.00  0.00    +0.054 C 
ATOM     17  C   UNL     1      34.802 -19.924 -20.877  0.00  0.00    +0.054 C 
ATOM     18  C   UNL     1      37.029 -18.929 -20.733  0.00  0.00    +0.016 C 
ATOM     19  C   UNL     1      34.643 -19.253 -22.070  0.00  0.00    +0.167 A 
ATOM     20  C   UNL     1      35.639 -18.449 -22.579  0.00  0.00    +0.096 A 
ATOM     21  C   UNL     1      36.847 -18.258 -21.944  0.00  0.00    +0.022 C 
ATOM     22  C   UNL     1      33.888 -18.444 -23.948  0.00  0.00    +0.419 A 
ATOM     23  H   UNL     1      35.643 -17.328 -24.363  0.00  0.00    +0.172 HD
ENDBRANCH  10  16
ENDBRANCH   8  11
BRANCH   3  24
ATOM     24  C   UNL     1      32.111 -23.332 -13.698  0.00  0.00    +0.026 C 
BRANCH  24  26
ATOM     25  F   UNL     1      27.060 -23.525 -16.154  0.00  0.00    -0.204 F 
ATOM     26  C   UNL     1      30.759 -23.384 -14.354  0.00  0.00    -0.022 C 
ATOM     27  C   UNL     1      30.281 -24.593 -14.840  0.00  0.00    -0.002 C 
ATOM     28  C   UNL     1      30.008 -22.222 -14.467  0.00  0.00    -0.002 C 
ATOM     29  C   UNL     1      29.026 -24.641 -15.450  0.00  0.00    +0.029 C 
ATOM     30  C   UNL     1      28.754 -22.269 -15.076  0.00  0.00    +0.029 C 
ATOM     31  C   UNL     1      28.263 -23.479 -15.567  0.00  0.00    +0.140 C 
ENDBRANCH  24  26
ENDBRANCH   3  24
TORSDOF 4
ENDMDL
MODEL 9
REMARK VINA RESULT:     -10.8      4.128      7.400
REMARK  Name = 10200813
REMARK  4 active torsions:
REMARK  status: ('A' for Active; 'I' for Inactive)
REMARK    1  A    between atoms: C_3  and  C_24
REMARK    2  A    between atoms: C_8  and  C_11
REMARK    3  A    between atoms: N_10  and  C_16
REMARK    4  A    between atoms: C_24  and  C_26
REMARK                            x       y       z     vdW  Elec       q    Type
REMARK                         _______ _______ _______ _____ _____    ______ ____
ROOT
ATOM      1  O   UNL     1      31.937 -10.414 -19.343  0.00  0.00    -0.265 OA
ATOM      2  N   UNL     1      32.037  -9.240 -21.377  0.00  0.00    -0.272 N 
ATOM      3  C   UNL     1      33.226  -7.002 -22.780  0.00  0.00    +0.008 C 
ATOM      4  C   UNL     1      33.146  -7.045 -21.246  0.00  0.00    +0.022 C 
ATOM      5  C   UNL     1      33.269  -8.428 -23.350  0.00  0.00    +0.022 C 
ATOM      6  C   UNL     1      31.976  -7.908 -20.778  0.00  0.00    +0.094 C 
ATOM      7  C   UNL     1      32.098  -9.266 -22.841  0.00  0.00    +0.094 C 
ATOM      8  C   UNL     1      31.989 -10.364 -20.565  0.00  0.00    +0.303 C 
ENDROOT
BRANCH   8  11
ATOM      9  O   UNL     1      30.929 -12.248 -21.372  0.00  0.00    -0.265 OA
ATOM     10  N   UNL     1      33.267 -12.039 -21.677  0.00  0.00    -0.277 N 
ATOM     11  C   UNL     1      32.004 -11.673 -21.258  0.00  0.00    +0.303 C 
ATOM     12  H   UNL     1      33.995 -11.408 -21.474  0.00  0.00    +0.155 HD
BRANCH  10  16
ATOM     13  O   UNL     1      35.222 -16.498 -21.876  0.00  0.00    -0.407 OA
ATOM     14  O   UNL     1      35.825 -18.438 -22.981  0.00  0.00    -0.223 OA
ATOM     15  N   UNL     1      34.770 -16.702 -24.121  0.00  0.00    -0.287 N 
ATOM     16  C   UNL     1      33.632 -13.219 -22.365  0.00  0.00    +0.054 C 
ATOM     17  C   UNL     1      34.260 -14.240 -21.662  0.00  0.00    +0.054 C 
ATOM     18  C   UNL     1      33.345 -13.321 -23.733  0.00  0.00    +0.016 C 
ATOM     19  C   UNL     1      34.594 -15.369 -22.378  0.00  0.00    +0.167 A 
ATOM     20  C   UNL     1      34.315 -15.473 -23.723  0.00  0.00    +0.096 A 
ATOM     21  C   UNL     1      33.692 -14.475 -24.439  0.00  0.00    +0.022 C 
ATOM     22  C   UNL     1      35.318 -17.324 -23.011  0.00  0.00    +0.419 A 
ATOM     23  H   UNL     1      34.717 -17.076 -25.030  0.00  0.00    +0.172 HD
ENDBRANCH  10  16
ENDBRANCH   8  11
BRANCH   3  24
ATOM     24  C   UNL     1      34.440  -6.196 -23.238  0.00  0.00    +0.026 C 
BRANCH  24  26
ATOM     25  F   UNL     1      33.317  -3.214 -27.868  0.00  0.00    -0.204 F 
ATOM     26  C   UNL     1      34.139  -5.398 -24.477  0.00  0.00    -0.022 C 
ATOM     27  C   UNL     1      32.848  -4.940 -24.700  0.00  0.00    -0.002 C 
ATOM     28  C   UNL     1      35.158  -5.130 -25.382  0.00  0.00    -0.002 C 
ATOM     29  C   UNL     1      32.569  -4.200 -25.849  0.00  0.00    +0.029 C 
ATOM     30  C   UNL     1      34.880  -4.389 -26.531  0.00  0.00    +0.029 C 
ATOM     31  C   UNL     1      33.585  -3.924 -26.764  0.00  0.00    +0.140 C 
ENDBRANCH  24  26
ENDBRANCH   3  24
TORSDOF 4
ENDMDL
