MODEL 1
REMARK VINA RESULT:     -12.1      0.000      0.000
REMARK  Name = 11634458
REMARK  5 active torsions:
REMARK  status: ('A' for Active; 'I' for Inactive)
REMARK    1  A    between atoms: N_3  and  C_11
REMARK    2  A    between atoms: C_4  and  C_19
REMARK    3  A    between atoms: C_5  and  O_35
REMARK    4  A    between atoms: N_18  and  C_22
REMARK    5  A    between atoms: C_25  and  N_29
REMARK                            x       y       z     vdW  Elec       q    Type
REMARK                         _______ _______ _______ _____ _____    ______ ____
ROOT
ATOM      1  O   UNL     1      32.050 -23.487 -12.337  0.00  0.00    -0.252 OA
ATOM      2  N   UNL     1      33.951 -23.987 -13.525  0.00  0.00    -0.255 N 
ATOM      3  N   UNL     1      31.941 -23.577 -14.664  0.00  0.00    -0.268 N 
ATOM      4  C   UNL     1      34.699 -24.385 -14.716  0.00  0.00    +0.156 C 
ATOM      5  C   UNL     1      36.185 -24.362 -12.822  0.00  0.00    +0.137 C 
ATOM      6  C   UNL     1      35.979 -25.027 -14.181  0.00  0.00    +0.061 C 
ATOM      7  C   UNL     1      34.770 -24.113 -12.322  0.00  0.00    +0.125 C 
ATOM      8  C   UNL     1      32.587 -23.669 -13.431  0.00  0.00    +0.308 C 
ATOM      9  H   UNL     1      32.498 -23.746 -15.458  0.00  0.00    +0.156 HD
ENDROOT
BRANCH   3  11
ATOM     10 CL   UNL     1      26.254 -22.285 -15.700  0.00  0.00    -0.082 Cl
ATOM     11  C   UNL     1      30.581 -23.268 -14.912  0.00  0.00    +0.052 C 
ATOM     12  C   UNL     1      29.968 -22.230 -14.215  0.00  0.00    +0.016 C 
ATOM     13  C   UNL     1      29.863 -24.004 -15.851  0.00  0.00    +0.016 C 
ATOM     14  C   UNL     1      28.628 -21.925 -14.459  0.00  0.00    +0.013 C 
ATOM     15  C   UNL     1      28.524 -23.700 -16.095  0.00  0.00    +0.013 C 
ATOM     16  C   UNL     1      27.907 -22.661 -15.399  0.00  0.00    +0.058 C 
ENDBRANCH   3  11
BRANCH   4  19
ATOM     17  O   UNL     1      35.577 -22.199 -15.008  0.00  0.00    -0.273 OA
ATOM     18  N   UNL     1      34.562 -23.290 -16.829  0.00  0.00    -0.281 N 
ATOM     19  C   UNL     1      35.006 -23.157 -15.520  0.00  0.00    +0.244 C 
ATOM     20  H   UNL     1      34.119 -24.140 -17.054  0.00  0.00    +0.155 HD
BRANCH  18  22
ATOM     21  F   UNL     1      32.306 -22.184 -18.010  0.00  0.00    -0.203 F 
ATOM     22  C   UNL     1      34.671 -22.345 -17.876  0.00  0.00    +0.078 C 
ATOM     23  C   UNL     1      33.522 -21.817 -18.438  0.00  0.00    +0.155 C 
ATOM     24  C   UNL     1      35.930 -21.970 -18.317  0.00  0.00    +0.018 C 
ATOM     25  C   UNL     1      34.893 -20.498 -19.928  0.00  0.00    +0.061 C 
ATOM     26  C   UNL     1      33.633 -20.887 -19.472  0.00  0.00    +0.046 C 
ATOM     27  C   UNL     1      36.041 -21.039 -19.351  0.00  0.00    +0.017 C 
BRANCH  25  29
ATOM     28  O   UNL     1      36.757 -18.287 -19.995  0.00  0.00    -0.269 OA
ATOM     29  N   UNL     1      35.008 -19.530 -21.003  0.00  0.00    -0.233 N 
ATOM     30  C   UNL     1      35.994 -18.512 -20.935  0.00  0.00    +0.257 C 
ATOM     31  C   UNL     1      34.141 -19.579 -22.096  0.00  0.00    +0.072 C 
ATOM     32  C   UNL     1      36.076 -17.586 -22.106  0.00  0.00    +0.059 C 
ATOM     33  C   UNL     1      34.214 -18.718 -23.116  0.00  0.00    +0.017 C 
ATOM     34  C   UNL     1      35.217 -17.697 -23.122  0.00  0.00    +0.006 C 
ENDBRANCH  25  29
ENDBRANCH  18  22
ENDBRANCH   4  19
BRANCH   5  35
ATOM     35  O   UNL     1      36.873 -23.128 -12.991  0.00  0.00    -0.352 OA
ATOM     36  C   UNL     1      37.474 -22.696 -11.778  0.00  0.00    +0.174 C 
ENDBRANCH   5  35
TORSDOF 5
ENDMDL
MODEL 2
REMARK VINA RESULT:     -10.6      1.191      1.557
REMARK  Name = 11634458
REMARK  5 active torsions:
REMARK  status: ('A' for Active; 'I' for Inactive)
REMARK    1  A    between atoms: N_3  and  C_11
REMARK    2  A    between atoms: C_4  and  C_19
REMARK    3  A    between atoms: C_5  and  O_35
REMARK    4  A    between atoms: N_18  and  C_22
REMARK    5  A    between atoms: C_25  and  N_29
REMARK                            x       y       z     vdW  Elec       q    Type
REMARK                         _______ _______ _______ _____ _____    ______ ____
ROOT
ATOM      1  O   UNL     1      32.166 -23.617 -12.215  0.00  0.00    -0.252 OA
ATOM      2  N   UNL     1      34.265 -24.115 -13.004  0.00  0.00    -0.255 N 
ATOM      3  N   UNL     1      32.470 -23.934 -14.504  0.00  0.00    -0.268 N 
ATOM      4  C   UNL     1      35.226 -24.580 -14.003  0.00  0.00    +0.156 C 
ATOM      5  C   UNL     1      36.355 -24.289 -11.896  0.00  0.00    +0.137 C 
ATOM      6  C   UNL     1      36.418 -25.091 -13.194  0.00  0.00    +0.061 C 
ATOM      7  C   UNL     1      34.866 -24.078 -11.673  0.00  0.00    +0.125 C 
ATOM      8  C   UNL     1      32.894 -23.870 -13.177  0.00  0.00    +0.308 C 
ATOM      9  H   UNL     1      33.164 -24.145 -15.170  0.00  0.00    +0.156 HD
ENDROOT
BRANCH   3  11
ATOM     10 CL   UNL     1      27.004 -23.083 -16.621  0.00  0.00    -0.082 Cl
ATOM     11  C   UNL     1      31.163 -23.730 -15.011  0.00  0.00    +0.052 C 
ATOM     12  C   UNL     1      30.176 -24.686 -14.786  0.00  0.00    +0.016 C 
ATOM     13  C   UNL     1      30.871 -22.575 -15.731  0.00  0.00    +0.016 C 
ATOM     14  C   UNL     1      28.888 -24.487 -15.284  0.00  0.00    +0.013 C 
ATOM     15  C   UNL     1      29.584 -22.375 -16.230  0.00  0.00    +0.013 C 
ATOM     16  C   UNL     1      28.593 -23.331 -16.006  0.00  0.00    +0.058 C 
ENDBRANCH   3  11
BRANCH   4  19
ATOM     17  O   UNL     1      36.364 -22.542 -14.437  0.00  0.00    -0.273 OA
ATOM     18  N   UNL     1      35.031 -23.505 -16.121  0.00  0.00    -0.281 N 
ATOM     19  C   UNL     1      35.618 -23.417 -14.865  0.00  0.00    +0.244 C 
ATOM     20  H   UNL     1      34.455 -24.288 -16.279  0.00  0.00    +0.155 HD
BRANCH  18  22
ATOM     21  F   UNL     1      32.912 -22.990 -17.839  0.00  0.00    -0.203 F 
ATOM     22  C   UNL     1      35.165 -22.599 -17.200  0.00  0.00    +0.078 C 
ATOM     23  C   UNL     1      34.084 -22.369 -18.033  0.00  0.00    +0.155 C 
ATOM     24  C   UNL     1      36.378 -21.960 -17.398  0.00  0.00    +0.018 C 
ATOM     25  C   UNL     1      35.434 -20.826 -19.310  0.00  0.00    +0.061 C 
ATOM     26  C   UNL     1      34.219 -21.477 -19.096  0.00  0.00    +0.046 C 
ATOM     27  C   UNL     1      36.514 -21.068 -18.461  0.00  0.00    +0.017 C 
BRANCH  25  29
ATOM     28  O   UNL     1      33.338 -20.112 -21.171  0.00  0.00    -0.269 OA
ATOM     29  N   UNL     1      35.575 -19.897 -20.416  0.00  0.00    -0.233 N 
ATOM     30  C   UNL     1      34.456 -19.600 -21.236  0.00  0.00    +0.257 C 
ATOM     31  C   UNL     1      36.810 -19.309 -20.695  0.00  0.00    +0.072 C 
ATOM     32  C   UNL     1      34.675 -18.597 -22.323  0.00  0.00    +0.059 C 
ATOM     33  C   UNL     1      36.988 -18.441 -21.695  0.00  0.00    +0.017 C 
ATOM     34  C   UNL     1      35.884 -18.070 -22.527  0.00  0.00    +0.006 C 
ENDBRANCH  25  29
ENDBRANCH  18  22
ENDBRANCH   4  19
BRANCH   5  35
ATOM     35  O   UNL     1      37.011 -23.039 -12.073  0.00  0.00    -0.352 OA
ATOM     36  C   UNL     1      38.139 -22.917 -11.219  0.00  0.00    +0.174 C 
ENDBRANCH   5  35
TORSDOF 5
ENDMDL
MODEL 3
REMARK VINA RESULT:      -9.8     11.365     16.982
REMARK  Name = 11634458
REMARK  5 active torsions:
REMARK  status: ('A' for Active; 'I' for Inactive)
REMARK    1  A    between atoms: N_3  and  C_11
REMARK    2  A    between atoms: C_4  and  C_19
REMARK    3  A    between atoms: C_5  and  O_35
REMARK    4  A    between atoms: N_18  and  C_22
REMARK    5  A    between atoms: C_25  and  N_29
REMARK                            x       y       z     vdW  Elec       q    Type
REMARK                         _______ _______ _______ _____ _____    ______ ____
ROOT
ATOM      1  O   UNL     1      33.743  -3.711 -23.481  0.00  0.00    -0.252 OA
ATOM      2  N   UNL     1      32.510  -5.542 -22.849  0.00  0.00    -0.255 N 
ATOM      3  N   UNL     1      33.241  -5.341 -25.070  0.00  0.00    -0.268 N 
ATOM      4  C   UNL     1      31.696  -6.733 -23.085  0.00  0.00    +0.156 C 
ATOM      5  C   UNL     1      31.665  -6.209 -20.735  0.00  0.00    +0.137 C 
ATOM      6  C   UNL     1      30.836  -6.878 -21.829  0.00  0.00    +0.061 C 
ATOM      7  C   UNL     1      32.393  -5.090 -21.465  0.00  0.00    +0.125 C 
ATOM      8  C   UNL     1      33.211  -4.777 -23.794  0.00  0.00    +0.308 C 
ATOM      9  H   UNL     1      32.772  -6.201 -25.174  0.00  0.00    +0.156 HD
ENDROOT
BRANCH   3  11
ATOM     10 CL   UNL     1      35.855  -3.196 -29.933  0.00  0.00    -0.082 Cl
ATOM     11  C   UNL     1      33.866  -4.828 -26.233  0.00  0.00    +0.052 C 
ATOM     12  C   UNL     1      35.255  -4.747 -26.294  0.00  0.00    +0.016 C 
ATOM     13  C   UNL     1      33.089  -4.408 -27.309  0.00  0.00    +0.016 C 
ATOM     14  C   UNL     1      35.871  -4.241 -27.440  0.00  0.00    +0.013 C 
ATOM     15  C   UNL     1      33.704  -3.903 -28.454  0.00  0.00    +0.013 C 
ATOM     16  C   UNL     1      35.096  -3.819 -28.519  0.00  0.00    +0.058 C 
ENDBRANCH   3  11
BRANCH   4  19
ATOM     17  O   UNL     1      33.764  -7.760 -23.640  0.00  0.00    -0.273 OA
ATOM     18  N   UNL     1      31.966  -9.095 -22.919  0.00  0.00    -0.281 N 
ATOM     19  C   UNL     1      32.610  -7.911 -23.252  0.00  0.00    +0.244 C 
ATOM     20  H   UNL     1      31.029  -9.015 -22.628  0.00  0.00    +0.155 HD
BRANCH  18  22
ATOM     21  F   UNL     1      31.134 -11.034 -21.114  0.00  0.00    -0.203 F 
ATOM     22  C   UNL     1      32.501 -10.405 -22.950  0.00  0.00    +0.078 C 
ATOM     23  C   UNL     1      32.059 -11.343 -22.033  0.00  0.00    +0.155 C 
ATOM     24  C   UNL     1      33.459 -10.720 -23.901  0.00  0.00    +0.018 C 
ATOM     25  C   UNL     1      33.554 -12.966 -23.017  0.00  0.00    +0.061 C 
ATOM     26  C   UNL     1      32.589 -12.632 -22.066  0.00  0.00    +0.046 C 
ATOM     27  C   UNL     1      33.989 -12.009 -23.934  0.00  0.00    +0.017 C 
BRANCH  25  29
ATOM     28  O   UNL     1      33.571 -14.708 -25.326  0.00  0.00    -0.269 OA
ATOM     29  N   UNL     1      34.105 -14.307 -23.051  0.00  0.00    -0.233 N 
ATOM     30  C   UNL     1      34.088 -15.048 -24.261  0.00  0.00    +0.257 C 
ATOM     31  C   UNL     1      34.634 -14.886 -21.895  0.00  0.00    +0.072 C 
ATOM     32  C   UNL     1      34.719 -16.403 -24.221  0.00  0.00    +0.059 C 
ATOM     33  C   UNL     1      35.162 -16.113 -21.878  0.00  0.00    +0.017 C 
ATOM     34  C   UNL     1      35.212 -16.890 -23.079  0.00  0.00    +0.006 C 
ENDBRANCH  25  29
ENDBRANCH  18  22
ENDBRANCH   4  19
BRANCH   5  35
ATOM     35  O   UNL     1      32.600  -7.142 -20.204  0.00  0.00    -0.352 OA
ATOM     36  C   UNL     1      31.948  -8.174 -19.476  0.00  0.00    +0.174 C 
ENDBRANCH   5  35
TORSDOF 5
ENDMDL
MODEL 4
REMARK VINA RESULT:      -9.5      1.294      1.708
REMARK  Name = 11634458
REMARK  5 active torsions:
REMARK  status: ('A' for Active; 'I' for Inactive)
REMARK    1  A    between atoms: N_3  and  C_11
REMARK    2  A    between atoms: C_4  and  C_19
REMARK    3  A    between atoms: C_5  and  O_35
REMARK    4  A    between atoms: N_18  and  C_22
REMARK    5  A    between atoms: C_25  and  N_29
REMARK                            x       y       z     vdW  Elec       q    Type
REMARK                         _______ _______ _______ _____ _____    ______ ____
ROOT
ATOM      1  O   UNL     1      32.184 -24.047 -12.796  0.00  0.00    -0.252 OA
ATOM      2  N   UNL     1      34.112 -24.322 -14.013  0.00  0.00    -0.255 N 
ATOM      3  N   UNL     1      32.093 -23.867 -15.119  0.00  0.00    -0.268 N 
ATOM      4  C   UNL     1      34.884 -24.545 -15.234  0.00  0.00    +0.156 C 
ATOM      5  C   UNL     1      36.356 -24.680 -13.334  0.00  0.00    +0.137 C 
ATOM      6  C   UNL     1      36.188 -25.189 -14.763  0.00  0.00    +0.061 C 
ATOM      7  C   UNL     1      34.929 -24.553 -12.824  0.00  0.00    +0.125 C 
ATOM      8  C   UNL     1      32.736 -24.075 -13.898  0.00  0.00    +0.308 C 
ATOM      9  H   UNL     1      32.662 -23.919 -15.920  0.00  0.00    +0.156 HD
ENDROOT
BRANCH   3  11
ATOM     10 CL   UNL     1      26.361 -22.707 -16.060  0.00  0.00    -0.082 Cl
ATOM     11  C   UNL     1      30.722 -23.590 -15.344  0.00  0.00    +0.052 C 
ATOM     12  C   UNL     1      30.306 -22.278 -15.552  0.00  0.00    +0.016 C 
ATOM     13  C   UNL     1      29.798 -24.631 -15.355  0.00  0.00    +0.016 C 
ATOM     14  C   UNL     1      28.956 -22.004 -15.773  0.00  0.00    +0.013 C 
ATOM     15  C   UNL     1      28.448 -24.358 -15.577  0.00  0.00    +0.013 C 
ATOM     16  C   UNL     1      28.027 -23.044 -15.786  0.00  0.00    +0.058 C 
ENDBRANCH   3  11
BRANCH   4  19
ATOM     17  O   UNL     1      35.622 -22.288 -15.245  0.00  0.00    -0.273 OA
ATOM     18  N   UNL     1      34.768 -23.235 -17.222  0.00  0.00    -0.281 N 
ATOM     19  C   UNL     1      35.142 -23.218 -15.885  0.00  0.00    +0.244 C 
ATOM     20  H   UNL     1      34.395 -24.082 -17.559  0.00  0.00    +0.155 HD
BRANCH  18  22
ATOM     21  F   UNL     1      37.218 -22.118 -17.898  0.00  0.00    -0.203 F 
ATOM     22  C   UNL     1      34.859 -22.176 -18.156  0.00  0.00    +0.078 C 
ATOM     23  C   UNL     1      36.099 -21.647 -18.466  0.00  0.00    +0.155 C 
ATOM     24  C   UNL     1      33.699 -21.691 -18.740  0.00  0.00    +0.018 C 
ATOM     25  C   UNL     1      35.028 -20.102 -19.983  0.00  0.00    +0.061 C 
ATOM     26  C   UNL     1      36.185 -20.603 -19.386  0.00  0.00    +0.046 C 
ATOM     27  C   UNL     1      33.785 -20.646 -19.660  0.00  0.00    +0.017 C 
BRANCH  25  29
ATOM     28  O   UNL     1      34.726 -20.367 -22.848  0.00  0.00    -0.269 OA
ATOM     29  N   UNL     1      35.117 -19.015 -20.940  0.00  0.00    -0.233 N 
ATOM     30  C   UNL     1      34.910 -19.270 -22.320  0.00  0.00    +0.257 C 
ATOM     31  C   UNL     1      35.429 -17.722 -20.517  0.00  0.00    +0.072 C 
ATOM     32  C   UNL     1      34.973 -18.087 -23.232  0.00  0.00    +0.059 C 
ATOM     33  C   UNL     1      35.513 -16.686 -21.357  0.00  0.00    +0.017 C 
ATOM     34  C   UNL     1      35.269 -16.876 -22.755  0.00  0.00    +0.006 C 
ENDBRANCH  25  29
ENDBRANCH  18  22
ENDBRANCH   4  19
BRANCH   5  35
ATOM     35  O   UNL     1      36.991 -23.406 -13.350  0.00  0.00    -0.352 OA
ATOM     36  C   UNL     1      36.944 -22.784 -12.073  0.00  0.00    +0.174 C 
ENDBRANCH   5  35
TORSDOF 5
ENDMDL
