MODEL 1
REMARK VINA RESULT:     -11.9      0.000      0.000
REMARK  Name = 24958200
REMARK  3 active torsions:
REMARK  status: ('A' for Active; 'I' for Inactive)
REMARK    1  A    between atoms: N_1  and  C_13
REMARK    2  A    between atoms: C_6  and  C_26
REMARK    3  A    between atoms: C_10  and  C_17
REMARK                            x       y       z     vdW  Elec       q    Type
REMARK                         _______ _______ _______ _____ _____    ______ ____
ROOT
ATOM      1  N   UNL     1      32.401 -22.706 -16.882  0.00  0.00    -0.189 N 
ATOM      2  N   UNL     1      31.057 -22.789 -16.920  0.00  0.00    -0.174 NA
ATOM      3  C   UNL     1      31.928 -23.791 -15.077  0.00  0.00    +0.036 C 
ATOM      4  C   UNL     1      32.979 -23.292 -15.794  0.00  0.00    +0.091 C 
ATOM      5  C   UNL     1      30.726 -23.463 -15.804  0.00  0.00    +0.105 C 
ATOM      6  C   UNL     1      29.465 -23.848 -15.313  0.00  0.00    +0.072 C 
ATOM      7  C   UNL     1      32.023 -24.479 -13.875  0.00  0.00    +0.003 C 
ATOM      8  C   UNL     1      29.527 -24.552 -14.090  0.00  0.00    +0.006 C 
ATOM      9  C   UNL     1      30.748 -24.852 -13.406  0.00  0.00    +0.000 C 
ENDROOT
BRANCH   1  13
ATOM     10  C   UNL     1      34.463 -20.767 -19.948  0.00  0.00    -0.024 C 
ATOM     11  C   UNL     1      33.081 -20.617 -19.833  0.00  0.00    -0.003 C 
ATOM     12  C   UNL     1      35.156 -21.565 -19.037  0.00  0.00    -0.003 C 
ATOM     13  C   UNL     1      33.084 -22.064 -17.898  0.00  0.00    +0.074 C 
ATOM     14  C   UNL     1      32.392 -21.265 -18.809  0.00  0.00    +0.016 C 
ATOM     15  C   UNL     1      34.467 -22.213 -18.012  0.00  0.00    +0.016 C 
BRANCH  10  17
ATOM     16  N   UNL     1      34.999 -18.735 -23.150  0.00  0.00    +0.384 N 
ATOM     17  C   UNL     1      35.213 -20.063 -21.064  0.00  0.00    +0.001 C 
ATOM     18  C   UNL     1      36.233 -19.051 -20.516  0.00  0.00    +0.000 C 
ATOM     19  C   UNL     1      34.259 -19.385 -22.065  0.00  0.00    -0.077 C 
ATOM     20  C   UNL     1      36.932 -18.327 -21.665  0.00  0.00    -0.023 C 
ATOM     21  C   UNL     1      35.922 -17.723 -22.637  0.00  0.00    -0.082 C 
ATOM     22  H   UNL     1      34.336 -18.290 -23.783  0.00  0.00    -0.085 HD
ATOM     23  H   UNL     1      35.543 -19.448 -23.637  0.00  0.00    -0.085 HD
ENDBRANCH  10  17
ENDBRANCH   1  13
BRANCH   6  26
ATOM     24  O   UNL     1      27.816 -24.241 -16.947  0.00  0.00    -0.270 OA
ATOM     25  N   UNL     1      27.462 -22.478 -15.525  0.00  0.00    -0.325 N 
ATOM     26  C   UNL     1      28.220 -23.553 -15.988  0.00  0.00    +0.244 C 
ATOM     27  H   UNL     1      26.609 -22.251 -15.963  0.00  0.00    +0.145 HD
ATOM     28  H   UNL     1      27.778 -21.946 -14.760  0.00  0.00    +0.145 HD
ENDBRANCH   6  26
TORSDOF 3
ENDMDL
MODEL 2
REMARK VINA RESULT:     -11.3      2.181      3.086
REMARK  Name = 24958200
REMARK  3 active torsions:
REMARK  status: ('A' for Active; 'I' for Inactive)
REMARK    1  A    between atoms: N_1  and  C_13
REMARK    2  A    between atoms: C_6  and  C_26
REMARK    3  A    between atoms: C_10  and  C_17
REMARK                            x       y       z     vdW  Elec       q    Type
REMARK                         _______ _______ _______ _____ _____    ______ ____
ROOT
ATOM      1  N   UNL     1      32.771 -22.750 -16.684  0.00  0.00    -0.189 N 
ATOM      2  N   UNL     1      33.527 -23.136 -15.637  0.00  0.00    -0.174 NA
ATOM      3  C   UNL     1      31.338 -23.678 -15.364  0.00  0.00    +0.036 C 
ATOM      4  C   UNL     1      31.445 -23.050 -16.573  0.00  0.00    +0.091 C 
ATOM      5  C   UNL     1      32.661 -23.722 -14.790  0.00  0.00    +0.105 C 
ATOM      6  C   UNL     1      32.877 -24.314 -13.532  0.00  0.00    +0.072 C 
ATOM      7  C   UNL     1      30.165 -24.174 -14.811  0.00  0.00    +0.003 C 
ATOM      8  C   UNL     1      31.701 -24.828 -12.942  0.00  0.00    +0.006 C 
ATOM      9  C   UNL     1      30.409 -24.760 -13.553  0.00  0.00    +0.000 C 
ENDROOT
BRANCH   1  13
ATOM     10  C   UNL     1      34.532 -20.791 -19.920  0.00  0.00    -0.024 C 
ATOM     11  C   UNL     1      33.148 -20.755 -19.751  0.00  0.00    -0.003 C 
ATOM     12  C   UNL     1      35.328 -21.482 -19.005  0.00  0.00    -0.003 C 
ATOM     13  C   UNL     1      33.354 -22.101 -17.756  0.00  0.00    +0.074 C 
ATOM     14  C   UNL     1      32.559 -21.410 -18.670  0.00  0.00    +0.016 C 
ATOM     15  C   UNL     1      34.740 -22.137 -17.924  0.00  0.00    +0.016 C 
BRANCH  10  17
ATOM     16  N   UNL     1      34.761 -18.757 -23.156  0.00  0.00    +0.384 N 
ATOM     17  C   UNL     1      35.173 -20.079 -21.098  0.00  0.00    +0.001 C 
ATOM     18  C   UNL     1      36.225 -19.055 -20.642  0.00  0.00    +0.000 C 
ATOM     19  C   UNL     1      34.126 -19.414 -22.011  0.00  0.00    -0.077 C 
ATOM     20  C   UNL     1      36.812 -18.325 -21.848  0.00  0.00    -0.023 C 
ATOM     21  C   UNL     1      35.713 -17.733 -22.727  0.00  0.00    -0.082 C 
ATOM     22  H   UNL     1      34.039 -18.320 -23.729  0.00  0.00    -0.085 HD
ATOM     23  H   UNL     1      35.268 -19.464 -23.690  0.00  0.00    -0.085 HD
ENDBRANCH  10  17
ENDBRANCH   1  13
BRANCH   6  26
ATOM     24  O   UNL     1      34.372 -23.946 -11.751  0.00  0.00    -0.270 OA
ATOM     25  N   UNL     1      35.212 -25.004 -13.603  0.00  0.00    -0.325 N 
ATOM     26  C   UNL     1      34.175 -24.393 -12.898  0.00  0.00    +0.244 C 
ATOM     27  H   UNL     1      36.108 -25.074 -13.200  0.00  0.00    +0.145 HD
ATOM     28  H   UNL     1      35.048 -25.367 -14.504  0.00  0.00    +0.145 HD
ENDBRANCH   6  26
TORSDOF 3
ENDMDL
MODEL 3
REMARK VINA RESULT:     -10.9      2.451      3.382
REMARK  Name = 24958200
REMARK  3 active torsions:
REMARK  status: ('A' for Active; 'I' for Inactive)
REMARK    1  A    between atoms: N_1  and  C_13
REMARK    2  A    between atoms: C_6  and  C_26
REMARK    3  A    between atoms: C_10  and  C_17
REMARK                            x       y       z     vdW  Elec       q    Type
REMARK                         _______ _______ _______ _____ _____    ______ ____
ROOT
ATOM      1  N   UNL     1      33.241 -22.418 -17.207  0.00  0.00    -0.189 N 
ATOM      2  N   UNL     1      34.143 -22.860 -16.309  0.00  0.00    -0.174 NA
ATOM      3  C   UNL     1      32.018 -23.435 -15.748  0.00  0.00    +0.036 C 
ATOM      4  C   UNL     1      31.945 -22.735 -16.920  0.00  0.00    +0.091 C 
ATOM      5  C   UNL     1      33.411 -23.503 -15.381  0.00  0.00    +0.105 C 
ATOM      6  C   UNL     1      33.810 -24.167 -14.206  0.00  0.00    +0.072 C 
ATOM      7  C   UNL     1      30.939 -23.972 -15.058  0.00  0.00    +0.003 C 
ATOM      8  C   UNL     1      32.735 -24.725 -13.481  0.00  0.00    +0.006 C 
ATOM      9  C   UNL     1      31.367 -24.631 -13.889  0.00  0.00    +0.000 C 
ENDROOT
BRANCH   1  13
ATOM     10  C   UNL     1      34.505 -20.255 -20.544  0.00  0.00    -0.024 C 
ATOM     11  C   UNL     1      33.147 -20.323 -20.230  0.00  0.00    -0.003 C 
ATOM     12  C   UNL     1      35.440 -20.911 -19.742  0.00  0.00    -0.003 C 
ATOM     13  C   UNL     1      33.659 -21.702 -18.313  0.00  0.00    +0.074 C 
ATOM     14  C   UNL     1      32.725 -21.046 -19.115  0.00  0.00    +0.016 C 
ATOM     15  C   UNL     1      35.018 -21.634 -18.627  0.00  0.00    +0.016 C 
BRANCH  10  17
ATOM     16  N   UNL     1      34.369 -18.705 -24.043  0.00  0.00    +0.384 N 
ATOM     17  C   UNL     1      34.965 -19.470 -21.759  0.00  0.00    +0.001 C 
ATOM     18  C   UNL     1      35.395 -18.042 -21.386  0.00  0.00    +0.000 C 
ATOM     19  C   UNL     1      33.897 -19.443 -22.869  0.00  0.00    -0.077 C 
ATOM     20  C   UNL     1      35.803 -17.266 -22.636  0.00  0.00    -0.023 C 
ATOM     21  C   UNL     1      34.715 -17.325 -23.706  0.00  0.00    -0.082 C 
ATOM     22  H   UNL     1      33.633 -18.700 -24.749  0.00  0.00    -0.085 HD
ATOM     23  H   UNL     1      35.207 -19.169 -24.397  0.00  0.00    -0.085 HD
ENDBRANCH  10  17
ENDBRANCH   1  13
BRANCH   6  26
ATOM     24  O   UNL     1      35.923 -25.207 -14.159  0.00  0.00    -0.270 OA
ATOM     25  N   UNL     1      35.689 -23.286 -12.930  0.00  0.00    -0.325 N 
ATOM     26  C   UNL     1      35.188 -24.274 -13.778  0.00  0.00    +0.244 C 
ATOM     27  H   UNL     1      36.623 -23.329 -12.620  0.00  0.00    +0.145 HD
ATOM     28  H   UNL     1      35.109 -22.544 -12.642  0.00  0.00    +0.145 HD
ENDBRANCH   6  26
TORSDOF 3
ENDMDL
MODEL 4
REMARK VINA RESULT:     -10.9      0.759      1.299
REMARK  Name = 24958200
REMARK  3 active torsions:
REMARK  status: ('A' for Active; 'I' for Inactive)
REMARK    1  A    between atoms: N_1  and  C_13
REMARK    2  A    between atoms: C_6  and  C_26
REMARK    3  A    between atoms: C_10  and  C_17
REMARK                            x       y       z     vdW  Elec       q    Type
REMARK                         _______ _______ _______ _____ _____    ______ ____
ROOT
ATOM      1  N   UNL     1      33.053 -22.650 -16.884  0.00  0.00    -0.189 N 
ATOM      2  N   UNL     1      31.724 -22.718 -16.673  0.00  0.00    -0.174 NA
ATOM      3  C   UNL     1      32.906 -23.818 -15.075  0.00  0.00    +0.036 C 
ATOM      4  C   UNL     1      33.814 -23.295 -15.953  0.00  0.00    +0.091 C 
ATOM      5  C   UNL     1      31.595 -23.443 -15.548  0.00  0.00    +0.105 C 
ATOM      6  C   UNL     1      30.441 -23.840 -14.846  0.00  0.00    +0.072 C 
ATOM      7  C   UNL     1      33.211 -24.567 -13.946  0.00  0.00    +0.003 C 
ATOM      8  C   UNL     1      30.718 -24.605 -13.692  0.00  0.00    +0.006 C 
ATOM      9  C   UNL     1      32.039 -24.950 -13.264  0.00  0.00    +0.000 C 
ENDROOT
BRANCH   1  13
ATOM     10  C   UNL     1      34.539 -20.585 -20.192  0.00  0.00    -0.024 C 
ATOM     11  C   UNL     1      35.419 -21.169 -19.281  0.00  0.00    -0.003 C 
ATOM     12  C   UNL     1      33.161 -20.692 -19.997  0.00  0.00    -0.003 C 
ATOM     13  C   UNL     1      33.545 -21.965 -17.980  0.00  0.00    +0.074 C 
ATOM     14  C   UNL     1      34.922 -21.859 -18.175  0.00  0.00    +0.016 C 
ATOM     15  C   UNL     1      32.664 -21.382 -18.892  0.00  0.00    +0.016 C 
BRANCH  10  17
ATOM     16  N   UNL     1      34.491 -18.608 -23.471  0.00  0.00    +0.384 N 
ATOM     17  C   UNL     1      35.079 -19.832 -21.394  0.00  0.00    +0.001 C 
ATOM     18  C   UNL     1      36.017 -18.688 -20.977  0.00  0.00    +0.000 C 
ATOM     19  C   UNL     1      33.951 -19.307 -22.302  0.00  0.00    -0.077 C 
ATOM     20  C   UNL     1      36.500 -17.923 -22.207  0.00  0.00    -0.023 C 
ATOM     21  C   UNL     1      35.330 -17.476 -23.079  0.00  0.00    -0.082 C 
ATOM     22  H   UNL     1      33.717 -18.267 -24.040  0.00  0.00    -0.085 HD
ATOM     23  H   UNL     1      35.066 -19.266 -23.999  0.00  0.00    -0.085 HD
ENDBRANCH  10  17
ENDBRANCH   1  13
BRANCH   6  26
ATOM     24  O   UNL     1      28.306 -24.363 -15.689  0.00  0.00    -0.270 OA
ATOM     25  N   UNL     1      28.697 -22.168 -15.156  0.00  0.00    -0.325 N 
ATOM     26  C   UNL     1      29.098 -23.500 -15.262  0.00  0.00    +0.244 C 
ATOM     27  H   UNL     1      27.788 -21.903 -15.430  0.00  0.00    +0.145 HD
ATOM     28  H   UNL     1      29.321 -21.492 -14.806  0.00  0.00    +0.145 HD
ENDBRANCH   6  26
TORSDOF 3
ENDMDL
MODEL 5
REMARK VINA RESULT:     -10.7      3.435      4.638
REMARK  Name = 24958200
REMARK  3 active torsions:
REMARK  status: ('A' for Active; 'I' for Inactive)
REMARK    1  A    between atoms: N_1  and  C_13
REMARK    2  A    between atoms: C_6  and  C_26
REMARK    3  A    between atoms: C_10  and  C_17
REMARK                            x       y       z     vdW  Elec       q    Type
REMARK                         _______ _______ _______ _____ _____    ______ ____
ROOT
ATOM      1  N   UNL     1      34.714 -22.107 -17.582  0.00  0.00    -0.189 N 
ATOM      2  N   UNL     1      35.809 -22.351 -16.837  0.00  0.00    -0.174 NA
ATOM      3  C   UNL     1      33.943 -23.298 -15.956  0.00  0.00    +0.036 C 
ATOM      4  C   UNL     1      33.561 -22.654 -17.099  0.00  0.00    +0.091 C 
ATOM      5  C   UNL     1      35.364 -23.095 -15.809  0.00  0.00    +0.105 C 
ATOM      6  C   UNL     1      36.056 -23.644 -14.714  0.00  0.00    +0.072 C 
ATOM      7  C   UNL     1      33.103 -24.011 -15.109  0.00  0.00    +0.003 C 
ATOM      8  C   UNL     1      35.229 -24.375 -13.833  0.00  0.00    +0.006 C 
ATOM      9  C   UNL     1      33.822 -24.548 -14.023  0.00  0.00    +0.000 C 
ENDROOT
BRANCH   1  13
ATOM     10  C   UNL     1      35.020 -19.830 -21.065  0.00  0.00    -0.024 C 
ATOM     11  C   UNL     1      33.765 -20.197 -20.580  0.00  0.00    -0.003 C 
ATOM     12  C   UNL     1      36.173 -20.223 -20.385  0.00  0.00    -0.003 C 
ATOM     13  C   UNL     1      34.815 -21.353 -18.736  0.00  0.00    +0.074 C 
ATOM     14  C   UNL     1      33.662 -20.959 -19.416  0.00  0.00    +0.016 C 
ATOM     15  C   UNL     1      36.071 -20.984 -19.221  0.00  0.00    +0.016 C 
BRANCH  10  17
ATOM     16  N   UNL     1      34.060 -18.419 -24.493  0.00  0.00    +0.384 N 
ATOM     17  C   UNL     1      35.132 -19.002 -22.332  0.00  0.00    +0.001 C 
ATOM     18  C   UNL     1      35.337 -17.510 -22.024  0.00  0.00    +0.000 C 
ATOM     19  C   UNL     1      33.920 -19.203 -23.263  0.00  0.00    -0.077 C 
ATOM     20  C   UNL     1      35.395 -16.703 -23.319  0.00  0.00    -0.023 C 
ATOM     21  C   UNL     1      34.187 -16.990 -24.207  0.00  0.00    -0.082 C 
ATOM     22  H   UNL     1      33.236 -18.569 -25.076  0.00  0.00    -0.085 HD
ATOM     23  H   UNL     1      34.905 -18.726 -24.974  0.00  0.00    -0.085 HD
ENDBRANCH  10  17
ENDBRANCH   1  13
BRANCH   6  26
ATOM     24  O   UNL     1      37.984 -23.537 -13.366  0.00  0.00    -0.270 OA
ATOM     25  N   UNL     1      38.285 -23.273 -15.624  0.00  0.00    -0.325 N 
ATOM     26  C   UNL     1      37.478 -23.480 -14.505  0.00  0.00    +0.244 C 
ATOM     27  H   UNL     1      39.257 -23.158 -15.516  0.00  0.00    +0.145 HD
ATOM     28  H   UNL     1      37.883 -23.242 -16.522  0.00  0.00    +0.145 HD
ENDBRANCH   6  26
TORSDOF 3
ENDMDL
MODEL 6
REMARK VINA RESULT:     -10.4      7.805     10.920
REMARK  Name = 24958200
REMARK  3 active torsions:
REMARK  status: ('A' for Active; 'I' for Inactive)
REMARK    1  A    between atoms: N_1  and  C_13
REMARK    2  A    between atoms: C_6  and  C_26
REMARK    3  A    between atoms: C_10  and  C_17
REMARK                            x       y       z     vdW  Elec       q    Type
REMARK                         _______ _______ _______ _____ _____    ______ ____
ROOT
ATOM      1  N   UNL     1      34.177 -15.323 -23.612  0.00  0.00    -0.189 N 
ATOM      2  N   UNL     1      35.024 -15.901 -22.739  0.00  0.00    -0.174 NA
ATOM      3  C   UNL     1      34.019 -17.421 -24.096  0.00  0.00    +0.036 C 
ATOM      4  C   UNL     1      33.543 -16.190 -24.454  0.00  0.00    +0.091 C 
ATOM      5  C   UNL     1      34.951 -17.216 -23.014  0.00  0.00    +0.105 C 
ATOM      6  C   UNL     1      35.614 -18.308 -22.424  0.00  0.00    +0.072 C 
ATOM      7  C   UNL     1      33.660 -18.628 -24.680  0.00  0.00    +0.003 C 
ATOM      8  C   UNL     1      35.269 -19.553 -22.995  0.00  0.00    +0.006 C 
ATOM      9  C   UNL     1      34.337 -19.703 -24.071  0.00  0.00    +0.000 C 
ENDROOT
BRANCH   1  13
ATOM     10  C   UNL     1      33.654 -11.183 -23.589  0.00  0.00    -0.024 C 
ATOM     11  C   UNL     1      33.632 -11.882 -24.796  0.00  0.00    -0.003 C 
ATOM     12  C   UNL     1      33.851 -11.869 -22.389  0.00  0.00    -0.003 C 
ATOM     13  C   UNL     1      34.004 -13.951 -23.605  0.00  0.00    +0.074 C 
ATOM     14  C   UNL     1      33.807 -13.266 -24.804  0.00  0.00    +0.016 C 
ATOM     15  C   UNL     1      34.025 -13.252 -22.397  0.00  0.00    +0.016 C 
BRANCH  10  17
ATOM     16  N   UNL     1      32.411  -7.757 -22.414  0.00  0.00    +0.384 N 
ATOM     17  C   UNL     1      33.466  -9.677 -23.580  0.00  0.00    +0.001 C 
ATOM     18  C   UNL     1      34.811  -8.934 -23.602  0.00  0.00    +0.000 C 
ATOM     19  C   UNL     1      32.606  -9.209 -22.390  0.00  0.00    -0.077 C 
ATOM     20  C   UNL     1      34.585  -7.425 -23.542  0.00  0.00    -0.023 C 
ATOM     21  C   UNL     1      33.688  -7.044 -22.367  0.00  0.00    -0.082 C 
ATOM     22  H   UNL     1      31.849  -7.485 -21.608  0.00  0.00    -0.085 HD
ATOM     23  H   UNL     1      31.939  -7.512 -23.285  0.00  0.00    -0.085 HD
ENDBRANCH  10  17
ENDBRANCH   1  13
BRANCH   6  26
ATOM     24  O   UNL     1      36.190 -17.915 -20.175  0.00  0.00    -0.270 OA
ATOM     25  N   UNL     1      37.912 -18.369 -21.619  0.00  0.00    -0.325 N 
ATOM     26  C   UNL     1      36.559 -18.176 -21.337  0.00  0.00    +0.244 C 
ATOM     27  H   UNL     1      38.582 -18.286 -20.901  0.00  0.00    +0.145 HD
ATOM     28  H   UNL     1      38.198 -18.588 -22.535  0.00  0.00    +0.145 HD
ENDBRANCH   6  26
TORSDOF 3
ENDMDL
MODEL 7
REMARK VINA RESULT:     -10.2      4.217      5.419
REMARK  Name = 24958200
REMARK  3 active torsions:
REMARK  status: ('A' for Active; 'I' for Inactive)
REMARK    1  A    between atoms: N_1  and  C_13
REMARK    2  A    between atoms: C_6  and  C_26
REMARK    3  A    between atoms: C_10  and  C_17
REMARK                            x       y       z     vdW  Elec       q    Type
REMARK                         _______ _______ _______ _____ _____    ______ ____
ROOT
ATOM      1  N   UNL     1      35.707 -22.855 -15.777  0.00  0.00    -0.189 N 
ATOM      2  N   UNL     1      36.831 -23.480 -15.377  0.00  0.00    -0.174 NA
ATOM      3  C   UNL     1      35.170 -23.627 -13.834  0.00  0.00    +0.036 C 
ATOM      4  C   UNL     1      34.674 -22.911 -14.887  0.00  0.00    +0.091 C 
ATOM      5  C   UNL     1      36.531 -23.976 -14.163  0.00  0.00    +0.105 C 
ATOM      6  C   UNL     1      37.316 -24.723 -13.265  0.00  0.00    +0.072 C 
ATOM      7  C   UNL     1      34.476 -23.948 -12.675  0.00  0.00    +0.003 C 
ATOM      8  C   UNL     1      36.638 -25.065 -12.074  0.00  0.00    +0.006 C 
ATOM      9  C   UNL     1      35.284 -24.694 -11.794  0.00  0.00    +0.000 C 
ENDROOT
BRANCH   1  13
ATOM     10  C   UNL     1      35.585 -20.942 -19.484  0.00  0.00    -0.024 C 
ATOM     11  C   UNL     1      34.450 -21.588 -18.994  0.00  0.00    -0.003 C 
ATOM     12  C   UNL     1      36.762 -20.936 -18.733  0.00  0.00    -0.003 C 
ATOM     13  C   UNL     1      35.666 -22.222 -17.006  0.00  0.00    +0.074 C 
ATOM     14  C   UNL     1      34.490 -22.227 -17.755  0.00  0.00    +0.016 C 
ATOM     15  C   UNL     1      36.803 -21.576 -17.495  0.00  0.00    +0.016 C 
BRANCH  10  17
ATOM     16  N   UNL     1      34.087 -19.180 -22.535  0.00  0.00    +0.384 N 
ATOM     17  C   UNL     1      35.542 -20.248 -20.832  0.00  0.00    +0.001 C 
ATOM     18  C   UNL     1      36.498 -19.045 -20.886  0.00  0.00    +0.000 C 
ATOM     19  C   UNL     1      34.113 -19.823 -21.219  0.00  0.00    -0.077 C 
ATOM     20  C   UNL     1      36.392 -18.342 -22.237  0.00  0.00    -0.023 C 
ATOM     21  C   UNL     1      34.943 -17.995 -22.570  0.00  0.00    -0.082 C 
ATOM     22  H   UNL     1      33.128 -18.904 -22.750  0.00  0.00    -0.085 HD
ATOM     23  H   UNL     1      34.435 -19.848 -23.224  0.00  0.00    -0.085 HD
ENDBRANCH  10  17
ENDBRANCH   1  13
BRANCH   6  26
ATOM     24  O   UNL     1      39.606 -24.843 -12.731  0.00  0.00    -0.270 OA
ATOM     25  N   UNL     1      38.953 -25.807 -14.706  0.00  0.00    -0.325 N 
ATOM     26  C   UNL     1      38.685 -25.108 -13.529  0.00  0.00    +0.244 C 
ATOM     27  H   UNL     1      39.875 -26.084 -14.916  0.00  0.00    +0.145 HD
ATOM     28  H   UNL     1      38.221 -26.025 -15.327  0.00  0.00    +0.145 HD
ENDBRANCH   6  26
TORSDOF 3
ENDMDL
MODEL 8
REMARK VINA RESULT:     -10.0      8.052     12.500
REMARK  Name = 24958200
REMARK  3 active torsions:
REMARK  status: ('A' for Active; 'I' for Inactive)
REMARK    1  A    between atoms: N_1  and  C_13
REMARK    2  A    between atoms: C_6  and  C_26
REMARK    3  A    between atoms: C_10  and  C_17
REMARK                            x       y       z     vdW  Elec       q    Type
REMARK                         _______ _______ _______ _____ _____    ______ ____
ROOT
ATOM      1  N   UNL     1      33.182 -11.258 -22.914  0.00  0.00    -0.189 N 
ATOM      2  N   UNL     1      32.823 -10.822 -21.691  0.00  0.00    -0.174 NA
ATOM      3  C   UNL     1      32.677  -9.189 -23.263  0.00  0.00    +0.036 C 
ATOM      4  C   UNL     1      33.113 -10.317 -23.900  0.00  0.00    +0.091 C 
ATOM      5  C   UNL     1      32.500  -9.529 -21.872  0.00  0.00    +0.105 C 
ATOM      6  C   UNL     1      32.054  -8.563 -20.950  0.00  0.00    +0.072 C 
ATOM      7  C   UNL     1      32.451  -7.957 -23.863  0.00  0.00    +0.003 C 
ATOM      8  C   UNL     1      31.816  -7.298 -21.530  0.00  0.00    +0.006 C 
ATOM      9  C   UNL     1      32.006  -7.011 -22.919  0.00  0.00    +0.000 C 
ENDROOT
BRANCH   1  13
ATOM     10  C   UNL     1      34.390 -15.216 -23.450  0.00  0.00    -0.024 C 
ATOM     11  C   UNL     1      33.823 -14.509 -24.511  0.00  0.00    -0.003 C 
ATOM     12  C   UNL     1      34.553 -14.599 -22.209  0.00  0.00    -0.003 C 
ATOM     13  C   UNL     1      33.581 -12.569 -23.092  0.00  0.00    +0.074 C 
ATOM     14  C   UNL     1      33.419 -13.187 -24.332  0.00  0.00    +0.016 C 
ATOM     15  C   UNL     1      34.149 -13.276 -22.030  0.00  0.00    +0.016 C 
BRANCH  10  17
ATOM     16  N   UNL     1      35.831 -18.650 -22.560  0.00  0.00    +0.384 N 
ATOM     17  C   UNL     1      34.828 -16.656 -23.644  0.00  0.00    +0.001 C 
ATOM     18  C   UNL     1      33.694 -17.526 -24.211  0.00  0.00    +0.000 C 
ATOM     19  C   UNL     1      35.387 -17.270 -22.347  0.00  0.00    -0.077 C 
ATOM     20  C   UNL     1      34.154 -18.976 -24.345  0.00  0.00    -0.023 C 
ATOM     21  C   UNL     1      34.737 -19.497 -23.035  0.00  0.00    -0.082 C 
ATOM     22  H   UNL     1      36.183 -19.025 -21.679  0.00  0.00    -0.085 HD
ATOM     23  H   UNL     1      36.564 -18.644 -23.271  0.00  0.00    -0.085 HD
ENDBRANCH  10  17
ENDBRANCH   1  13
BRANCH   6  26
ATOM     24  O   UNL     1      32.048  -7.961 -18.674  0.00  0.00    -0.270 OA
ATOM     25  N   UNL     1      31.418 -10.108 -19.177  0.00  0.00    -0.325 N 
ATOM     26  C   UNL     1      31.855  -8.834 -19.543  0.00  0.00    +0.244 C 
ATOM     27  H   UNL     1      31.273 -10.325 -18.227  0.00  0.00    +0.145 HD
ATOM     28  H   UNL     1      31.255 -10.790 -19.868  0.00  0.00    +0.145 HD
ENDBRANCH   6  26
TORSDOF 3
ENDMDL
MODEL 9
REMARK VINA RESULT:      -9.8      4.557      8.900
REMARK  Name = 24958200
REMARK  3 active torsions:
REMARK  status: ('A' for Active; 'I' for Inactive)
REMARK    1  A    between atoms: N_1  and  C_13
REMARK    2  A    between atoms: C_6  and  C_26
REMARK    3  A    between atoms: C_10  and  C_17
REMARK                            x       y       z     vdW  Elec       q    Type
REMARK                         _______ _______ _______ _____ _____    ______ ____
ROOT
ATOM      1  N   UNL     1      35.412 -21.638 -17.954  0.00  0.00    -0.189 N 
ATOM      2  N   UNL     1      36.192 -20.817 -18.684  0.00  0.00    -0.174 NA
ATOM      3  C   UNL     1      34.082 -20.959 -19.512  0.00  0.00    +0.036 C 
ATOM      4  C   UNL     1      34.131 -21.762 -18.407  0.00  0.00    +0.091 C 
ATOM      5  C   UNL     1      35.391 -20.372 -19.669  0.00  0.00    +0.105 C 
ATOM      6  C   UNL     1      35.657 -19.488 -20.731  0.00  0.00    +0.072 C 
ATOM      7  C   UNL     1      32.969 -20.759 -20.318  0.00  0.00    +0.003 C 
ATOM      8  C   UNL     1      34.543 -19.265 -21.570  0.00  0.00    +0.006 C 
ATOM      9  C   UNL     1      33.263 -19.871 -21.372  0.00  0.00    +0.000 C 
ENDROOT
BRANCH   1  13
ATOM     10  C   UNL     1      36.974 -23.571 -14.602  0.00  0.00    -0.024 C 
ATOM     11  C   UNL     1      37.801 -22.781 -15.400  0.00  0.00    -0.003 C 
ATOM     12  C   UNL     1      35.624 -23.714 -14.924  0.00  0.00    -0.003 C 
ATOM     13  C   UNL     1      35.930 -22.279 -16.844  0.00  0.00    +0.074 C 
ATOM     14  C   UNL     1      37.279 -22.135 -16.521  0.00  0.00    +0.016 C 
ATOM     15  C   UNL     1      35.102 -23.069 -16.045  0.00  0.00    +0.016 C 
BRANCH  10  17
ATOM     16  N   UNL     1      38.007 -24.097 -10.952  0.00  0.00    +0.384 N 
ATOM     17  C   UNL     1      37.542 -24.275 -13.383  0.00  0.00    +0.001 C 
ATOM     18  C   UNL     1      36.892 -25.651 -13.165  0.00  0.00    +0.000 C 
ATOM     19  C   UNL     1      37.428 -23.413 -12.112  0.00  0.00    -0.077 C 
ATOM     20  C   UNL     1      37.450 -26.308 -11.905  0.00  0.00    -0.023 C 
ATOM     21  C   UNL     1      37.345 -25.376 -10.700  0.00  0.00    -0.082 C 
ATOM     22  H   UNL     1      37.903 -23.501 -10.131  0.00  0.00    -0.085 HD
ATOM     23  H   UNL     1      38.992 -24.278 -11.146  0.00  0.00    -0.085 HD
ENDBRANCH  10  17
ENDBRANCH   1  13
BRANCH   6  26
ATOM     24  O   UNL     1      37.398 -18.680 -22.094  0.00  0.00    -0.270 OA
ATOM     25  N   UNL     1      37.668 -18.452 -19.829  0.00  0.00    -0.325 N 
ATOM     26  C   UNL     1      36.944 -18.865 -20.947  0.00  0.00    +0.244 C 
ATOM     27  H   UNL     1      38.548 -18.023 -19.942  0.00  0.00    +0.145 HD
ATOM     28  H   UNL     1      37.300 -18.587 -18.926  0.00  0.00    +0.145 HD
ENDBRANCH   6  26
TORSDOF 3
ENDMDL
