MODEL 1
REMARK VINA RESULT:     -12.8      0.000      0.000
REMARK  Name = 208951
REMARK  4 active torsions:
REMARK  status: ('A' for Active; 'I' for Inactive)
REMARK    1  A    between atoms: N_1  and  C_19
REMARK    2  A    between atoms: N_2  and  C_11
REMARK    3  A    between atoms: C_19  and  C_20
REMARK    4  A    between atoms: C_23  and  C_26
REMARK                            x       y       z     vdW  Elec       q    Type
REMARK                         _______ _______ _______ _____ _____    ______ ____
ROOT
ATOM      1  N   UNL     1      34.810 -16.291 -23.539  0.00  0.00    +0.392 N 
ATOM      2  N   UNL     1      33.522 -13.856 -22.782  0.00  0.00    -0.309 N 
ATOM      3  C   UNL     1      34.626 -15.957 -22.122  0.00  0.00    -0.055 C 
ATOM      4  C   UNL     1      33.685 -15.772 -24.325  0.00  0.00    -0.055 C 
ATOM      5  C   UNL     1      34.552 -14.442 -21.918  0.00  0.00    +0.068 C 
ATOM      6  C   UNL     1      33.580 -14.250 -24.196  0.00  0.00    +0.068 C 
ATOM      7  H   UNL     1      35.672 -15.856 -23.871  0.00  0.00    -0.079 HD
ENDROOT
BRANCH   2  11
ATOM      8  O   UNL     1      34.434 -11.344 -24.018  0.00  0.00    -0.406 OA
ATOM      9  O   UNL     1      35.271  -9.471 -25.088  0.00  0.00    -0.223 OA
ATOM     10  N   UNL     1      33.559  -9.278 -23.517  0.00  0.00    -0.287 N 
ATOM     11  C   UNL     1      32.985 -12.602 -22.471  0.00  0.00    +0.084 C 
ATOM     12  C   UNL     1      33.430 -11.429 -23.067  0.00  0.00    +0.179 A 
ATOM     13  C   UNL     1      31.948 -12.456 -21.526  0.00  0.00    +0.018 C 
ATOM     14  C   UNL     1      32.892 -10.199 -22.753  0.00  0.00    +0.098 A 
ATOM     15  C   UNL     1      31.406 -11.193 -21.213  0.00  0.00    +0.003 C 
ATOM     16  C   UNL     1      31.881 -10.036 -21.834  0.00  0.00    +0.020 C 
ATOM     17  C   UNL     1      34.489  -9.962 -24.282  0.00  0.00    +0.419 A 
ATOM     18  H   UNL     1      33.405  -8.306 -23.522  0.00  0.00    +0.172 HD
ENDBRANCH   2  11
BRANCH   1  19
ATOM     19  C   UNL     1      34.934 -17.737 -23.714  0.00  0.00    -0.050 C 
BRANCH  19  20
ATOM     20  C   UNL     1      35.563 -18.377 -22.506  0.00  0.00    -0.043 C 
ATOM     21  C   UNL     1      34.796 -19.195 -21.687  0.00  0.00    -0.006 C 
ATOM     22  C   UNL     1      36.903 -18.143 -22.227  0.00  0.00    -0.006 C 
ATOM     23  C   UNL     1      35.380 -19.789 -20.568  0.00  0.00    -0.000 C 
ATOM     24  C   UNL     1      37.486 -18.736 -21.109  0.00  0.00    -0.000 C 
ATOM     25  C   UNL     1      36.726 -19.559 -20.279  0.00  0.00    -0.000 C 
BRANCH  23  26
ATOM     26  C   UNL     1      34.592 -20.645 -19.708  0.00  0.00    -0.000 C 
ATOM     27  C   UNL     1      35.222 -21.564 -18.870  0.00  0.00    -0.000 C 
ATOM     28  C   UNL     1      33.199 -20.549 -19.716  0.00  0.00    -0.000 C 
ATOM     29  C   UNL     1      34.462 -22.388 -18.041  0.00  0.00    -0.000 C 
ATOM     30  C   UNL     1      32.440 -21.374 -18.887  0.00  0.00    -0.000 C 
ATOM     31  C   UNL     1      33.071 -22.293 -18.049  0.00  0.00    +0.000 C 
ENDBRANCH  23  26
ENDBRANCH  19  20
ENDBRANCH   1  19
TORSDOF 4
ENDMDL
MODEL 2
REMARK VINA RESULT:     -11.9      1.423      2.368
REMARK  Name = 208951
REMARK  4 active torsions:
REMARK  status: ('A' for Active; 'I' for Inactive)
REMARK    1  A    between atoms: N_1  and  C_19
REMARK    2  A    between atoms: N_2  and  C_11
REMARK    3  A    between atoms: C_19  and  C_20
REMARK    4  A    between atoms: C_23  and  C_26
REMARK                            x       y       z     vdW  Elec       q    Type
REMARK                         _______ _______ _______ _____ _____    ______ ____
ROOT
ATOM      1  N   UNL     1      34.545 -15.932 -23.643  0.00  0.00    +0.392 N 
ATOM      2  N   UNL     1      33.969 -13.137 -23.519  0.00  0.00    -0.309 N 
ATOM      3  C   UNL     1      34.217 -15.297 -22.361  0.00  0.00    -0.055 C 
ATOM      4  C   UNL     1      33.803 -15.278 -24.728  0.00  0.00    -0.055 C 
ATOM      5  C   UNL     1      34.586 -13.811 -22.373  0.00  0.00    +0.068 C 
ATOM      6  C   UNL     1      34.159 -13.792 -24.820  0.00  0.00    +0.068 C 
ATOM      7  H   UNL     1      35.544 -15.826 -23.818  0.00  0.00    -0.079 HD
ENDROOT
BRANCH   2  11
ATOM      8  O   UNL     1      32.040 -11.749 -21.780  0.00  0.00    -0.406 OA
ATOM      9  O   UNL     1      30.476 -10.825 -20.347  0.00  0.00    -0.223 OA
ATOM     10  N   UNL     1      31.760  -9.467 -21.740  0.00  0.00    -0.287 N 
ATOM     11  C   UNL     1      33.804 -11.747 -23.502  0.00  0.00    +0.084 C 
ATOM     12  C   UNL     1      32.888 -11.112 -22.673  0.00  0.00    +0.179 A 
ATOM     13  C   UNL     1      34.568 -10.902 -24.332  0.00  0.00    +0.018 C 
ATOM     14  C   UNL     1      32.735  -9.743 -22.663  0.00  0.00    +0.098 A 
ATOM     15  C   UNL     1      34.403  -9.502 -24.315  0.00  0.00    +0.003 C 
ATOM     16  C   UNL     1      33.471  -8.902 -23.466  0.00  0.00    +0.020 C 
ATOM     17  C   UNL     1      31.338 -10.673 -21.205  0.00  0.00    +0.419 A 
ATOM     18  H   UNL     1      31.422  -8.575 -21.501  0.00  0.00    +0.172 HD
ENDBRANCH   2  11
BRANCH   1  19
ATOM     19  C   UNL     1      34.238 -17.361 -23.601  0.00  0.00    -0.050 C 
BRANCH  19  20
ATOM     20  C   UNL     1      35.066 -18.062 -22.558  0.00  0.00    -0.043 C 
ATOM     21  C   UNL     1      34.455 -18.952 -21.684  0.00  0.00    -0.006 C 
ATOM     22  C   UNL     1      36.429 -17.811 -22.484  0.00  0.00    -0.006 C 
ATOM     23  C   UNL     1      35.223 -19.603 -20.718  0.00  0.00    -0.000 C 
ATOM     24  C   UNL     1      37.197 -18.461 -21.519  0.00  0.00    -0.000 C 
ATOM     25  C   UNL     1      36.594 -19.357 -20.636  0.00  0.00    -0.000 C 
BRANCH  23  26
ATOM     26  C   UNL     1      34.599 -20.533 -19.803  0.00  0.00    -0.000 C 
ATOM     27  C   UNL     1      33.209 -20.583 -19.699  0.00  0.00    -0.000 C 
ATOM     28  C   UNL     1      35.388 -21.381 -19.024  0.00  0.00    -0.000 C 
ATOM     29  C   UNL     1      32.607 -21.480 -18.817  0.00  0.00    -0.000 C 
ATOM     30  C   UNL     1      34.785 -22.278 -18.142  0.00  0.00    -0.000 C 
ATOM     31  C   UNL     1      33.395 -22.328 -18.039  0.00  0.00    +0.000 C 
ENDBRANCH  23  26
ENDBRANCH  19  20
ENDBRANCH   1  19
TORSDOF 4
ENDMDL
MODEL 3
REMARK VINA RESULT:     -11.6      5.018     10.283
REMARK  Name = 208951
REMARK  4 active torsions:
REMARK  status: ('A' for Active; 'I' for Inactive)
REMARK    1  A    between atoms: N_1  and  C_19
REMARK    2  A    between atoms: N_2  and  C_11
REMARK    3  A    between atoms: C_19  and  C_20
REMARK    4  A    between atoms: C_23  and  C_26
REMARK                            x       y       z     vdW  Elec       q    Type
REMARK                         _______ _______ _______ _____ _____    ______ ____
ROOT
ATOM      1  N   UNL     1      35.652 -20.237 -20.614  0.00  0.00    +0.392 N 
ATOM      2  N   UNL     1      34.381 -21.534 -18.409  0.00  0.00    -0.309 N 
ATOM      3  C   UNL     1      34.308 -19.830 -20.186  0.00  0.00    -0.055 C 
ATOM      4  C   UNL     1      36.438 -20.664 -19.451  0.00  0.00    -0.055 C 
ATOM      5  C   UNL     1      33.574 -20.987 -19.504  0.00  0.00    +0.068 C 
ATOM      6  C   UNL     1      35.775 -21.849 -18.744  0.00  0.00    +0.068 C 
ATOM      7  H   UNL     1      35.568 -21.021 -21.261  0.00  0.00    -0.079 HD
ENDROOT
BRANCH   2  11
ATOM      8  O   UNL     1      35.857 -22.835 -16.219  0.00  0.00    -0.406 OA
ATOM      9  O   UNL     1      37.174 -23.789 -14.572  0.00  0.00    -0.223 OA
ATOM     10  N   UNL     1      34.858 -24.057 -14.548  0.00  0.00    -0.287 N 
ATOM     11  C   UNL     1      33.764 -22.278 -17.396  0.00  0.00    +0.084 C 
ATOM     12  C   UNL     1      34.481 -22.883 -16.371  0.00  0.00    +0.179 A 
ATOM     13  C   UNL     1      32.367 -22.456 -17.356  0.00  0.00    +0.018 C 
ATOM     14  C   UNL     1      33.863 -23.612 -15.378  0.00  0.00    +0.098 A 
ATOM     15  C   UNL     1      31.745 -23.204 -16.335  0.00  0.00    +0.003 C 
ATOM     16  C   UNL     1      32.501 -23.797 -15.322  0.00  0.00    +0.020 C 
ATOM     17  C   UNL     1      36.063 -23.592 -15.050  0.00  0.00    +0.419 A 
ATOM     18  H   UNL     1      34.739 -24.608 -13.741  0.00  0.00    +0.172 HD
ENDBRANCH   2  11
BRANCH   1  19
ATOM     19  C   UNL     1      36.322 -19.140 -21.311  0.00  0.00    -0.050 C 
BRANCH  19  20
ATOM     20  C   UNL     1      35.453 -18.583 -22.406  0.00  0.00    -0.043 C 
ATOM     21  C   UNL     1      35.230 -17.214 -22.473  0.00  0.00    -0.006 C 
ATOM     22  C   UNL     1      34.886 -19.444 -23.336  0.00  0.00    -0.006 C 
ATOM     23  C   UNL     1      34.425 -16.698 -23.489  0.00  0.00    -0.000 C 
ATOM     24  C   UNL     1      34.082 -18.928 -24.351  0.00  0.00    -0.000 C 
ATOM     25  C   UNL     1      33.851 -17.555 -24.427  0.00  0.00    -0.000 C 
BRANCH  23  26
ATOM     26  C   UNL     1      34.187 -15.273 -23.570  0.00  0.00    -0.000 C 
ATOM     27  C   UNL     1      33.703 -14.712 -24.752  0.00  0.00    -0.000 C 
ATOM     28  C   UNL     1      34.441 -14.459 -22.465  0.00  0.00    -0.000 C 
ATOM     29  C   UNL     1      33.472 -13.339 -24.830  0.00  0.00    -0.000 C 
ATOM     30  C   UNL     1      34.212 -13.086 -22.544  0.00  0.00    -0.000 C 
ATOM     31  C   UNL     1      33.726 -12.526 -23.726  0.00  0.00    +0.000 C 
ENDBRANCH  23  26
ENDBRANCH  19  20
ENDBRANCH   1  19
TORSDOF 4
ENDMDL
MODEL 4
REMARK VINA RESULT:     -11.1      1.326      2.336
REMARK  Name = 208951
REMARK  4 active torsions:
REMARK  status: ('A' for Active; 'I' for Inactive)
REMARK    1  A    between atoms: N_1  and  C_19
REMARK    2  A    between atoms: N_2  and  C_11
REMARK    3  A    between atoms: C_19  and  C_20
REMARK    4  A    between atoms: C_23  and  C_26
REMARK                            x       y       z     vdW  Elec       q    Type
REMARK                         _______ _______ _______ _____ _____    ______ ____
ROOT
ATOM      1  N   UNL     1      34.378 -14.915 -22.866  0.00  0.00    +0.392 N 
ATOM      2  N   UNL     1      33.216 -12.348 -22.400  0.00  0.00    -0.309 N 
ATOM      3  C   UNL     1      34.414 -13.882 -23.909  0.00  0.00    -0.055 C 
ATOM      4  C   UNL     1      34.467 -14.290 -21.541  0.00  0.00    -0.055 C 
ATOM      5  C   UNL     1      33.246 -12.905 -23.756  0.00  0.00    +0.068 C 
ATOM      6  C   UNL     1      33.300 -13.327 -21.309  0.00  0.00    +0.068 C 
ATOM      7  H   UNL     1      33.494 -15.420 -22.933  0.00  0.00    -0.079 HD
ENDROOT
BRANCH   2  11
ATOM      8  O   UNL     1      34.096  -9.736 -23.438  0.00  0.00    -0.406 OA
ATOM      9  O   UNL     1      34.930  -7.773 -24.334  0.00  0.00    -0.223 OA
ATOM     10  N   UNL     1      32.987  -7.761 -23.047  0.00  0.00    -0.287 N 
ATOM     11  C   UNL     1      32.535 -11.149 -22.156  0.00  0.00    +0.084 C 
ATOM     12  C   UNL     1      32.968  -9.927 -22.656  0.00  0.00    +0.179 A 
ATOM     13  C   UNL     1      31.357 -11.112 -21.382  0.00  0.00    +0.018 C 
ATOM     14  C   UNL     1      32.289  -8.754 -22.411  0.00  0.00    +0.098 A 
ATOM     15  C   UNL     1      30.671  -9.905 -21.136  0.00  0.00    +0.003 C 
ATOM     16  C   UNL     1      31.139  -8.698 -21.658  0.00  0.00    +0.020 C 
ATOM     17  C   UNL     1      34.078  -8.348 -23.668  0.00  0.00    +0.419 A 
ATOM     18  H   UNL     1      32.756  -6.805 -23.060  0.00  0.00    +0.172 HD
ENDBRANCH   2  11
BRANCH   1  19
ATOM     19  C   UNL     1      35.466 -15.872 -23.056  0.00  0.00    -0.050 C 
BRANCH  19  20
ATOM     20  C   UNL     1      34.950 -17.286 -23.062  0.00  0.00    -0.043 C 
ATOM     21  C   UNL     1      35.041 -18.052 -21.907  0.00  0.00    -0.006 C 
ATOM     22  C   UNL     1      34.389 -17.805 -24.221  0.00  0.00    -0.006 C 
ATOM     23  C   UNL     1      34.561 -19.362 -21.913  0.00  0.00    -0.000 C 
ATOM     24  C   UNL     1      33.910 -19.114 -24.226  0.00  0.00    -0.000 C 
ATOM     25  C   UNL     1      33.996 -19.893 -23.073  0.00  0.00    -0.000 C 
BRANCH  23  26
ATOM     26  C   UNL     1      34.649 -20.170 -20.716  0.00  0.00    -0.000 C 
ATOM     27  C   UNL     1      33.486 -20.594 -20.073  0.00  0.00    -0.000 C 
ATOM     28  C   UNL     1      35.897 -20.527 -20.205  0.00  0.00    -0.000 C 
ATOM     29  C   UNL     1      33.570 -21.373 -18.920  0.00  0.00    -0.000 C 
ATOM     30  C   UNL     1      35.981 -21.306 -19.051  0.00  0.00    -0.000 C 
ATOM     31  C   UNL     1      34.818 -21.730 -18.409  0.00  0.00    +0.000 C 
ENDBRANCH  23  26
ENDBRANCH  19  20
ENDBRANCH   1  19
TORSDOF 4
ENDMDL
MODEL 5
REMARK VINA RESULT:     -10.9      7.321     12.448
REMARK  Name = 208951
REMARK  4 active torsions:
REMARK  status: ('A' for Active; 'I' for Inactive)
REMARK    1  A    between atoms: N_1  and  C_19
REMARK    2  A    between atoms: N_2  and  C_11
REMARK    3  A    between atoms: C_19  and  C_20
REMARK    4  A    between atoms: C_23  and  C_26
REMARK                            x       y       z     vdW  Elec       q    Type
REMARK                         _______ _______ _______ _____ _____    ______ ____
ROOT
ATOM      1  N   UNL     1      36.482 -21.750 -17.106  0.00  0.00    +0.392 N 
ATOM      2  N   UNL     1      36.468 -23.210 -14.651  0.00  0.00    -0.309 N 
ATOM      3  C   UNL     1      37.740 -22.052 -16.413  0.00  0.00    -0.055 C 
ATOM      4  C   UNL     1      35.523 -22.841 -16.897  0.00  0.00    -0.055 C 
ATOM      5  C   UNL     1      37.514 -22.216 -14.908  0.00  0.00    +0.068 C 
ATOM      6  C   UNL     1      35.222 -23.032 -15.408  0.00  0.00    +0.068 C 
ATOM      7  H   UNL     1      36.092 -20.890 -16.719  0.00  0.00    -0.079 HD
ENDROOT
BRANCH   2  11
ATOM      8  O   UNL     1      37.690 -25.821 -14.052  0.00  0.00    -0.406 OA
ATOM      9  O   UNL     1      38.712 -27.876 -13.758  0.00  0.00    -0.223 OA
ATOM     10  N   UNL     1      37.574 -26.851 -12.000  0.00  0.00    -0.287 N 
ATOM     11  C   UNL     1      36.391 -23.830 -13.398  0.00  0.00    +0.084 C 
ATOM     12  C   UNL     1      36.976 -25.063 -13.138  0.00  0.00    +0.179 A 
ATOM     13  C   UNL     1      35.711 -23.233 -12.318  0.00  0.00    +0.018 C 
ATOM     14  C   UNL     1      36.895 -25.664 -11.900  0.00  0.00    +0.098 A 
ATOM     15  C   UNL     1      35.634 -23.858 -11.056  0.00  0.00    +0.003 C 
ATOM     16  C   UNL     1      36.236 -25.098 -10.834  0.00  0.00    +0.020 C 
ATOM     17  C   UNL     1      38.055 -26.950 -13.296  0.00  0.00    +0.419 A 
ATOM     18  H   UNL     1      37.697 -27.512 -11.282  0.00  0.00    +0.172 HD
ENDBRANCH   2  11
BRANCH   1  19
ATOM     19  C   UNL     1      36.720 -21.542 -18.533  0.00  0.00    -0.050 C 
BRANCH  19  20
ATOM     20  C   UNL     1      35.477 -21.052 -19.224  0.00  0.00    -0.043 C 
ATOM     21  C   UNL     1      35.588 -20.158 -20.282  0.00  0.00    -0.006 C 
ATOM     22  C   UNL     1      34.234 -21.501 -18.797  0.00  0.00    -0.006 C 
ATOM     23  C   UNL     1      34.435 -19.706 -20.923  0.00  0.00    -0.000 C 
ATOM     24  C   UNL     1      33.082 -21.048 -19.438  0.00  0.00    -0.000 C 
ATOM     25  C   UNL     1      33.182 -20.150 -20.500  0.00  0.00    -0.000 C 
BRANCH  23  26
ATOM     26  C   UNL     1      34.538 -18.776 -22.027  0.00  0.00    -0.000 C 
ATOM     27  C   UNL     1      34.000 -19.106 -23.270  0.00  0.00    -0.000 C 
ATOM     28  C   UNL     1      35.175 -17.547 -21.847  0.00  0.00    -0.000 C 
ATOM     29  C   UNL     1      34.099 -18.210 -24.334  0.00  0.00    -0.000 C 
ATOM     30  C   UNL     1      35.275 -16.651 -22.910  0.00  0.00    -0.000 C 
ATOM     31  C   UNL     1      34.736 -16.982 -24.154  0.00  0.00    +0.000 C 
ENDBRANCH  23  26
ENDBRANCH  19  20
ENDBRANCH   1  19
TORSDOF 4
ENDMDL
MODEL 6
REMARK VINA RESULT:     -10.8      6.852     12.060
REMARK  Name = 208951
REMARK  4 active torsions:
REMARK  status: ('A' for Active; 'I' for Inactive)
REMARK    1  A    between atoms: N_1  and  C_19
REMARK    2  A    between atoms: N_2  and  C_11
REMARK    3  A    between atoms: C_19  and  C_20
REMARK    4  A    between atoms: C_23  and  C_26
REMARK                            x       y       z     vdW  Elec       q    Type
REMARK                         _______ _______ _______ _____ _____    ______ ____
ROOT
ATOM      1  N   UNL     1      34.323 -21.964 -17.702  0.00  0.00    +0.392 N 
ATOM      2  N   UNL     1      35.265 -23.373 -15.403  0.00  0.00    -0.309 N 
ATOM      3  C   UNL     1      35.761 -22.172 -17.495  0.00  0.00    -0.055 C 
ATOM      4  C   UNL     1      33.572 -23.109 -17.175  0.00  0.00    -0.055 C 
ATOM      5  C   UNL     1      36.087 -22.320 -16.007  0.00  0.00    +0.068 C 
ATOM      6  C   UNL     1      33.824 -23.289 -15.676  0.00  0.00    +0.068 C 
ATOM      7  H   UNL     1      34.036 -21.123 -17.201  0.00  0.00    -0.079 HD
ENDROOT
BRANCH   2  11
ATOM      8  O   UNL     1      36.325 -26.115 -15.235  0.00  0.00    -0.406 OA
ATOM      9  O   UNL     1      37.136 -28.281 -15.287  0.00  0.00    -0.223 OA
ATOM     10  N   UNL     1      37.000 -27.110 -13.276  0.00  0.00    -0.287 N 
ATOM     11  C   UNL     1      35.673 -23.972 -14.205  0.00  0.00    +0.084 C 
ATOM     12  C   UNL     1      36.170 -25.268 -14.149  0.00  0.00    +0.179 A 
ATOM     13  C   UNL     1      35.603 -23.287 -12.975  0.00  0.00    +0.018 C 
ATOM     14  C   UNL     1      36.570 -25.847 -12.964  0.00  0.00    +0.098 A 
ATOM     15  C   UNL     1      36.014 -23.890 -11.769  0.00  0.00    +0.003 C 
ATOM     16  C   UNL     1      36.509 -25.195 -11.754  0.00  0.00    +0.020 C 
ATOM     17  C   UNL     1      36.854 -27.277 -14.643  0.00  0.00    +0.419 A 
ATOM     18  H   UNL     1      37.349 -27.778 -12.643  0.00  0.00    +0.172 HD
ENDBRANCH   2  11
BRANCH   1  19
ATOM     19  C   UNL     1      34.032 -21.770 -19.122  0.00  0.00    -0.050 C 
BRANCH  19  20
ATOM     20  C   UNL     1      34.998 -20.799 -19.745  0.00  0.00    -0.043 C 
ATOM     21  C   UNL     1      34.560 -19.952 -20.756  0.00  0.00    -0.006 C 
ATOM     22  C   UNL     1      36.313 -20.761 -19.302  0.00  0.00    -0.006 C 
ATOM     23  C   UNL     1      35.456 -19.051 -21.332  0.00  0.00    -0.000 C 
ATOM     24  C   UNL     1      37.208 -19.861 -19.879  0.00  0.00    -0.000 C 
ATOM     25  C   UNL     1      36.780 -19.006 -20.894  0.00  0.00    -0.000 C 
BRANCH  23  26
ATOM     26  C   UNL     1      35.012 -18.163 -22.385  0.00  0.00    -0.000 C 
ATOM     27  C   UNL     1      35.291 -16.798 -22.310  0.00  0.00    -0.000 C 
ATOM     28  C   UNL     1      34.305 -18.671 -23.475  0.00  0.00    -0.000 C 
ATOM     29  C   UNL     1      34.863 -15.942 -23.324  0.00  0.00    -0.000 C 
ATOM     30  C   UNL     1      33.877 -17.815 -24.489  0.00  0.00    -0.000 C 
ATOM     31  C   UNL     1      34.157 -16.450 -24.414  0.00  0.00    +0.000 C 
ENDBRANCH  23  26
ENDBRANCH  19  20
ENDBRANCH   1  19
TORSDOF 4
ENDMDL
MODEL 7
REMARK VINA RESULT:     -10.8      3.251     10.461
REMARK  Name = 208951
REMARK  4 active torsions:
REMARK  status: ('A' for Active; 'I' for Inactive)
REMARK    1  A    between atoms: N_1  and  C_19
REMARK    2  A    between atoms: N_2  and  C_11
REMARK    3  A    between atoms: C_19  and  C_20
REMARK    4  A    between atoms: C_23  and  C_26
REMARK                            x       y       z     vdW  Elec       q    Type
REMARK                         _______ _______ _______ _____ _____    ______ ____
ROOT
ATOM      1  N   UNL     1      33.462 -12.488 -22.594  0.00  0.00    +0.392 N 
ATOM      2  N   UNL     1      34.269 -15.228 -22.637  0.00  0.00    -0.309 N 
ATOM      3  C   UNL     1      33.199 -13.322 -23.773  0.00  0.00    -0.055 C 
ATOM      4  C   UNL     1      33.382 -13.304 -21.377  0.00  0.00    -0.055 C 
ATOM      5  C   UNL     1      34.219 -14.457 -23.883  0.00  0.00    +0.068 C 
ATOM      6  C   UNL     1      34.410 -14.438 -21.407  0.00  0.00    +0.068 C 
ATOM      7  H   UNL     1      34.403 -12.100 -22.669  0.00  0.00    -0.079 HD
ENDROOT
BRANCH   2  11
ATOM      8  O   UNL     1      33.144 -17.413 -24.260  0.00  0.00    -0.406 OA
ATOM      9  O   UNL     1      32.135 -19.008 -25.598  0.00  0.00    -0.223 OA
ATOM     10  N   UNL     1      33.980 -19.554 -24.283  0.00  0.00    -0.287 N 
ATOM     11  C   UNL     1      34.784 -16.530 -22.645  0.00  0.00    +0.084 C 
ATOM     12  C   UNL     1      34.237 -17.546 -23.419  0.00  0.00    +0.179 A 
ATOM     13  C   UNL     1      35.899 -16.888 -21.861  0.00  0.00    +0.018 C 
ATOM     14  C   UNL     1      34.754 -18.823 -23.419  0.00  0.00    +0.098 A 
ATOM     15  C   UNL     1      36.418 -18.199 -21.868  0.00  0.00    +0.003 C 
ATOM     16  C   UNL     1      35.841 -19.192 -22.661  0.00  0.00    +0.020 C 
ATOM     17  C   UNL     1      33.009 -18.708 -24.793  0.00  0.00    +0.419 A 
ATOM     18  H   UNL     1      34.095 -20.506 -24.502  0.00  0.00    +0.172 HD
ENDBRANCH   2  11
BRANCH   1  19
ATOM     19  C   UNL     1      32.514 -11.377 -22.530  0.00  0.00    -0.050 C 
BRANCH  19  20
ATOM     20  C   UNL     1      33.167 -10.083 -22.934  0.00  0.00    -0.043 C 
ATOM     21  C   UNL     1      32.544  -8.879 -22.632  0.00  0.00    -0.006 C 
ATOM     22  C   UNL     1      34.384 -10.110 -23.602  0.00  0.00    -0.006 C 
ATOM     23  C   UNL     1      33.151  -7.680 -23.006  0.00  0.00    -0.000 C 
ATOM     24  C   UNL     1      34.990  -8.911 -23.975  0.00  0.00    -0.000 C 
ATOM     25  C   UNL     1      34.373  -7.696 -23.678  0.00  0.00    -0.000 C 
BRANCH  23  26
ATOM     26  C   UNL     1      32.513  -6.418 -22.697  0.00  0.00    -0.000 C 
ATOM     27  C   UNL     1      31.460  -6.375 -21.782  0.00  0.00    -0.000 C 
ATOM     28  C   UNL     1      32.951  -5.245 -23.313  0.00  0.00    -0.000 C 
ATOM     29  C   UNL     1      30.846  -5.159 -21.483  0.00  0.00    -0.000 C 
ATOM     30  C   UNL     1      32.335  -4.030 -23.014  0.00  0.00    -0.000 C 
ATOM     31  C   UNL     1      31.283  -3.987 -22.099  0.00  0.00    +0.000 C 
ENDBRANCH  23  26
ENDBRANCH  19  20
ENDBRANCH   1  19
TORSDOF 4
ENDMDL
MODEL 8
REMARK VINA RESULT:     -10.5      3.190      5.610
REMARK  Name = 208951
REMARK  4 active torsions:
REMARK  status: ('A' for Active; 'I' for Inactive)
REMARK    1  A    between atoms: N_1  and  C_19
REMARK    2  A    between atoms: N_2  and  C_11
REMARK    3  A    between atoms: C_19  and  C_20
REMARK    4  A    between atoms: C_23  and  C_26
REMARK                            x       y       z     vdW  Elec       q    Type
REMARK                         _______ _______ _______ _____ _____    ______ ____
ROOT
ATOM      1  N   UNL     1      33.962 -11.101 -23.448  0.00  0.00    +0.392 N 
ATOM      2  N   UNL     1      32.884  -8.461 -23.286  0.00  0.00    -0.309 N 
ATOM      3  C   UNL     1      32.527 -10.897 -23.212  0.00  0.00    -0.055 C 
ATOM      4  C   UNL     1      34.483 -10.033 -24.309  0.00  0.00    -0.055 C 
ATOM      5  C   UNL     1      32.268  -9.553 -22.526  0.00  0.00    +0.068 C 
ATOM      6  C   UNL     1      34.290  -8.660 -23.659  0.00  0.00    +0.068 C 
ATOM      7  H   UNL     1      34.450 -11.070 -22.552  0.00  0.00    -0.079 HD
ENDROOT
BRANCH   2  11
ATOM      8  O   UNL     1      32.835  -7.099 -20.675  0.00  0.00    -0.406 OA
ATOM      9  O   UNL     1      32.869  -6.184 -18.550  0.00  0.00    -0.223 OA
ATOM     10  N   UNL     1      32.097  -4.944 -20.367  0.00  0.00    -0.287 N 
ATOM     11  C   UNL     1      32.432  -7.148 -23.107  0.00  0.00    +0.084 C 
ATOM     12  C   UNL     1      32.418  -6.525 -21.865  0.00  0.00    +0.179 A 
ATOM     13  C   UNL     1      31.961  -6.375 -24.187  0.00  0.00    +0.018 C 
ATOM     14  C   UNL     1      31.971  -5.231 -21.701  0.00  0.00    +0.098 A 
ATOM     15  C   UNL     1      31.506  -5.052 -24.007  0.00  0.00    +0.003 C 
ATOM     16  C   UNL     1      31.508  -4.461 -22.742  0.00  0.00    +0.020 C 
ATOM     17  C   UNL     1      32.618  -6.067 -19.744  0.00  0.00    +0.419 A 
ATOM     18  H   UNL     1      31.861  -4.095 -19.931  0.00  0.00    +0.172 HD
ENDBRANCH   2  11
BRANCH   1  19
ATOM     19  C   UNL     1      34.200 -12.410 -24.053  0.00  0.00    -0.050 C 
BRANCH  19  20
ATOM     20  C   UNL     1      34.335 -13.478 -23.001  0.00  0.00    -0.043 C 
ATOM     21  C   UNL     1      34.485 -14.803 -23.387  0.00  0.00    -0.006 C 
ATOM     22  C   UNL     1      34.308 -13.123 -21.659  0.00  0.00    -0.006 C 
ATOM     23  C   UNL     1      34.611 -15.792 -22.410  0.00  0.00    -0.000 C 
ATOM     24  C   UNL     1      34.433 -14.112 -20.684  0.00  0.00    -0.000 C 
ATOM     25  C   UNL     1      34.584 -15.446 -21.059  0.00  0.00    -0.000 C 
BRANCH  23  26
ATOM     26  C   UNL     1      34.770 -17.177 -22.800  0.00  0.00    -0.000 C 
ATOM     27  C   UNL     1      35.480 -18.055 -21.981  0.00  0.00    -0.000 C 
ATOM     28  C   UNL     1      34.211 -17.635 -23.994  0.00  0.00    -0.000 C 
ATOM     29  C   UNL     1      35.633 -19.390 -22.356  0.00  0.00    -0.000 C 
ATOM     30  C   UNL     1      34.364 -18.969 -24.369  0.00  0.00    -0.000 C 
ATOM     31  C   UNL     1      35.075 -19.847 -23.549  0.00  0.00    +0.000 C 
ENDBRANCH  23  26
ENDBRANCH  19  20
ENDBRANCH   1  19
TORSDOF 4
ENDMDL
MODEL 9
REMARK VINA RESULT:     -10.4      3.146      9.955
REMARK  Name = 208951
REMARK  4 active torsions:
REMARK  status: ('A' for Active; 'I' for Inactive)
REMARK    1  A    between atoms: N_1  and  C_19
REMARK    2  A    between atoms: N_2  and  C_11
REMARK    3  A    between atoms: C_19  and  C_20
REMARK    4  A    between atoms: C_23  and  C_26
REMARK                            x       y       z     vdW  Elec       q    Type
REMARK                         _______ _______ _______ _____ _____    ______ ____
ROOT
ATOM      1  N   UNL     1      33.962 -14.738 -23.185  0.00  0.00    +0.392 N 
ATOM      2  N   UNL     1      35.226 -16.935 -21.868  0.00  0.00    -0.309 N 
ATOM      3  C   UNL     1      34.653 -14.539 -21.906  0.00  0.00    -0.055 C 
ATOM      4  C   UNL     1      34.644 -15.777 -23.965  0.00  0.00    -0.055 C 
ATOM      5  C   UNL     1      34.668 -15.830 -21.082  0.00  0.00    +0.068 C 
ATOM      6  C   UNL     1      34.658 -17.110 -23.211  0.00  0.00    +0.068 C 
ATOM      7  H   UNL     1      33.005 -15.040 -22.999  0.00  0.00    -0.079 HD
ENDROOT
BRANCH   2  11
ATOM      8  O   UNL     1      33.538 -19.151 -20.913  0.00  0.00    -0.406 OA
ATOM      9  O   UNL     1      32.065 -20.799 -20.230  0.00  0.00    -0.223 OA
ATOM     10  N   UNL     1      34.354 -21.014 -19.843  0.00  0.00    -0.287 N 
ATOM     11  C   UNL     1      35.731 -18.066 -21.216  0.00  0.00    +0.084 C 
ATOM     12  C   UNL     1      34.916 -19.100 -20.774  0.00  0.00    +0.179 A 
ATOM     13  C   UNL     1      37.110 -18.223 -20.970  0.00  0.00    +0.018 C 
ATOM     14  C   UNL     1      35.425 -20.210 -20.134  0.00  0.00    +0.098 A 
ATOM     15  C   UNL     1      37.619 -19.362 -20.313  0.00  0.00    +0.003 C 
ATOM     16  C   UNL     1      36.767 -20.381 -19.884  0.00  0.00    +0.020 C 
ATOM     17  C   UNL     1      33.214 -20.381 -20.310  0.00  0.00    +0.419 A 
ATOM     18  H   UNL     1      34.388 -21.884 -19.385  0.00  0.00    +0.172 HD
ENDBRANCH   2  11
BRANCH   1  19
ATOM     19  C   UNL     1      33.907 -13.485 -23.938  0.00  0.00    -0.050 C 
BRANCH  19  20
ATOM     20  C   UNL     1      33.212 -12.409 -23.149  0.00  0.00    -0.043 C 
ATOM     21  C   UNL     1      33.503 -11.076 -23.407  0.00  0.00    -0.006 C 
ATOM     22  C   UNL     1      32.289 -12.762 -22.173  0.00  0.00    -0.006 C 
ATOM     23  C   UNL     1      32.857 -10.078 -22.676  0.00  0.00    -0.000 C 
ATOM     24  C   UNL     1      31.645 -11.765 -21.443  0.00  0.00    -0.000 C 
ATOM     25  C   UNL     1      31.929 -10.423 -21.693  0.00  0.00    -0.000 C 
BRANCH  23  26
ATOM     26  C   UNL     1      33.150  -8.685 -22.937  0.00  0.00    -0.000 C 
ATOM     27  C   UNL     1      34.456  -8.288 -23.222  0.00  0.00    -0.000 C 
ATOM     28  C   UNL     1      32.125  -7.738 -22.904  0.00  0.00    -0.000 C 
ATOM     29  C   UNL     1      34.739  -6.946 -23.474  0.00  0.00    -0.000 C 
ATOM     30  C   UNL     1      32.408  -6.396 -23.155  0.00  0.00    -0.000 C 
ATOM     31  C   UNL     1      33.715  -6.000 -23.441  0.00  0.00    +0.000 C 
ENDBRANCH  23  26
ENDBRANCH  19  20
ENDBRANCH   1  19
TORSDOF 4
ENDMDL
