MODEL 1
REMARK VINA RESULT:     -12.2      0.000      0.000
REMARK  Name = 216239
REMARK  6 active torsions:
REMARK  status: ('A' for Active; 'I' for Inactive)
REMARK    1  A    between atoms: C_1  and  N_9
REMARK    2  A    between atoms: C_2  and  O_24
REMARK    3  A    between atoms: N_8  and  C_14
REMARK    4  A    between atoms: C_15  and  C_23
REMARK    5  A    between atoms: O_24  and  C_26
REMARK    6  A    between atoms: C_28  and  C_33
REMARK                            x       y       z     vdW  Elec       q    Type
REMARK                         _______ _______ _______ _____ _____    ______ ____
ROOT
ATOM      1  C   UNL     1      33.788 -13.677 -22.912  0.00  0.00    +0.052 C 
ATOM      2  C   UNL     1      34.651 -16.280 -23.303  0.00  0.00    +0.145 C 
ATOM      3  C   UNL     1      34.451 -14.331 -21.889  0.00  0.00    +0.018 C 
ATOM      4  C   UNL     1      33.546 -14.296 -24.128  0.00  0.00    +0.018 C 
ATOM      5  C   UNL     1      34.887 -15.642 -22.085  0.00  0.00    +0.039 C 
ATOM      6  C   UNL     1      33.980 -15.607 -24.324  0.00  0.00    +0.039 C 
ENDROOT
BRANCH   1   9
ATOM      7  O   UNL     1      34.705 -11.133 -24.178  0.00  0.00    -0.252 OA
ATOM      8  N   UNL     1      33.103 -10.055 -22.852  0.00  0.00    -0.268 N 
ATOM      9  N   UNL     1      33.347 -12.348 -22.713  0.00  0.00    -0.268 N 
ATOM     10  C   UNL     1      33.814 -11.180 -23.337  0.00  0.00    +0.308 C 
ATOM     11  H   UNL     1      32.413 -10.245 -22.175  0.00  0.00    +0.156 HD
ATOM     12  H   UNL     1      32.624 -12.226 -22.056  0.00  0.00    +0.156 HD
BRANCH   8  14
ATOM     13 CL   UNL     1      33.766  -4.378 -24.358  0.00  0.00    -0.082 Cl
ATOM     14  C   UNL     1      33.249  -8.713 -23.204  0.00  0.00    +0.052 C 
ATOM     15  C   UNL     1      32.394  -6.454 -23.247  0.00  0.00    +0.083 C 
ATOM     16  C   UNL     1      32.246  -7.796 -22.895  0.00  0.00    +0.019 C 
ATOM     17  C   UNL     1      34.402  -8.289 -23.867  0.00  0.00    +0.016 C 
ATOM     18  C   UNL     1      33.546  -6.030 -23.909  0.00  0.00    +0.062 C 
ATOM     19  C   UNL     1      34.550  -6.948 -24.218  0.00  0.00    +0.013 C 
BRANCH  15  23
ATOM     20  F   UNL     1      31.708  -4.462 -22.115  0.00  0.00    -0.166 F 
ATOM     21  F   UNL     1      30.708  -4.926 -23.983  0.00  0.00    -0.166 F 
ATOM     22  F   UNL     1      30.286  -6.104 -22.205  0.00  0.00    -0.166 F 
ATOM     23  C   UNL     1      31.296  -5.502 -22.896  0.00  0.00    +0.419 C 
ENDBRANCH  15  23
ENDBRANCH   8  14
ENDBRANCH   1   9
BRANCH   2  24
ATOM     24  O   UNL     1      35.074 -17.559 -23.494  0.00  0.00    -0.453 OA
BRANCH  24  26
ATOM     25  N   UNL     1      35.915 -19.841 -20.123  0.00  0.00    -0.239 NA
ATOM     26  C   UNL     1      35.354 -18.319 -22.370  0.00  0.00    +0.149 C 
ATOM     27  C   UNL     1      34.339 -19.033 -21.770  0.00  0.00    +0.061 C 
ATOM     28  C   UNL     1      34.671 -19.778 -20.650  0.00  0.00    +0.137 C 
ATOM     29  C   UNL     1      36.642 -18.345 -21.878  0.00  0.00    +0.058 C 
ATOM     30  C   UNL     1      36.870 -19.120 -20.752  0.00  0.00    +0.102 C 
BRANCH  28  33
ATOM     31  O   UNL     1      32.458 -20.464 -20.286  0.00  0.00    -0.268 OA
ATOM     32  N   UNL     1      34.094 -21.422 -18.951  0.00  0.00    -0.298 N 
ATOM     33  C   UNL     1      33.656 -20.558 -19.962  0.00  0.00    +0.264 C 
ATOM     34  C   UNL     1      33.209 -22.279 -18.193  0.00  0.00    +0.111 C 
ATOM     35  H   UNL     1      35.056 -21.448 -18.744  0.00  0.00    +0.150 HD
ENDBRANCH  28  33
ENDBRANCH  24  26
ENDBRANCH   2  24
TORSDOF 6
ENDMDL
MODEL 2
REMARK VINA RESULT:     -12.1      2.086      2.979
REMARK  Name = 216239
REMARK  6 active torsions:
REMARK  status: ('A' for Active; 'I' for Inactive)
REMARK    1  A    between atoms: C_1  and  N_9
REMARK    2  A    between atoms: C_2  and  O_24
REMARK    3  A    between atoms: N_8  and  C_14
REMARK    4  A    between atoms: C_15  and  C_23
REMARK    5  A    between atoms: O_24  and  C_26
REMARK    6  A    between atoms: C_28  and  C_33
REMARK                            x       y       z     vdW  Elec       q    Type
REMARK                         _______ _______ _______ _____ _____    ______ ____
ROOT
ATOM      1  C   UNL     1      34.478 -15.902 -23.400  0.00  0.00    +0.052 C 
ATOM      2  C   UNL     1      35.142 -18.441 -22.514  0.00  0.00    +0.145 C 
ATOM      3  C   UNL     1      35.087 -16.051 -22.166  0.00  0.00    +0.018 C 
ATOM      4  C   UNL     1      34.193 -16.994 -24.202  0.00  0.00    +0.018 C 
ATOM      5  C   UNL     1      35.422 -17.330 -21.720  0.00  0.00    +0.039 C 
ATOM      6  C   UNL     1      34.527 -18.274 -23.755  0.00  0.00    +0.039 C 
ENDROOT
BRANCH   1   9
ATOM      7  O   UNL     1      34.811 -13.250 -22.067  0.00  0.00    -0.252 OA
ATOM      8  N   UNL     1      33.844 -12.317 -23.986  0.00  0.00    -0.268 N 
ATOM      9  N   UNL     1      34.139 -14.604 -23.851  0.00  0.00    -0.268 N 
ATOM     10  C   UNL     1      34.318 -13.382 -23.182  0.00  0.00    +0.308 C 
ATOM     11  H   UNL     1      33.471 -12.574 -24.860  0.00  0.00    +0.156 HD
ATOM     12  H   UNL     1      33.728 -14.551 -24.743  0.00  0.00    +0.156 HD
BRANCH   8  14
ATOM     13 CL   UNL     1      33.828  -6.524 -22.814  0.00  0.00    -0.082 Cl
ATOM     14  C   UNL     1      33.831 -10.951 -23.703  0.00  0.00    +0.052 C 
ATOM     15  C   UNL     1      32.900  -9.069 -22.509  0.00  0.00    +0.083 C 
ATOM     16  C   UNL     1      32.911 -10.434 -22.791  0.00  0.00    +0.019 C 
ATOM     17  C   UNL     1      34.741 -10.101 -24.334  0.00  0.00    +0.016 C 
ATOM     18  C   UNL     1      33.809  -8.218 -23.140  0.00  0.00    +0.062 C 
ATOM     19  C   UNL     1      34.730  -8.736 -24.052  0.00  0.00    +0.013 C 
BRANCH  15  23
ATOM     20  F   UNL     1      32.465  -7.912 -20.461  0.00  0.00    -0.166 F 
ATOM     21  F   UNL     1      31.020  -7.661 -22.059  0.00  0.00    -0.166 F 
ATOM     22  F   UNL     1      31.137  -9.550 -20.989  0.00  0.00    -0.166 F 
ATOM     23  C   UNL     1      31.900  -8.555 -21.524  0.00  0.00    +0.419 C 
ENDBRANCH  15  23
ENDBRANCH   8  14
ENDBRANCH   1   9
BRANCH   2  24
ATOM     24  O   UNL     1      35.466 -19.689 -22.079  0.00  0.00    -0.453 OA
BRANCH  24  26
ATOM     25  N   UNL     1      33.374 -21.197 -18.820  0.00  0.00    -0.239 NA
ATOM     26  C   UNL     1      34.770 -20.192 -20.993  0.00  0.00    +0.149 C 
ATOM     27  C   UNL     1      35.463 -20.807 -19.973  0.00  0.00    +0.061 C 
ATOM     28  C   UNL     1      34.720 -21.292 -18.909  0.00  0.00    +0.137 C 
ATOM     29  C   UNL     1      33.397 -20.066 -20.957  0.00  0.00    +0.058 C 
ATOM     30  C   UNL     1      32.746 -20.586 -19.849  0.00  0.00    +0.102 C 
BRANCH  28  33
ATOM     31  O   UNL     1      34.814 -22.873 -17.180  0.00  0.00    -0.268 OA
ATOM     32  N   UNL     1      36.673 -21.519 -17.474  0.00  0.00    -0.298 N 
ATOM     33  C   UNL     1      35.380 -21.952 -17.795  0.00  0.00    +0.264 C 
ATOM     34  C   UNL     1      37.466 -22.092 -16.409  0.00  0.00    +0.111 C 
ATOM     35  H   UNL     1      37.062 -20.784 -18.001  0.00  0.00    +0.150 HD
ENDBRANCH  28  33
ENDBRANCH  24  26
ENDBRANCH   2  24
TORSDOF 6
ENDMDL
MODEL 3
REMARK VINA RESULT:     -12.0      2.296      3.223
REMARK  Name = 216239
REMARK  6 active torsions:
REMARK  status: ('A' for Active; 'I' for Inactive)
REMARK    1  A    between atoms: C_1  and  N_9
REMARK    2  A    between atoms: C_2  and  O_24
REMARK    3  A    between atoms: N_8  and  C_14
REMARK    4  A    between atoms: C_15  and  C_23
REMARK    5  A    between atoms: O_24  and  C_26
REMARK    6  A    between atoms: C_28  and  C_33
REMARK                            x       y       z     vdW  Elec       q    Type
REMARK                         _______ _______ _______ _____ _____    ______ ____
ROOT
ATOM      1  C   UNL     1      34.525 -15.417 -23.206  0.00  0.00    +0.052 C 
ATOM      2  C   UNL     1      35.213 -18.013 -22.527  0.00  0.00    +0.145 C 
ATOM      3  C   UNL     1      34.413 -16.418 -24.156  0.00  0.00    +0.018 C 
ATOM      4  C   UNL     1      34.974 -15.685 -21.924  0.00  0.00    +0.018 C 
ATOM      5  C   UNL     1      34.759 -17.726 -23.814  0.00  0.00    +0.039 C 
ATOM      6  C   UNL     1      35.322 -16.993 -21.582  0.00  0.00    +0.039 C 
ENDROOT
BRANCH   1   9
ATOM      7  O   UNL     1      33.768 -13.108 -21.471  0.00  0.00    -0.252 OA
ATOM      8  N   UNL     1      33.543 -11.872 -23.448  0.00  0.00    -0.268 N 
ATOM      9  N   UNL     1      34.174 -14.092 -23.554  0.00  0.00    -0.268 N 
ATOM     10  C   UNL     1      33.824 -13.037 -22.694  0.00  0.00    +0.308 C 
ATOM     11  H   UNL     1      33.629 -11.964 -24.425  0.00  0.00    +0.156 HD
ATOM     12  H   UNL     1      34.174 -13.882 -24.515  0.00  0.00    +0.156 HD
BRANCH   8  14
ATOM     13 CL   UNL     1      31.883  -6.545 -21.498  0.00  0.00    -0.082 Cl
ATOM     14  C   UNL     1      33.160 -10.610 -22.992  0.00  0.00    +0.052 C 
ATOM     15  C   UNL     1      33.520  -8.223 -22.888  0.00  0.00    +0.083 C 
ATOM     16  C   UNL     1      33.904  -9.484 -23.343  0.00  0.00    +0.019 C 
ATOM     17  C   UNL     1      32.031 -10.475 -22.184  0.00  0.00    +0.016 C 
ATOM     18  C   UNL     1      32.391  -8.088 -22.079  0.00  0.00    +0.062 C 
ATOM     19  C   UNL     1      31.646  -9.214 -21.728  0.00  0.00    +0.013 C 
BRANCH  15  23
ATOM     20  F   UNL     1      33.692  -5.851 -23.143  0.00  0.00    -0.166 F 
ATOM     21  F   UNL     1      35.495  -6.913 -22.570  0.00  0.00    -0.166 F 
ATOM     22  F   UNL     1      34.727  -7.094 -24.596  0.00  0.00    -0.166 F 
ATOM     23  C   UNL     1      34.343  -7.042 -23.289  0.00  0.00    +0.419 C 
ENDBRANCH  15  23
ENDBRANCH   8  14
ENDBRANCH   1   9
BRANCH   2  24
ATOM     24  O   UNL     1      35.553 -19.288 -22.194  0.00  0.00    -0.453 OA
BRANCH  24  26
ATOM     25  N   UNL     1      33.454 -21.095 -19.095  0.00  0.00    -0.239 NA
ATOM     26  C   UNL     1      34.854 -19.891 -21.162  0.00  0.00    +0.149 C 
ATOM     27  C   UNL     1      35.552 -20.512 -20.148  0.00  0.00    +0.061 C 
ATOM     28  C   UNL     1      34.806 -21.099 -19.138  0.00  0.00    +0.137 C 
ATOM     29  C   UNL     1      33.476 -19.856 -21.171  0.00  0.00    +0.058 C 
ATOM     30  C   UNL     1      32.823 -20.473 -20.115  0.00  0.00    +0.102 C 
BRANCH  28  33
ATOM     31  O   UNL     1      34.938 -22.749 -17.478  0.00  0.00    -0.268 OA
ATOM     32  N   UNL     1      36.727 -21.285 -17.655  0.00  0.00    -0.298 N 
ATOM     33  C   UNL     1      35.470 -21.772 -18.034  0.00  0.00    +0.264 C 
ATOM     34  C   UNL     1      37.520 -21.861 -16.592  0.00  0.00    +0.111 C 
ATOM     35  H   UNL     1      37.090 -20.507 -18.137  0.00  0.00    +0.150 HD
ENDBRANCH  28  33
ENDBRANCH  24  26
ENDBRANCH   2  24
TORSDOF 6
ENDMDL
MODEL 4
REMARK VINA RESULT:     -11.7      1.422      1.867
REMARK  Name = 216239
REMARK  6 active torsions:
REMARK  status: ('A' for Active; 'I' for Inactive)
REMARK    1  A    between atoms: C_1  and  N_9
REMARK    2  A    between atoms: C_2  and  O_24
REMARK    3  A    between atoms: N_8  and  C_14
REMARK    4  A    between atoms: C_15  and  C_23
REMARK    5  A    between atoms: O_24  and  C_26
REMARK    6  A    between atoms: C_28  and  C_33
REMARK                            x       y       z     vdW  Elec       q    Type
REMARK                         _______ _______ _______ _____ _____    ______ ____
ROOT
ATOM      1  C   UNL     1      33.690 -13.705 -22.509  0.00  0.00    +0.052 C 
ATOM      2  C   UNL     1      34.767 -16.204 -23.025  0.00  0.00    +0.145 C 
ATOM      3  C   UNL     1      34.378 -14.366 -21.506  0.00  0.00    +0.018 C 
ATOM      4  C   UNL     1      33.528 -14.266 -23.765  0.00  0.00    +0.018 C 
ATOM      5  C   UNL     1      34.921 -15.625 -21.766  0.00  0.00    +0.039 C 
ATOM      6  C   UNL     1      34.069 -15.526 -24.025  0.00  0.00    +0.039 C 
ENDROOT
BRANCH   1   9
ATOM      7  O   UNL     1      33.704 -11.221 -24.166  0.00  0.00    -0.252 OA
ATOM      8  N   UNL     1      32.503 -10.215 -22.424  0.00  0.00    -0.268 N 
ATOM      9  N   UNL     1      33.140 -12.429 -22.244  0.00  0.00    -0.268 N 
ATOM     10  C   UNL     1      33.174 -11.287 -23.063  0.00  0.00    +0.308 C 
ATOM     11  H   UNL     1      32.126 -10.415 -21.536  0.00  0.00    +0.156 HD
ATOM     12  H   UNL     1      32.676 -12.328 -21.383  0.00  0.00    +0.156 HD
BRANCH   8  14
ATOM     13 CL   UNL     1      31.626  -4.705 -24.373  0.00  0.00    -0.082 Cl
ATOM     14  C   UNL     1      32.307  -8.913 -22.884  0.00  0.00    +0.052 C 
ATOM     15  C   UNL     1      33.204  -6.814 -23.675  0.00  0.00    +0.083 C 
ATOM     16  C   UNL     1      33.402  -8.116 -23.214  0.00  0.00    +0.019 C 
ATOM     17  C   UNL     1      31.012  -8.409 -23.014  0.00  0.00    +0.016 C 
ATOM     18  C   UNL     1      31.910  -6.309 -23.805  0.00  0.00    +0.062 C 
ATOM     19  C   UNL     1      30.815  -7.107 -23.475  0.00  0.00    +0.013 C 
BRANCH  15  23
ATOM     20  F   UNL     1      35.515  -6.324 -23.301  0.00  0.00    -0.166 F 
ATOM     21  F   UNL     1      34.778  -6.099 -25.329  0.00  0.00    -0.166 F 
ATOM     22  F   UNL     1      34.206  -4.662 -23.801  0.00  0.00    -0.166 F 
ATOM     23  C   UNL     1      34.404  -5.993 -24.021  0.00  0.00    +0.419 C 
ENDBRANCH  15  23
ENDBRANCH   8  14
ENDBRANCH   1   9
BRANCH   2  24
ATOM     24  O   UNL     1      35.295 -17.433 -23.278  0.00  0.00    -0.453 OA
BRANCH  24  26
ATOM     25  N   UNL     1      36.001 -19.939 -20.039  0.00  0.00    -0.239 NA
ATOM     26  C   UNL     1      35.529 -18.267 -22.198  0.00  0.00    +0.149 C 
ATOM     27  C   UNL     1      34.478 -18.969 -21.648  0.00  0.00    +0.061 C 
ATOM     28  C   UNL     1      34.766 -19.791 -20.570  0.00  0.00    +0.137 C 
ATOM     29  C   UNL     1      36.810 -18.378 -21.699  0.00  0.00    +0.058 C 
ATOM     30  C   UNL     1      36.992 -19.226 -20.618  0.00  0.00    +0.102 C 
BRANCH  28  33
ATOM     31  O   UNL     1      32.530 -20.449 -20.312  0.00  0.00    -0.268 OA
ATOM     32  N   UNL     1      34.091 -21.442 -18.915  0.00  0.00    -0.298 N 
ATOM     33  C   UNL     1      33.711 -20.563 -19.936  0.00  0.00    +0.264 C 
ATOM     34  C   UNL     1      33.162 -22.293 -18.205  0.00  0.00    +0.111 C 
ATOM     35  H   UNL     1      35.043 -21.482 -18.665  0.00  0.00    +0.150 HD
ENDBRANCH  28  33
ENDBRANCH  24  26
ENDBRANCH   2  24
TORSDOF 6
ENDMDL
MODEL 5
REMARK VINA RESULT:     -11.6      7.818     13.281
REMARK  Name = 216239
REMARK  6 active torsions:
REMARK  status: ('A' for Active; 'I' for Inactive)
REMARK    1  A    between atoms: C_1  and  N_9
REMARK    2  A    between atoms: C_2  and  O_24
REMARK    3  A    between atoms: N_8  and  C_14
REMARK    4  A    between atoms: C_15  and  C_23
REMARK    5  A    between atoms: O_24  and  C_26
REMARK    6  A    between atoms: C_28  and  C_33
REMARK                            x       y       z     vdW  Elec       q    Type
REMARK                         _______ _______ _______ _____ _____    ______ ____
ROOT
ATOM      1  C   UNL     1      34.950 -21.125 -19.049  0.00  0.00    +0.052 C 
ATOM      2  C   UNL     1      35.799 -19.499 -21.124  0.00  0.00    +0.145 C 
ATOM      3  C   UNL     1      34.011 -20.557 -19.892  0.00  0.00    +0.018 C 
ATOM      4  C   UNL     1      36.306 -20.897 -19.220  0.00  0.00    +0.018 C 
ATOM      5  C   UNL     1      34.438 -19.738 -20.938  0.00  0.00    +0.039 C 
ATOM      6  C   UNL     1      36.734 -20.077 -20.264  0.00  0.00    +0.039 C 
ENDROOT
BRANCH   1   9
ATOM      7  O   UNL     1      32.187 -21.804 -18.141  0.00  0.00    -0.252 OA
ATOM      8  N   UNL     1      33.200 -23.120 -16.490  0.00  0.00    -0.268 N 
ATOM      9  N   UNL     1      34.516 -21.955 -17.989  0.00  0.00    -0.268 N 
ATOM     10  C   UNL     1      33.197 -22.243 -17.602  0.00  0.00    +0.308 C 
ATOM     11  H   UNL     1      34.088 -23.390 -16.161  0.00  0.00    +0.156 HD
ATOM     12  H   UNL     1      35.225 -22.383 -17.457  0.00  0.00    +0.156 HD
BRANCH   8  14
ATOM     13 CL   UNL     1      28.622 -25.397 -13.526  0.00  0.00    -0.082 Cl
ATOM     14  C   UNL     1      32.113 -23.653 -15.796  0.00  0.00    +0.052 C 
ATOM     15  C   UNL     1      29.727 -23.943 -15.548  0.00  0.00    +0.083 C 
ATOM     16  C   UNL     1      30.814 -23.409 -16.241  0.00  0.00    +0.019 C 
ATOM     17  C   UNL     1      32.326 -24.429 -14.657  0.00  0.00    +0.016 C 
ATOM     18  C   UNL     1      29.940 -24.719 -14.408  0.00  0.00    +0.062 C 
ATOM     19  C   UNL     1      31.240 -24.962 -13.964  0.00  0.00    +0.013 C 
BRANCH  15  23
ATOM     20  F   UNL     1      27.489 -23.234 -15.091  0.00  0.00    -0.166 F 
ATOM     21  F   UNL     1      28.316 -22.696 -17.023  0.00  0.00    -0.166 F 
ATOM     22  F   UNL     1      27.766 -24.760 -16.615  0.00  0.00    -0.166 F 
ATOM     23  C   UNL     1      28.351 -23.661 -16.059  0.00  0.00    +0.419 C 
ENDBRANCH  15  23
ENDBRANCH   8  14
ENDBRANCH   1   9
BRANCH   2  24
ATOM     24  O   UNL     1      36.216 -18.698 -22.143  0.00  0.00    -0.453 OA
BRANCH  24  26
ATOM     25  N   UNL     1      33.341 -17.283 -24.789  0.00  0.00    -0.239 NA
ATOM     26  C   UNL     1      35.258 -18.226 -23.023  0.00  0.00    +0.149 C 
ATOM     27  C   UNL     1      35.115 -16.866 -23.200  0.00  0.00    +0.061 C 
ATOM     28  C   UNL     1      34.144 -16.446 -24.093  0.00  0.00    +0.137 C 
ATOM     29  C   UNL     1      34.468 -19.127 -23.706  0.00  0.00    +0.058 C 
ATOM     30  C   UNL     1      33.524 -18.605 -24.576  0.00  0.00    +0.102 C 
BRANCH  28  33
ATOM     31  O   UNL     1      33.680 -14.611 -25.478  0.00  0.00    -0.268 OA
ATOM     32  N   UNL     1      34.007 -14.177 -23.224  0.00  0.00    -0.298 N 
ATOM     33  C   UNL     1      33.934 -15.028 -24.333  0.00  0.00    +0.264 C 
ATOM     34  C   UNL     1      33.799 -12.748 -23.297  0.00  0.00    +0.111 C 
ATOM     35  H   UNL     1      34.212 -14.573 -22.346  0.00  0.00    +0.150 HD
ENDBRANCH  28  33
ENDBRANCH  24  26
ENDBRANCH   2  24
TORSDOF 6
ENDMDL
MODEL 6
REMARK VINA RESULT:     -11.6      7.727     12.389
REMARK  Name = 216239
REMARK  6 active torsions:
REMARK  status: ('A' for Active; 'I' for Inactive)
REMARK    1  A    between atoms: C_1  and  N_9
REMARK    2  A    between atoms: C_2  and  O_24
REMARK    3  A    between atoms: N_8  and  C_14
REMARK    4  A    between atoms: C_15  and  C_23
REMARK    5  A    between atoms: O_24  and  C_26
REMARK    6  A    between atoms: C_28  and  C_33
REMARK                            x       y       z     vdW  Elec       q    Type
REMARK                         _______ _______ _______ _____ _____    ______ ____
ROOT
ATOM      1  C   UNL     1      35.051 -18.629 -22.349  0.00  0.00    +0.052 C 
ATOM      2  C   UNL     1      34.313 -16.735 -24.231  0.00  0.00    +0.145 C 
ATOM      3  C   UNL     1      34.191 -18.991 -23.373  0.00  0.00    +0.018 C 
ATOM      4  C   UNL     1      35.550 -17.342 -22.245  0.00  0.00    +0.018 C 
ATOM      5  C   UNL     1      33.820 -18.037 -24.321  0.00  0.00    +0.039 C 
ATOM      6  C   UNL     1      35.178 -16.387 -23.193  0.00  0.00    +0.039 C 
ENDROOT
BRANCH   1   9
ATOM      7  O   UNL     1      33.551 -19.690 -19.994  0.00  0.00    -0.252 OA
ATOM      8  N   UNL     1      35.424 -21.034 -19.579  0.00  0.00    -0.268 N 
ATOM      9  N   UNL     1      35.427 -19.597 -21.388  0.00  0.00    -0.268 N 
ATOM     10  C   UNL     1      34.680 -20.063 -20.294  0.00  0.00    +0.308 C 
ATOM     11  H   UNL     1      36.320 -21.234 -19.936  0.00  0.00    +0.156 HD
ATOM     12  H   UNL     1      36.321 -19.992 -21.500  0.00  0.00    +0.156 HD
BRANCH   8  14
ATOM     13 CL   UNL     1      33.831 -24.046 -14.750  0.00  0.00    -0.082 Cl
ATOM     14  C   UNL     1      35.058 -21.745 -18.436  0.00  0.00    +0.052 C 
ATOM     15  C   UNL     1      35.620 -22.669 -16.276  0.00  0.00    +0.083 C 
ATOM     16  C   UNL     1      35.988 -21.959 -17.419  0.00  0.00    +0.019 C 
ATOM     17  C   UNL     1      33.760 -22.241 -18.310  0.00  0.00    +0.016 C 
ATOM     18  C   UNL     1      34.323 -23.165 -16.150  0.00  0.00    +0.062 C 
ATOM     19  C   UNL     1      33.393 -22.950 -17.167  0.00  0.00    +0.013 C 
BRANCH  15  23
ATOM     20  F   UNL     1      36.233 -22.469 -13.972  0.00  0.00    -0.166 F 
ATOM     21  F   UNL     1      37.015 -24.179 -15.053  0.00  0.00    -0.166 F 
ATOM     22  F   UNL     1      37.800 -22.191 -15.454  0.00  0.00    -0.166 F 
ATOM     23  C   UNL     1      36.646 -22.875 -15.208  0.00  0.00    +0.419 C 
ENDBRANCH  15  23
ENDBRANCH   8  14
ENDBRANCH   1   9
BRANCH   2  24
ATOM     24  O   UNL     1      33.949 -15.805 -25.155  0.00  0.00    -0.453 OA
BRANCH  24  26
ATOM     25  N   UNL     1      33.246 -11.932 -23.820  0.00  0.00    -0.239 NA
ATOM     26  C   UNL     1      33.714 -14.515 -24.710  0.00  0.00    +0.149 C 
ATOM     27  C   UNL     1      33.309 -14.314 -23.408  0.00  0.00    +0.061 C 
ATOM     28  C   UNL     1      33.088 -13.005 -23.011  0.00  0.00    +0.137 C 
ATOM     29  C   UNL     1      33.891 -13.459 -25.580  0.00  0.00    +0.058 C 
ATOM     30  C   UNL     1      33.644 -12.188 -25.086  0.00  0.00    +0.102 C 
BRANCH  28  33
ATOM     31  O   UNL     1      32.884 -13.519 -20.733  0.00  0.00    -0.268 OA
ATOM     32  N   UNL     1      32.016 -11.488 -21.439  0.00  0.00    -0.298 N 
ATOM     33  C   UNL     1      32.660 -12.713 -21.654  0.00  0.00    +0.264 C 
ATOM     34  C   UNL     1      31.553 -11.045 -20.143  0.00  0.00    +0.111 C 
ATOM     35  H   UNL     1      31.870 -10.896 -22.213  0.00  0.00    +0.150 HD
ENDBRANCH  28  33
ENDBRANCH  24  26
ENDBRANCH   2  24
TORSDOF 6
ENDMDL
MODEL 7
REMARK VINA RESULT:     -11.4      1.961      2.562
REMARK  Name = 216239
REMARK  6 active torsions:
REMARK  status: ('A' for Active; 'I' for Inactive)
REMARK    1  A    between atoms: C_1  and  N_9
REMARK    2  A    between atoms: C_2  and  O_24
REMARK    3  A    between atoms: N_8  and  C_14
REMARK    4  A    between atoms: C_15  and  C_23
REMARK    5  A    between atoms: O_24  and  C_26
REMARK    6  A    between atoms: C_28  and  C_33
REMARK                            x       y       z     vdW  Elec       q    Type
REMARK                         _______ _______ _______ _____ _____    ______ ____
ROOT
ATOM      1  C   UNL     1      33.259 -12.850 -22.832  0.00  0.00    +0.052 C 
ATOM      2  C   UNL     1      34.628 -15.128 -23.613  0.00  0.00    +0.145 C 
ATOM      3  C   UNL     1      33.205 -13.253 -24.155  0.00  0.00    +0.018 C 
ATOM      4  C   UNL     1      33.984 -13.562 -21.889  0.00  0.00    +0.018 C 
ATOM      5  C   UNL     1      33.894 -14.400 -24.548  0.00  0.00    +0.039 C 
ATOM      6  C   UNL     1      34.674 -14.709 -22.283  0.00  0.00    +0.039 C 
ENDROOT
BRANCH   1   9
ATOM      7  O   UNL     1      33.957  -9.968 -23.184  0.00  0.00    -0.252 OA
ATOM      8  N   UNL     1      31.951  -9.488 -22.073  0.00  0.00    -0.268 N 
ATOM      9  N   UNL     1      32.560 -11.687 -22.433  0.00  0.00    -0.268 N 
ATOM     10  C   UNL     1      32.934 -10.346 -22.625  0.00  0.00    +0.308 C 
ATOM     11  H   UNL     1      31.181  -9.934 -21.652  0.00  0.00    +0.156 HD
ATOM     12  H   UNL     1      31.708 -11.834 -21.964  0.00  0.00    +0.156 HD
BRANCH   8  14
ATOM     13 CL   UNL     1      31.859  -3.580 -21.911  0.00  0.00    -0.082 Cl
ATOM     14  C   UNL     1      31.930  -8.093 -22.046  0.00  0.00    +0.052 C 
ATOM     15  C   UNL     1      31.793  -5.978 -23.205  0.00  0.00    +0.083 C 
ATOM     16  C   UNL     1      31.816  -7.372 -23.234  0.00  0.00    +0.019 C 
ATOM     17  C   UNL     1      32.022  -7.419 -20.827  0.00  0.00    +0.016 C 
ATOM     18  C   UNL     1      31.886  -5.304 -21.987  0.00  0.00    +0.062 C 
ATOM     19  C   UNL     1      31.999  -6.025 -20.799  0.00  0.00    +0.013 C 
BRANCH  15  23
ATOM     20  F   UNL     1      32.786  -4.536 -24.835  0.00  0.00    -0.166 F 
ATOM     21  F   UNL     1      31.425  -6.058 -25.567  0.00  0.00    -0.166 F 
ATOM     22  F   UNL     1      30.649  -4.336 -24.489  0.00  0.00    -0.166 F 
ATOM     23  C   UNL     1      31.668  -5.243 -24.501  0.00  0.00    +0.419 C 
ENDBRANCH  15  23
ENDBRANCH   8  14
ENDBRANCH   1   9
BRANCH   2  24
ATOM     24  O   UNL     1      35.302 -16.246 -23.997  0.00  0.00    -0.453 OA
BRANCH  24  26
ATOM     25  N   UNL     1      34.481 -19.784 -21.976  0.00  0.00    -0.239 NA
ATOM     26  C   UNL     1      35.030 -17.425 -23.324  0.00  0.00    +0.149 C 
ATOM     27  C   UNL     1      35.784 -17.761 -22.220  0.00  0.00    +0.061 C 
ATOM     28  C   UNL     1      35.470 -18.950 -21.581  0.00  0.00    +0.137 C 
ATOM     29  C   UNL     1      34.008 -18.236 -23.773  0.00  0.00    +0.058 C 
ATOM     30  C   UNL     1      33.775 -19.404 -23.065  0.00  0.00    +0.102 C 
BRANCH  28  33
ATOM     31  O   UNL     1      37.146 -18.670 -19.965  0.00  0.00    -0.268 OA
ATOM     32  N   UNL     1      35.835 -20.577 -19.809  0.00  0.00    -0.298 N 
ATOM     33  C   UNL     1      36.220 -19.372 -20.411  0.00  0.00    +0.264 C 
ATOM     34  C   UNL     1      36.468 -21.117 -18.627  0.00  0.00    +0.111 C 
ATOM     35  H   UNL     1      35.094 -21.084 -20.213  0.00  0.00    +0.150 HD
ENDBRANCH  28  33
ENDBRANCH  24  26
ENDBRANCH   2  24
TORSDOF 6
ENDMDL
MODEL 8
REMARK VINA RESULT:     -11.4      2.666      3.897
REMARK  Name = 216239
REMARK  6 active torsions:
REMARK  status: ('A' for Active; 'I' for Inactive)
REMARK    1  A    between atoms: C_1  and  N_9
REMARK    2  A    between atoms: C_2  and  O_24
REMARK    3  A    between atoms: N_8  and  C_14
REMARK    4  A    between atoms: C_15  and  C_23
REMARK    5  A    between atoms: O_24  and  C_26
REMARK    6  A    between atoms: C_28  and  C_33
REMARK                            x       y       z     vdW  Elec       q    Type
REMARK                         _______ _______ _______ _____ _____    ______ ____
ROOT
ATOM      1  C   UNL     1      34.876 -16.485 -22.509  0.00  0.00    +0.052 C 
ATOM      2  C   UNL     1      35.463 -18.990 -21.483  0.00  0.00    +0.145 C 
ATOM      3  C   UNL     1      35.364 -16.591 -21.218  0.00  0.00    +0.018 C 
ATOM      4  C   UNL     1      34.675 -17.605 -23.299  0.00  0.00    +0.018 C 
ATOM      5  C   UNL     1      35.660 -17.853 -20.701  0.00  0.00    +0.039 C 
ATOM      6  C   UNL     1      34.970 -18.867 -22.782  0.00  0.00    +0.039 C 
ENDROOT
BRANCH   1   9
ATOM      7  O   UNL     1      33.803 -14.052 -21.151  0.00  0.00    -0.252 OA
ATOM      8  N   UNL     1      33.913 -13.002 -23.242  0.00  0.00    -0.268 N 
ATOM      9  N   UNL     1      34.577 -15.205 -23.032  0.00  0.00    -0.268 N 
ATOM     10  C   UNL     1      34.071 -14.088 -22.347  0.00  0.00    +0.308 C 
ATOM     11  H   UNL     1      34.169 -13.178 -24.177  0.00  0.00    +0.156 HD
ATOM     12  H   UNL     1      34.742 -15.082 -23.994  0.00  0.00    +0.156 HD
BRANCH   8  14
ATOM     13 CL   UNL     1      31.882  -7.570 -22.101  0.00  0.00    -0.082 Cl
ATOM     14  C   UNL     1      33.442 -11.716 -22.978  0.00  0.00    +0.052 C 
ATOM     15  C   UNL     1      33.654  -9.321 -23.209  0.00  0.00    +0.083 C 
ATOM     16  C   UNL     1      34.126 -10.606 -23.473  0.00  0.00    +0.019 C 
ATOM     17  C   UNL     1      32.286 -11.541 -22.216  0.00  0.00    +0.016 C 
ATOM     18  C   UNL     1      32.498  -9.145 -22.447  0.00  0.00    +0.062 C 
ATOM     19  C   UNL     1      31.814 -10.255 -21.952  0.00  0.00    +0.013 C 
BRANCH  15  23
ATOM     20  F   UNL     1      35.279  -7.600 -22.864  0.00  0.00    -0.166 F 
ATOM     21  F   UNL     1      35.175  -8.472 -24.848  0.00  0.00    -0.166 F 
ATOM     22  F   UNL     1      33.595  -7.143 -24.162  0.00  0.00    -0.166 F 
ATOM     23  C   UNL     1      34.414  -8.157 -23.760  0.00  0.00    +0.419 C 
ENDBRANCH  15  23
ENDBRANCH   8  14
ENDBRANCH   1   9
BRANCH   2  24
ATOM     24  O   UNL     1      35.750 -20.221 -20.979  0.00  0.00    -0.453 OA
BRANCH  24  26
ATOM     25  N   UNL     1      33.166 -21.783 -18.122  0.00  0.00    -0.239 NA
ATOM     26  C   UNL     1      34.890 -20.743 -20.027  0.00  0.00    +0.149 C 
ATOM     27  C   UNL     1      35.411 -21.422 -18.947  0.00  0.00    +0.061 C 
ATOM     28  C   UNL     1      34.508 -21.922 -18.022  0.00  0.00    +0.137 C 
ATOM     29  C   UNL     1      33.530 -20.570 -20.182  0.00  0.00    +0.058 C 
ATOM     30  C   UNL     1      32.712 -21.110 -19.202  0.00  0.00    +0.102 C 
BRANCH  28  33
ATOM     31  O   UNL     1      36.191 -22.661 -16.566  0.00  0.00    -0.268 OA
ATOM     32  N   UNL     1      34.017 -23.303 -16.080  0.00  0.00    -0.298 N 
ATOM     33  C   UNL     1      34.981 -22.649 -16.856  0.00  0.00    +0.264 C 
ATOM     34  C   UNL     1      34.327 -24.046 -14.879  0.00  0.00    +0.111 C 
ATOM     35  H   UNL     1      33.076 -23.254 -16.366  0.00  0.00    +0.150 HD
ENDBRANCH  28  33
ENDBRANCH  24  26
ENDBRANCH   2  24
TORSDOF 6
ENDMDL
MODEL 9
REMARK VINA RESULT:     -11.3      5.397      8.696
REMARK  Name = 216239
REMARK  6 active torsions:
REMARK  status: ('A' for Active; 'I' for Inactive)
REMARK    1  A    between atoms: C_1  and  N_9
REMARK    2  A    between atoms: C_2  and  O_24
REMARK    3  A    between atoms: N_8  and  C_14
REMARK    4  A    between atoms: C_15  and  C_23
REMARK    5  A    between atoms: O_24  and  C_26
REMARK    6  A    between atoms: C_28  and  C_33
REMARK                            x       y       z     vdW  Elec       q    Type
REMARK                         _______ _______ _______ _____ _____    ______ ____
ROOT
ATOM      1  C   UNL     1      35.561 -21.095 -18.968  0.00  0.00    +0.052 C 
ATOM      2  C   UNL     1      34.965 -22.953 -17.002  0.00  0.00    +0.145 C 
ATOM      3  C   UNL     1      36.454 -21.292 -17.929  0.00  0.00    +0.018 C 
ATOM      4  C   UNL     1      34.375 -21.807 -19.046  0.00  0.00    +0.018 C 
ATOM      5  C   UNL     1      36.154 -22.228 -16.939  0.00  0.00    +0.039 C 
ATOM      6  C   UNL     1      34.074 -22.742 -18.055  0.00  0.00    +0.039 C 
ENDROOT
BRANCH   1   9
ATOM      7  O   UNL     1      33.790 -19.147 -20.378  0.00  0.00    -0.252 OA
ATOM      8  N   UNL     1      35.700 -18.470 -21.553  0.00  0.00    -0.268 N 
ATOM      9  N   UNL     1      35.865 -20.146 -19.971  0.00  0.00    -0.268 N 
ATOM     10  C   UNL     1      34.991 -19.248 -20.605  0.00  0.00    +0.308 C 
ATOM     11  H   UNL     1      36.663 -18.662 -21.629  0.00  0.00    +0.156 HD
ATOM     12  H   UNL     1      36.805 -20.110 -20.262  0.00  0.00    +0.156 HD
BRANCH   8  14
ATOM     13 CL   UNL     1      33.658 -14.252 -25.154  0.00  0.00    -0.082 Cl
ATOM     14  C   UNL     1      35.217 -17.468 -22.394  0.00  0.00    +0.052 C 
ATOM     15  C   UNL     1      34.447 -15.202 -22.724  0.00  0.00    +0.083 C 
ATOM     16  C   UNL     1      34.929 -16.204 -21.882  0.00  0.00    +0.019 C 
ATOM     17  C   UNL     1      35.022 -17.732 -23.751  0.00  0.00    +0.016 C 
ATOM     18  C   UNL     1      34.251 -15.465 -24.080  0.00  0.00    +0.062 C 
ATOM     19  C   UNL     1      34.539 -16.730 -24.593  0.00  0.00    +0.013 C 
BRANCH  15  23
ATOM     20  F   UNL     1      34.760 -12.832 -22.797  0.00  0.00    -0.166 F 
ATOM     21  F   UNL     1      32.824 -13.548 -22.129  0.00  0.00    -0.166 F 
ATOM     22  F   UNL     1      34.562 -13.757 -20.839  0.00  0.00    -0.166 F 
ATOM     23  C   UNL     1      34.152 -13.860 -22.136  0.00  0.00    +0.419 C 
ENDBRANCH  15  23
ENDBRANCH   8  14
ENDBRANCH   1   9
BRANCH   2  24
ATOM     24  O   UNL     1      34.671 -23.865 -16.035  0.00  0.00    -0.453 OA
BRANCH  24  26
ATOM     25  N   UNL     1      31.287 -23.201 -13.715  0.00  0.00    -0.239 NA
ATOM     26  C   UNL     1      33.544 -23.643 -15.262  0.00  0.00    +0.149 C 
ATOM     27  C   UNL     1      32.359 -23.303 -15.880  0.00  0.00    +0.061 C 
ATOM     28  C   UNL     1      31.260 -23.093 -15.063  0.00  0.00    +0.137 C 
ATOM     29  C   UNL     1      33.631 -23.767 -13.892  0.00  0.00    +0.058 C 
ATOM     30  C   UNL     1      32.475 -23.535 -13.163  0.00  0.00    +0.102 C 
BRANCH  28  33
ATOM     31  O   UNL     1      29.905 -22.304 -16.806  0.00  0.00    -0.268 OA
ATOM     32  N   UNL     1      28.844 -22.914 -14.837  0.00  0.00    -0.298 N 
ATOM     33  C   UNL     1      29.976 -22.733 -15.640  0.00  0.00    +0.264 C 
ATOM     34  C   UNL     1      27.497 -22.624 -15.276  0.00  0.00    +0.111 C 
ATOM     35  H   UNL     1      28.971 -23.258 -13.923  0.00  0.00    +0.150 HD
ENDBRANCH  28  33
ENDBRANCH  24  26
ENDBRANCH   2  24
TORSDOF 6
ENDMDL
