MODEL 1
REMARK VINA RESULT:     -10.6      0.000      0.000
REMARK  Name = 56832738
REMARK  10 active torsions:
REMARK  status: ('A' for Active; 'I' for Inactive)
REMARK    1  A    between atoms: C_2  and  C_11
REMARK    2  A    between atoms: C_5  and  C_25
REMARK    3  A    between atoms: C_10  and  C_22
REMARK    4  A    between atoms: C_12  and  O_16
REMARK    5  A    between atoms: C_13  and  O_18
REMARK    6  A    between atoms: C_14  and  O_20
REMARK    7  A    between atoms: C_22  and  O_23
REMARK    8  A    between atoms: C_25  and  C_27
REMARK    9  A    between atoms: C_32  and  O_33
REMARK   10  A    between atoms: O_33  and  C_34
REMARK                            x       y       z     vdW  Elec       q    Type
REMARK                         _______ _______ _______ _____ _____    ______ ____
ROOT
ATOM      1 CL   UNL     1      30.749 -22.514 -16.607  0.00  0.00    -0.083 Cl
ATOM      2  C   UNL     1      34.484 -23.640 -14.333  0.00  0.00    +0.031 C 
ATOM      3  C   UNL     1      34.458 -23.773 -15.721  0.00  0.00    -0.003 C 
ATOM      4  C   UNL     1      33.361 -23.160 -13.658  0.00  0.00    +0.001 C 
ATOM      5  C   UNL     1      33.310 -23.428 -16.433  0.00  0.00    -0.007 C 
ATOM      6  C   UNL     1      32.213 -22.815 -14.370  0.00  0.00    +0.011 C 
ATOM      7  C   UNL     1      32.187 -22.948 -15.759  0.00  0.00    +0.054 C 
ENDROOT
BRANCH   2  11
ATOM      8  O   UNL     1      35.427 -24.445 -12.217  0.00  0.00    -0.326 OA
ATOM      9  O   UNL     1      36.600 -22.865 -13.450  0.00  0.00    -0.326 OA
ATOM     10  C   UNL     1      36.655 -24.190 -11.523  0.00  0.00    +0.176 C 
ATOM     11  C   UNL     1      35.731 -24.015 -13.558  0.00  0.00    +0.235 C 
ATOM     12  C   UNL     1      37.661 -25.299 -11.928  0.00  0.00    +0.169 C 
ATOM     13  C   UNL     1      36.536 -25.155 -14.224  0.00  0.00    +0.196 C 
ATOM     14  C   UNL     1      37.842 -25.438 -13.455  0.00  0.00    +0.172 C 
ATOM     15  C   UNL     1      37.002 -22.816 -12.074  0.00  0.00    +0.177 C 
BRANCH  12  16
ATOM     16  O   UNL     1      37.180 -26.547 -11.421  0.00  0.00    -0.379 OA
ATOM     17  H   UNL     1      37.119 -26.502 -10.455  0.00  0.00    +0.211 HD
ENDBRANCH  12  16
BRANCH  13  18
ATOM     18  O   UNL     1      35.750 -26.346 -14.251  0.00  0.00    -0.377 OA
ATOM     19  H   UNL     1      35.373 -26.504 -13.371  0.00  0.00    +0.211 HD
ENDBRANCH  13  18
BRANCH  14  20
ATOM     20  O   UNL     1      38.834 -24.511 -13.898  0.00  0.00    -0.379 OA
ATOM     21  H   UNL     1      39.500 -24.978 -14.426  0.00  0.00    +0.211 HD
ENDBRANCH  14  20
BRANCH  10  22
ATOM     22  C   UNL     1      36.395 -24.160 -10.022  0.00  0.00    +0.169 C 
BRANCH  22  23
ATOM     23  O   UNL     1      35.319 -25.036  -9.733  0.00  0.00    -0.379 OA
ATOM     24  H   UNL     1      35.341 -25.276  -8.793  0.00  0.00    +0.211 HD
ENDBRANCH  22  23
ENDBRANCH  10  22
ENDBRANCH   2  11
BRANCH   5  25
ATOM     25  C   UNL     1      33.322 -23.586 -17.920  0.00  0.00    +0.054 C 
BRANCH  25  27
ATOM     26  F   UNL     1      36.820 -20.643 -19.642  0.00  0.00    -0.201 F 
ATOM     27  C   UNL     1      33.757 -22.341 -18.664  0.00  0.00    -0.015 C 
ATOM     28  C   UNL     1      35.115 -22.057 -18.815  0.00  0.00    +0.029 C 
ATOM     29  C   UNL     1      32.800 -21.478 -19.197  0.00  0.00    -0.001 C 
ATOM     30  C   UNL     1      35.514 -20.911 -19.500  0.00  0.00    +0.174 C 
ATOM     31  C   UNL     1      33.200 -20.331 -19.882  0.00  0.00    +0.039 C 
ATOM     32  C   UNL     1      34.558 -20.047 -20.034  0.00  0.00    +0.166 C 
BRANCH  32  33
ATOM     33  O   UNL     1      34.947 -18.927 -20.702  0.00  0.00    -0.473 OA
BRANCH  33  34
ATOM     34  C   UNL     1      35.020 -19.014 -22.125  0.00  0.00    +0.206 C 
ATOM     35  C   UNL     1      35.319 -17.640 -22.687  0.00  0.00    +0.051 C 
ENDBRANCH  33  34
ENDBRANCH  32  33
ENDBRANCH  25  27
ENDBRANCH   5  25
TORSDOF 10
ENDMDL
MODEL 2
REMARK VINA RESULT:      -9.7      1.417      2.458
REMARK  Name = 56832738
REMARK  10 active torsions:
REMARK  status: ('A' for Active; 'I' for Inactive)
REMARK    1  A    between atoms: C_2  and  C_11
REMARK    2  A    between atoms: C_5  and  C_25
REMARK    3  A    between atoms: C_10  and  C_22
REMARK    4  A    between atoms: C_12  and  O_16
REMARK    5  A    between atoms: C_13  and  O_18
REMARK    6  A    between atoms: C_14  and  O_20
REMARK    7  A    between atoms: C_22  and  O_23
REMARK    8  A    between atoms: C_25  and  C_27
REMARK    9  A    between atoms: C_32  and  O_33
REMARK   10  A    between atoms: O_33  and  C_34
REMARK                            x       y       z     vdW  Elec       q    Type
REMARK                         _______ _______ _______ _____ _____    ______ ____
ROOT
ATOM      1 CL   UNL     1      30.109 -22.579 -16.119  0.00  0.00    -0.083 Cl
ATOM      2  C   UNL     1      34.254 -23.626 -14.667  0.00  0.00    +0.031 C 
ATOM      3  C   UNL     1      34.023 -23.473 -16.033  0.00  0.00    -0.003 C 
ATOM      4  C   UNL     1      33.209 -23.453 -13.759  0.00  0.00    +0.001 C 
ATOM      5  C   UNL     1      32.747 -23.150 -16.493  0.00  0.00    -0.007 C 
ATOM      6  C   UNL     1      31.932 -23.129 -14.219  0.00  0.00    +0.011 C 
ATOM      7  C   UNL     1      31.701 -22.977 -15.586  0.00  0.00    +0.054 C 
ENDROOT
BRANCH   2  11
ATOM      8  O   UNL     1      36.326 -24.877 -15.059  0.00  0.00    -0.326 OA
ATOM      9  O   UNL     1      35.543 -24.641 -12.886  0.00  0.00    -0.326 OA
ATOM     10  C   UNL     1      37.278 -25.510 -14.194  0.00  0.00    +0.176 C 
ATOM     11  C   UNL     1      35.641 -23.978 -14.167  0.00  0.00    +0.235 C 
ATOM     12  C   UNL     1      38.417 -24.492 -13.926  0.00  0.00    +0.169 C 
ATOM     13  C   UNL     1      36.551 -22.740 -13.990  0.00  0.00    +0.196 C 
ATOM     14  C   UNL     1      37.916 -23.133 -13.393  0.00  0.00    +0.172 C 
ATOM     15  C   UNL     1      36.403 -25.784 -12.979  0.00  0.00    +0.177 C 
BRANCH  12  16
ATOM     16  O   UNL     1      39.108 -24.260 -15.158  0.00  0.00    -0.379 OA
ATOM     17  H   UNL     1      38.465 -24.193 -15.881  0.00  0.00    +0.211 HD
ENDBRANCH  12  16
BRANCH  13  18
ATOM     18  O   UNL     1      36.765 -22.116 -15.256  0.00  0.00    -0.377 OA
ATOM     19  H   UNL     1      36.304 -22.619 -15.946  0.00  0.00    +0.211 HD
ENDBRANCH  13  18
BRANCH  14  20
ATOM     20  O   UNL     1      37.780 -23.207 -11.973  0.00  0.00    -0.379 OA
ATOM     21  H   UNL     1      38.259 -22.469 -11.563  0.00  0.00    +0.211 HD
ENDBRANCH  14  20
BRANCH  10  22
ATOM     22  C   UNL     1      37.782 -26.793 -14.842  0.00  0.00    +0.169 C 
BRANCH  22  23
ATOM     23  O   UNL     1      36.847 -27.198 -15.827  0.00  0.00    -0.379 OA
ATOM     24  H   UNL     1      37.280 -27.216 -16.695  0.00  0.00    +0.211 HD
ENDBRANCH  22  23
ENDBRANCH  10  22
ENDBRANCH   2  11
BRANCH   5  25
ATOM     25  C   UNL     1      32.540 -22.997 -17.966  0.00  0.00    +0.054 C 
BRANCH  25  27
ATOM     26  F   UNL     1      37.089 -21.371 -18.693  0.00  0.00    -0.201 F 
ATOM     27  C   UNL     1      33.517 -22.045 -18.625  0.00  0.00    -0.015 C 
ATOM     28  C   UNL     1      34.881 -22.146 -18.352  0.00  0.00    +0.029 C 
ATOM     29  C   UNL     1      33.051 -21.067 -19.504  0.00  0.00    -0.001 C 
ATOM     30  C   UNL     1      35.779 -21.270 -18.959  0.00  0.00    +0.174 C 
ATOM     31  C   UNL     1      33.950 -20.191 -20.110  0.00  0.00    +0.039 C 
ATOM     32  C   UNL     1      35.314 -20.291 -19.838  0.00  0.00    +0.166 C 
BRANCH  32  33
ATOM     33  O   UNL     1      36.191 -19.435 -20.431  0.00  0.00    -0.473 OA
BRANCH  33  34
ATOM     34  C   UNL     1      35.646 -18.250 -21.012  0.00  0.00    +0.206 C 
ATOM     35  C   UNL     1      35.878 -18.285 -22.508  0.00  0.00    +0.051 C 
ENDBRANCH  33  34
ENDBRANCH  32  33
ENDBRANCH  25  27
ENDBRANCH   5  25
TORSDOF 10
ENDMDL
MODEL 3
REMARK VINA RESULT:      -9.4      3.202      5.023
REMARK  Name = 56832738
REMARK  10 active torsions:
REMARK  status: ('A' for Active; 'I' for Inactive)
REMARK    1  A    between atoms: C_2  and  C_11
REMARK    2  A    between atoms: C_5  and  C_25
REMARK    3  A    between atoms: C_10  and  C_22
REMARK    4  A    between atoms: C_12  and  O_16
REMARK    5  A    between atoms: C_13  and  O_18
REMARK    6  A    between atoms: C_14  and  O_20
REMARK    7  A    between atoms: C_22  and  O_23
REMARK    8  A    between atoms: C_25  and  C_27
REMARK    9  A    between atoms: C_32  and  O_33
REMARK   10  A    between atoms: O_33  and  C_34
REMARK                            x       y       z     vdW  Elec       q    Type
REMARK                         _______ _______ _______ _____ _____    ______ ____
ROOT
ATOM      1 CL   UNL     1      37.121 -21.999 -17.348  0.00  0.00    -0.083 Cl
ATOM      2  C   UNL     1      33.225 -23.104 -15.353  0.00  0.00    +0.031 C 
ATOM      3  C   UNL     1      33.315 -23.128 -16.744  0.00  0.00    -0.003 C 
ATOM      4  C   UNL     1      34.334 -22.743 -14.588  0.00  0.00    +0.001 C 
ATOM      5  C   UNL     1      34.514 -22.789 -17.371  0.00  0.00    -0.007 C 
ATOM      6  C   UNL     1      35.533 -22.403 -15.215  0.00  0.00    +0.011 C 
ATOM      7  C   UNL     1      35.623 -22.427 -16.607  0.00  0.00    +0.054 C 
ENDROOT
BRANCH   2  11
ATOM      8  O   UNL     1      30.992 -24.092 -15.581  0.00  0.00    -0.326 OA
ATOM      9  O   UNL     1      31.287 -22.281 -14.158  0.00  0.00    -0.326 OA
ATOM     10  C   UNL     1      29.727 -23.831 -14.958  0.00  0.00    +0.176 C 
ATOM     11  C   UNL     1      31.922 -23.473 -14.671  0.00  0.00    +0.235 C 
ATOM     12  C   UNL     1      29.590 -24.795 -13.751  0.00  0.00    +0.169 C 
ATOM     13  C   UNL     1      32.115 -24.453 -13.490  0.00  0.00    +0.196 C 
ATOM     14  C   UNL     1      30.780 -24.726 -12.769  0.00  0.00    +0.172 C 
ATOM     15  C   UNL     1      29.913 -22.374 -14.561  0.00  0.00    +0.177 C 
BRANCH  12  16
ATOM     16  O   UNL     1      29.506 -26.132 -14.254  0.00  0.00    -0.379 OA
ATOM     17  H   UNL     1      30.162 -26.255 -14.959  0.00  0.00    +0.211 HD
ENDBRANCH  12  16
BRANCH  13  18
ATOM     18  O   UNL     1      32.640 -25.689 -13.972  0.00  0.00    -0.377 OA
ATOM     19  H   UNL     1      32.164 -26.426 -13.557  0.00  0.00    +0.211 HD
ENDBRANCH  13  18
BRANCH  14  20
ATOM     20  O   UNL     1      30.553 -23.674 -11.830  0.00  0.00    -0.379 OA
ATOM     21  H   UNL     1      30.195 -22.900 -12.292  0.00  0.00    +0.211 HD
ENDBRANCH  14  20
BRANCH  10  22
ATOM     22  C   UNL     1      28.610 -24.012 -15.978  0.00  0.00    +0.169 C 
BRANCH  22  23
ATOM     23  O   UNL     1      28.559 -22.858 -16.800  0.00  0.00    -0.379 OA
ATOM     24  H   UNL     1      28.348 -22.083 -16.255  0.00  0.00    +0.211 HD
ENDBRANCH  22  23
ENDBRANCH  10  22
ENDBRANCH   2  11
BRANCH   5  25
ATOM     25  C   UNL     1      34.569 -22.825 -18.864  0.00  0.00    +0.054 C 
BRANCH  25  27
ATOM     26  F   UNL     1      37.441 -19.224 -20.492  0.00  0.00    -0.201 F 
ATOM     27  C   UNL     1      34.753 -21.464 -19.502  0.00  0.00    -0.015 C 
ATOM     28  C   UNL     1      36.037 -20.957 -19.709  0.00  0.00    +0.029 C 
ATOM     29  C   UNL     1      33.639 -20.716 -19.883  0.00  0.00    -0.001 C 
ATOM     30  C   UNL     1      36.205 -19.705 -20.297  0.00  0.00    +0.174 C 
ATOM     31  C   UNL     1      33.808 -19.463 -20.470  0.00  0.00    +0.039 C 
ATOM     32  C   UNL     1      35.091 -18.957 -20.677  0.00  0.00    +0.166 C 
BRANCH  32  33
ATOM     33  O   UNL     1      35.254 -17.733 -21.250  0.00  0.00    -0.473 OA
BRANCH  33  34
ATOM     34  C   UNL     1      35.263 -17.681 -22.676  0.00  0.00    +0.206 C 
ATOM     35  C   UNL     1      34.885 -16.283 -23.120  0.00  0.00    +0.051 C 
ENDBRANCH  33  34
ENDBRANCH  32  33
ENDBRANCH  25  27
ENDBRANCH   5  25
TORSDOF 10
ENDMDL
MODEL 4
REMARK VINA RESULT:      -9.3      3.805      7.971
REMARK  Name = 56832738
REMARK  10 active torsions:
REMARK  status: ('A' for Active; 'I' for Inactive)
REMARK    1  A    between atoms: C_2  and  C_11
REMARK    2  A    between atoms: C_5  and  C_25
REMARK    3  A    between atoms: C_10  and  C_22
REMARK    4  A    between atoms: C_12  and  O_16
REMARK    5  A    between atoms: C_13  and  O_18
REMARK    6  A    between atoms: C_14  and  O_20
REMARK    7  A    between atoms: C_22  and  O_23
REMARK    8  A    between atoms: C_25  and  C_27
REMARK    9  A    between atoms: C_32  and  O_33
REMARK   10  A    between atoms: O_33  and  C_34
REMARK                            x       y       z     vdW  Elec       q    Type
REMARK                         _______ _______ _______ _____ _____    ______ ____
ROOT
ATOM      1 CL   UNL     1      36.853 -21.939 -17.700  0.00  0.00    -0.083 Cl
ATOM      2  C   UNL     1      33.098 -23.131 -15.494  0.00  0.00    +0.031 C 
ATOM      3  C   UNL     1      34.319 -23.130 -14.821  0.00  0.00    -0.003 C 
ATOM      4  C   UNL     1      33.042 -22.764 -16.839  0.00  0.00    +0.001 C 
ATOM      5  C   UNL     1      35.485 -22.763 -15.492  0.00  0.00    -0.007 C 
ATOM      6  C   UNL     1      34.208 -22.397 -17.510  0.00  0.00    +0.011 C 
ATOM      7  C   UNL     1      35.431 -22.396 -16.837  0.00  0.00    +0.054 C 
ENDROOT
BRANCH   2  11
ATOM      8  O   UNL     1      30.898 -24.207 -15.630  0.00  0.00    -0.326 OA
ATOM      9  O   UNL     1      31.166 -22.348 -14.264  0.00  0.00    -0.326 OA
ATOM     10  C   UNL     1      29.643 -23.976 -14.977  0.00  0.00    +0.176 C 
ATOM     11  C   UNL     1      31.830 -23.529 -14.765  0.00  0.00    +0.235 C 
ATOM     12  C   UNL     1      29.578 -24.911 -13.742  0.00  0.00    +0.169 C 
ATOM     13  C   UNL     1      32.094 -24.468 -13.565  0.00  0.00    +0.196 C 
ATOM     14  C   UNL     1      30.791 -24.772 -12.798  0.00  0.00    +0.172 C 
ATOM     15  C   UNL     1      29.786 -22.503 -14.623  0.00  0.00    +0.177 C 
BRANCH  12  16
ATOM     16  O   UNL     1      29.530 -26.264 -14.207  0.00  0.00    -0.379 OA
ATOM     17  H   UNL     1      30.005 -26.837 -13.586  0.00  0.00    +0.211 HD
ENDBRANCH  12  16
BRANCH  13  18
ATOM     18  O   UNL     1      32.651 -25.698 -14.030  0.00  0.00    -0.377 OA
ATOM     19  H   UNL     1      33.524 -25.830 -13.627  0.00  0.00    +0.211 HD
ENDBRANCH  13  18
BRANCH  14  20
ATOM     20  O   UNL     1      30.553 -23.704 -11.880  0.00  0.00    -0.379 OA
ATOM     21  H   UNL     1      30.050 -23.003 -12.323  0.00  0.00    +0.211 HD
ENDBRANCH  14  20
BRANCH  10  22
ATOM     22  C   UNL     1      28.505 -24.225 -15.958  0.00  0.00    +0.169 C 
BRANCH  22  23
ATOM     23  O   UNL     1      28.415 -23.116 -16.836  0.00  0.00    -0.379 OA
ATOM     24  H   UNL     1      28.144 -22.330 -16.336  0.00  0.00    +0.211 HD
ENDBRANCH  22  23
ENDBRANCH  10  22
ENDBRANCH   2  11
BRANCH   5  25
ATOM     25  C   UNL     1      36.774 -22.776 -14.736  0.00  0.00    +0.054 C 
BRANCH  25  27
ATOM     26  F   UNL     1      37.046 -24.824 -10.309  0.00  0.00    -0.201 F 
ATOM     27  C   UNL     1      36.949 -23.990 -13.846  0.00  0.00    -0.015 C 
ATOM     28  C   UNL     1      36.917 -23.848 -12.459  0.00  0.00    +0.029 C 
ATOM     29  C   UNL     1      37.143 -25.248 -14.415  0.00  0.00    -0.001 C 
ATOM     30  C   UNL     1      37.078 -24.966 -11.641  0.00  0.00    +0.174 C 
ATOM     31  C   UNL     1      37.304 -26.365 -13.597  0.00  0.00    +0.039 C 
ATOM     32  C   UNL     1      37.272 -26.224 -12.210  0.00  0.00    +0.166 C 
BRANCH  32  33
ATOM     33  O   UNL     1      37.430 -27.316 -11.412  0.00  0.00    -0.473 OA
BRANCH  33  34
ATOM     34  C   UNL     1      37.643 -28.569 -12.062  0.00  0.00    +0.206 C 
ATOM     35  C   UNL     1      37.769 -29.653 -11.012  0.00  0.00    +0.051 C 
ENDBRANCH  33  34
ENDBRANCH  32  33
ENDBRANCH  25  27
ENDBRANCH   5  25
TORSDOF 10
ENDMDL
MODEL 5
REMARK VINA RESULT:      -9.1      3.230      5.012
REMARK  Name = 56832738
REMARK  10 active torsions:
REMARK  status: ('A' for Active; 'I' for Inactive)
REMARK    1  A    between atoms: C_2  and  C_11
REMARK    2  A    between atoms: C_5  and  C_25
REMARK    3  A    between atoms: C_10  and  C_22
REMARK    4  A    between atoms: C_12  and  O_16
REMARK    5  A    between atoms: C_13  and  O_18
REMARK    6  A    between atoms: C_14  and  O_20
REMARK    7  A    between atoms: C_22  and  O_23
REMARK    8  A    between atoms: C_25  and  C_27
REMARK    9  A    between atoms: C_32  and  O_33
REMARK   10  A    between atoms: O_33  and  C_34
REMARK                            x       y       z     vdW  Elec       q    Type
REMARK                         _______ _______ _______ _____ _____    ______ ____
ROOT
ATOM      1 CL   UNL     1      35.988 -20.845 -19.268  0.00  0.00    -0.083 Cl
ATOM      2  C   UNL     1      36.892 -22.910 -15.356  0.00  0.00    +0.031 C 
ATOM      3  C   UNL     1      35.633 -23.059 -15.937  0.00  0.00    -0.003 C 
ATOM      4  C   UNL     1      37.862 -22.129 -15.985  0.00  0.00    +0.001 C 
ATOM      5  C   UNL     1      35.343 -22.426 -17.145  0.00  0.00    -0.007 C 
ATOM      6  C   UNL     1      37.572 -21.496 -17.193  0.00  0.00    +0.011 C 
ATOM      7  C   UNL     1      36.312 -21.645 -17.774  0.00  0.00    +0.054 C 
ENDROOT
BRANCH   2  11
ATOM      8  O   UNL     1      36.046 -24.230 -13.470  0.00  0.00    -0.326 OA
ATOM      9  O   UNL     1      37.679 -22.623 -13.084  0.00  0.00    -0.326 OA
ATOM     10  C   UNL     1      36.379 -24.289 -12.077  0.00  0.00    +0.176 C 
ATOM     11  C   UNL     1      37.208 -23.598 -14.043  0.00  0.00    +0.235 C 
ATOM     12  C   UNL     1      37.414 -25.429 -11.890  0.00  0.00    +0.169 C 
ATOM     13  C   UNL     1      38.293 -24.690 -14.179  0.00  0.00    +0.196 C 
ATOM     14  C   UNL     1      38.649 -25.297 -12.807  0.00  0.00    +0.172 C 
ATOM     15  C   UNL     1      36.958 -22.896 -11.874  0.00  0.00    +0.177 C 
BRANCH  12  16
ATOM     16  O   UNL     1      36.769 -26.671 -12.188  0.00  0.00    -0.379 OA
ATOM     17  H   UNL     1      36.053 -26.520 -12.823  0.00  0.00    +0.211 HD
ENDBRANCH  12  16
BRANCH  13  18
ATOM     18  O   UNL     1      37.822 -25.732 -15.034  0.00  0.00    -0.377 OA
ATOM     19  H   UNL     1      38.359 -25.755 -15.842  0.00  0.00    +0.211 HD
ENDBRANCH  13  18
BRANCH  14  20
ATOM     20  O   UNL     1      39.613 -24.450 -12.179  0.00  0.00    -0.379 OA
ATOM     21  H   UNL     1      39.520 -23.547 -12.519  0.00  0.00    +0.211 HD
ENDBRANCH  14  20
BRANCH  10  22
ATOM     22  C   UNL     1      35.113 -24.511 -11.260  0.00  0.00    +0.169 C 
BRANCH  22  23
ATOM     23  O   UNL     1      35.468 -25.138 -10.040  0.00  0.00    -0.379 OA
ATOM     24  H   UNL     1      36.402 -25.399 -10.070  0.00  0.00    +0.211 HD
ENDBRANCH  22  23
ENDBRANCH  10  22
ENDBRANCH   2  11
BRANCH   5  25
ATOM     25  C   UNL     1      33.981 -22.610 -17.734  0.00  0.00    +0.054 C 
BRANCH  25  27
ATOM     26  F   UNL     1      32.537 -24.078 -13.304  0.00  0.00    -0.201 F 
ATOM     27  C   UNL     1      32.895 -22.838 -16.704  0.00  0.00    -0.015 C 
ATOM     28  C   UNL     1      33.219 -23.363 -15.452  0.00  0.00    +0.029 C 
ATOM     29  C   UNL     1      31.570 -22.526 -17.006  0.00  0.00    -0.001 C 
ATOM     30  C   UNL     1      32.219 -23.573 -14.504  0.00  0.00    +0.174 C 
ATOM     31  C   UNL     1      30.570 -22.736 -16.058  0.00  0.00    +0.039 C 
ATOM     32  C   UNL     1      30.894 -23.260 -14.807  0.00  0.00    +0.166 C 
BRANCH  32  33
ATOM     33  O   UNL     1      29.916 -23.466 -13.882  0.00  0.00    -0.473 OA
BRANCH  33  34
ATOM     34  C   UNL     1      28.822 -24.296 -14.270  0.00  0.00    +0.206 C 
ATOM     35  C   UNL     1      29.286 -25.736 -14.309  0.00  0.00    +0.051 C 
ENDBRANCH  33  34
ENDBRANCH  32  33
ENDBRANCH  25  27
ENDBRANCH   5  25
TORSDOF 10
ENDMDL
MODEL 6
REMARK VINA RESULT:      -8.8      3.883      7.551
REMARK  Name = 56832738
REMARK  10 active torsions:
REMARK  status: ('A' for Active; 'I' for Inactive)
REMARK    1  A    between atoms: C_2  and  C_11
REMARK    2  A    between atoms: C_5  and  C_25
REMARK    3  A    between atoms: C_10  and  C_22
REMARK    4  A    between atoms: C_12  and  O_16
REMARK    5  A    between atoms: C_13  and  O_18
REMARK    6  A    between atoms: C_14  and  O_20
REMARK    7  A    between atoms: C_22  and  O_23
REMARK    8  A    between atoms: C_25  and  C_27
REMARK    9  A    between atoms: C_32  and  O_33
REMARK   10  A    between atoms: O_33  and  C_34
REMARK                            x       y       z     vdW  Elec       q    Type
REMARK                         _______ _______ _______ _____ _____    ______ ____
ROOT
ATOM      1 CL   UNL     1      37.161 -22.033 -17.228  0.00  0.00    -0.083 Cl
ATOM      2  C   UNL     1      33.247 -23.155 -15.276  0.00  0.00    +0.031 C 
ATOM      3  C   UNL     1      34.419 -23.165 -14.521  0.00  0.00    -0.003 C 
ATOM      4  C   UNL     1      33.289 -22.798 -16.624  0.00  0.00    +0.001 C 
ATOM      5  C   UNL     1      35.634 -22.820 -15.113  0.00  0.00    -0.007 C 
ATOM      6  C   UNL     1      34.504 -22.453 -17.217  0.00  0.00    +0.011 C 
ATOM      7  C   UNL     1      35.677 -22.463 -16.461  0.00  0.00    +0.054 C 
ENDROOT
BRANCH   2  11
ATOM      8  O   UNL     1      31.022 -24.145 -15.571  0.00  0.00    -0.326 OA
ATOM      9  O   UNL     1      31.276 -22.341 -14.130  0.00  0.00    -0.326 OA
ATOM     10  C   UNL     1      29.741 -23.889 -14.981  0.00  0.00    +0.176 C 
ATOM     11  C   UNL     1      31.927 -23.530 -14.633  0.00  0.00    +0.235 C 
ATOM     12  C   UNL     1      29.573 -24.860 -13.785  0.00  0.00    +0.169 C 
ATOM     13  C   UNL     1      32.089 -24.516 -13.453  0.00  0.00    +0.196 C 
ATOM     14  C   UNL     1      30.735 -24.795 -12.770  0.00  0.00    +0.172 C 
ATOM     15  C   UNL     1      29.914 -22.434 -14.570  0.00  0.00    +0.177 C 
BRANCH  12  16
ATOM     16  O   UNL     1      29.505 -26.194 -14.298  0.00  0.00    -0.379 OA
ATOM     17  H   UNL     1      30.402 -26.525 -14.460  0.00  0.00    +0.211 HD
ENDBRANCH  12  16
BRANCH  13  18
ATOM     18  O   UNL     1      32.628 -25.749 -13.927  0.00  0.00    -0.377 OA
ATOM     19  H   UNL     1      32.612 -26.405 -13.213  0.00  0.00    +0.211 HD
ENDBRANCH  13  18
BRANCH  14  20
ATOM     20  O   UNL     1      30.482 -23.749 -11.831  0.00  0.00    -0.379 OA
ATOM     21  H   UNL     1      30.385 -22.908 -12.303  0.00  0.00    +0.211 HD
ENDBRANCH  14  20
BRANCH  10  22
ATOM     22  C   UNL     1      28.653 -24.065 -16.033  0.00  0.00    +0.169 C 
BRANCH  22  23
ATOM     23  O   UNL     1      28.594 -22.890 -16.822  0.00  0.00    -0.379 OA
ATOM     24  H   UNL     1      28.350 -22.136 -16.263  0.00  0.00    +0.211 HD
ENDBRANCH  22  23
ENDBRANCH  10  22
ENDBRANCH   2  11
BRANCH   5  25
ATOM     25  C   UNL     1      36.868 -22.844 -14.270  0.00  0.00    +0.054 C 
BRANCH  25  27
ATOM     26  F   UNL     1      36.811 -27.667 -15.047  0.00  0.00    -0.201 F 
ATOM     27  C   UNL     1      37.522 -24.207 -14.183  0.00  0.00    -0.015 C 
ATOM     28  C   UNL     1      36.854 -25.334 -14.664  0.00  0.00    +0.029 C 
ATOM     29  C   UNL     1      38.791 -24.336 -13.620  0.00  0.00    -0.001 C 
ATOM     30  C   UNL     1      37.457 -26.588 -14.583  0.00  0.00    +0.174 C 
ATOM     31  C   UNL     1      39.394 -25.591 -13.540  0.00  0.00    +0.039 C 
ATOM     32  C   UNL     1      38.727 -26.717 -14.021  0.00  0.00    +0.166 C 
BRANCH  32  33
ATOM     33  O   UNL     1      39.316 -27.942 -13.941  0.00  0.00    -0.473 OA
BRANCH  33  34
ATOM     34  C   UNL     1      40.521 -28.131 -14.682  0.00  0.00    +0.206 C 
ATOM     35  C   UNL     1      40.193 -28.149 -16.160  0.00  0.00    +0.051 C 
ENDBRANCH  33  34
ENDBRANCH  32  33
ENDBRANCH  25  27
ENDBRANCH   5  25
TORSDOF 10
ENDMDL
MODEL 7
REMARK VINA RESULT:      -8.7      1.256      2.674
REMARK  Name = 56832738
REMARK  10 active torsions:
REMARK  status: ('A' for Active; 'I' for Inactive)
REMARK    1  A    between atoms: C_2  and  C_11
REMARK    2  A    between atoms: C_5  and  C_25
REMARK    3  A    between atoms: C_10  and  C_22
REMARK    4  A    between atoms: C_12  and  O_16
REMARK    5  A    between atoms: C_13  and  O_18
REMARK    6  A    between atoms: C_14  and  O_20
REMARK    7  A    between atoms: C_22  and  O_23
REMARK    8  A    between atoms: C_25  and  C_27
REMARK    9  A    between atoms: C_32  and  O_33
REMARK   10  A    between atoms: O_33  and  C_34
REMARK                            x       y       z     vdW  Elec       q    Type
REMARK                         _______ _______ _______ _____ _____    ______ ____
ROOT
ATOM      1 CL   UNL     1      30.937 -22.347 -16.429  0.00  0.00    -0.083 Cl
ATOM      2  C   UNL     1      34.628 -24.010 -14.429  0.00  0.00    +0.031 C 
ATOM      3  C   UNL     1      34.540 -24.013 -15.821  0.00  0.00    -0.003 C 
ATOM      4  C   UNL     1      33.581 -23.493 -13.666  0.00  0.00    +0.001 C 
ATOM      5  C   UNL     1      33.405 -23.502 -16.449  0.00  0.00    -0.007 C 
ATOM      6  C   UNL     1      32.446 -22.982 -14.294  0.00  0.00    +0.011 C 
ATOM      7  C   UNL     1      32.357 -22.986 -15.687  0.00  0.00    +0.054 C 
ENDROOT
BRANCH   2  11
ATOM      8  O   UNL     1      37.058 -23.859 -14.131  0.00  0.00    -0.326 OA
ATOM      9  O   UNL     1      36.045 -25.949 -14.122  0.00  0.00    -0.326 OA
ATOM     10  C   UNL     1      38.085 -24.828 -13.883  0.00  0.00    +0.176 C 
ATOM     11  C   UNL     1      35.862 -24.565 -13.746  0.00  0.00    +0.235 C 
ATOM     12  C   UNL     1      38.305 -24.894 -12.349  0.00  0.00    +0.169 C 
ATOM     13  C   UNL     1      35.779 -24.500 -12.204  0.00  0.00    +0.196 C 
ATOM     14  C   UNL     1      37.010 -25.159 -11.551  0.00  0.00    +0.172 C 
ATOM     15  C   UNL     1      37.432 -26.074 -14.462  0.00  0.00    +0.177 C 
BRANCH  12  16
ATOM     16  O   UNL     1      38.843 -23.640 -11.919  0.00  0.00    -0.379 OA
ATOM     17  H   UNL     1      38.135 -23.098 -11.538  0.00  0.00    +0.211 HD
ENDBRANCH  12  16
BRANCH  13  18
ATOM     18  O   UNL     1      35.709 -23.138 -11.783  0.00  0.00    -0.377 OA
ATOM     19  H   UNL     1      35.033 -22.674 -12.302  0.00  0.00    +0.211 HD
ENDBRANCH  13  18
BRANCH  14  20
ATOM     20  O   UNL     1      36.781 -26.568 -11.482  0.00  0.00    -0.379 OA
ATOM     21  H   UNL     1      36.864 -26.863 -10.562  0.00  0.00    +0.211 HD
ENDBRANCH  14  20
BRANCH  10  22
ATOM     22  C   UNL     1      39.349 -24.435 -14.637  0.00  0.00    +0.169 C 
BRANCH  22  23
ATOM     23  O   UNL     1      39.764 -25.537 -15.425  0.00  0.00    -0.379 OA
ATOM     24  H   UNL     1      39.240 -26.319 -15.189  0.00  0.00    +0.211 HD
ENDBRANCH  22  23
ENDBRANCH  10  22
ENDBRANCH   2  11
BRANCH   5  25
ATOM     25  C   UNL     1      33.349 -23.525 -17.943  0.00  0.00    +0.054 C 
BRANCH  25  27
ATOM     26  F   UNL     1      33.629 -19.868 -21.170  0.00  0.00    -0.201 F 
ATOM     27  C   UNL     1      34.113 -22.396 -18.602  0.00  0.00    -0.015 C 
ATOM     28  C   UNL     1      33.510 -21.635 -19.603  0.00  0.00    +0.029 C 
ATOM     29  C   UNL     1      35.422 -22.118 -18.208  0.00  0.00    -0.001 C 
ATOM     30  C   UNL     1      34.214 -20.595 -20.208  0.00  0.00    +0.174 C 
ATOM     31  C   UNL     1      36.126 -21.078 -18.813  0.00  0.00    +0.039 C 
ATOM     32  C   UNL     1      35.523 -20.317 -19.815  0.00  0.00    +0.166 C 
BRANCH  32  33
ATOM     33  O   UNL     1      36.212 -19.303 -20.406  0.00  0.00    -0.473 OA
BRANCH  33  34
ATOM     34  C   UNL     1      35.520 -18.067 -20.586  0.00  0.00    +0.206 C 
ATOM     35  C   UNL     1      35.678 -17.620 -22.024  0.00  0.00    +0.051 C 
ENDBRANCH  33  34
ENDBRANCH  32  33
ENDBRANCH  25  27
ENDBRANCH   5  25
TORSDOF 10
ENDMDL
MODEL 8
REMARK VINA RESULT:      -8.3      3.172      5.465
REMARK  Name = 56832738
REMARK  10 active torsions:
REMARK  status: ('A' for Active; 'I' for Inactive)
REMARK    1  A    between atoms: C_2  and  C_11
REMARK    2  A    between atoms: C_5  and  C_25
REMARK    3  A    between atoms: C_10  and  C_22
REMARK    4  A    between atoms: C_12  and  O_16
REMARK    5  A    between atoms: C_13  and  O_18
REMARK    6  A    between atoms: C_14  and  O_20
REMARK    7  A    between atoms: C_22  and  O_23
REMARK    8  A    between atoms: C_25  and  C_27
REMARK    9  A    between atoms: C_32  and  O_33
REMARK   10  A    between atoms: O_33  and  C_34
REMARK                            x       y       z     vdW  Elec       q    Type
REMARK                         _______ _______ _______ _____ _____    ______ ____
ROOT
ATOM      1 CL   UNL     1      35.753 -20.665 -19.238  0.00  0.00    -0.083 Cl
ATOM      2  C   UNL     1      36.687 -23.086 -15.543  0.00  0.00    +0.031 C 
ATOM      3  C   UNL     1      35.417 -23.165 -16.113  0.00  0.00    -0.003 C 
ATOM      4  C   UNL     1      37.658 -22.265 -16.115  0.00  0.00    +0.001 C 
ATOM      5  C   UNL     1      35.118 -22.422 -17.255  0.00  0.00    -0.007 C 
ATOM      6  C   UNL     1      37.359 -21.522 -17.256  0.00  0.00    +0.011 C 
ATOM      7  C   UNL     1      36.088 -21.600 -17.827  0.00  0.00    +0.054 C 
ENDROOT
BRANCH   2  11
ATOM      8  O   UNL     1      38.433 -24.003 -14.085  0.00  0.00    -0.326 OA
ATOM      9  O   UNL     1      36.500 -25.237 -14.448  0.00  0.00    -0.326 OA
ATOM     10  C   UNL     1      38.536 -25.195 -13.297  0.00  0.00    +0.176 C 
ATOM     11  C   UNL     1      37.012 -23.894 -14.302  0.00  0.00    +0.235 C 
ATOM     12  C   UNL     1      38.079 -24.847 -11.856  0.00  0.00    +0.169 C 
ATOM     13  C   UNL     1      36.405 -23.293 -13.014  0.00  0.00    +0.196 C 
ATOM     14  C   UNL     1      36.682 -24.195 -11.794  0.00  0.00    +0.172 C 
ATOM     15  C   UNL     1      37.570 -26.102 -14.044  0.00  0.00    +0.177 C 
BRANCH  12  16
ATOM     16  O   UNL     1      39.024 -23.929 -11.297  0.00  0.00    -0.379 OA
ATOM     17  H   UNL     1      39.251 -23.256 -11.957  0.00  0.00    +0.211 HD
ENDBRANCH  12  16
BRANCH  13  18
ATOM     18  O   UNL     1      36.971 -22.005 -12.771  0.00  0.00    -0.377 OA
ATOM     19  H   UNL     1      37.589 -22.059 -12.026  0.00  0.00    +0.211 HD
ENDBRANCH  13  18
BRANCH  14  20
ATOM     20  O   UNL     1      35.686 -25.218 -11.758  0.00  0.00    -0.379 OA
ATOM     21  H   UNL     1      34.853 -24.872 -12.115  0.00  0.00    +0.211 HD
ENDBRANCH  14  20
BRANCH  10  22
ATOM     22  C   UNL     1      39.968 -25.715 -13.344  0.00  0.00    +0.169 C 
BRANCH  22  23
ATOM     23  O   UNL     1      40.823 -24.647 -13.711  0.00  0.00    -0.379 OA
ATOM     24  H   UNL     1      40.404 -24.123 -14.412  0.00  0.00    +0.211 HD
ENDBRANCH  22  23
ENDBRANCH  10  22
ENDBRANCH   2  11
BRANCH   5  25
ATOM     25  C   UNL     1      33.744 -22.533 -17.835  0.00  0.00    +0.054 C 
BRANCH  25  27
ATOM     26  F   UNL     1      32.317 -24.160 -13.455  0.00  0.00    -0.201 F 
ATOM     27  C   UNL     1      32.664 -22.788 -16.804  0.00  0.00    -0.015 C 
ATOM     28  C   UNL     1      32.991 -23.368 -15.579  0.00  0.00    +0.029 C 
ATOM     29  C   UNL     1      31.341 -22.443 -17.082  0.00  0.00    -0.001 C 
ATOM     30  C   UNL     1      31.996 -23.602 -14.631  0.00  0.00    +0.174 C 
ATOM     31  C   UNL     1      30.346 -22.677 -16.134  0.00  0.00    +0.039 C 
ATOM     32  C   UNL     1      30.674 -23.257 -14.908  0.00  0.00    +0.166 C 
BRANCH  32  33
ATOM     33  O   UNL     1      29.701 -23.486 -13.983  0.00  0.00    -0.473 OA
BRANCH  33  34
ATOM     34  C   UNL     1      28.690 -24.434 -14.326  0.00  0.00    +0.206 C 
ATOM     35  C   UNL     1      29.317 -25.809 -14.421  0.00  0.00    +0.051 C 
ENDBRANCH  33  34
ENDBRANCH  32  33
ENDBRANCH  25  27
ENDBRANCH   5  25
TORSDOF 10
ENDMDL
MODEL 9
REMARK VINA RESULT:      -8.1     11.594     17.867
REMARK  Name = 56832738
REMARK  10 active torsions:
REMARK  status: ('A' for Active; 'I' for Inactive)
REMARK    1  A    between atoms: C_2  and  C_11
REMARK    2  A    between atoms: C_5  and  C_25
REMARK    3  A    between atoms: C_10  and  C_22
REMARK    4  A    between atoms: C_12  and  O_16
REMARK    5  A    between atoms: C_13  and  O_18
REMARK    6  A    between atoms: C_14  and  O_20
REMARK    7  A    between atoms: C_22  and  O_23
REMARK    8  A    between atoms: C_25  and  C_27
REMARK    9  A    between atoms: C_32  and  O_33
REMARK   10  A    between atoms: O_33  and  C_34
REMARK                            x       y       z     vdW  Elec       q    Type
REMARK                         _______ _______ _______ _____ _____    ______ ____
ROOT
ATOM      1 CL   UNL     1      31.944 -10.469 -18.444  0.00  0.00    -0.083 Cl
ATOM      2  C   UNL     1      32.124  -6.934 -21.247  0.00  0.00    +0.031 C 
ATOM      3  C   UNL     1      31.624  -8.152 -21.708  0.00  0.00    -0.003 C 
ATOM      4  C   UNL     1      32.562  -6.814 -19.929  0.00  0.00    +0.001 C 
ATOM      5  C   UNL     1      31.564  -9.250 -20.851  0.00  0.00    -0.007 C 
ATOM      6  C   UNL     1      32.501  -7.913 -19.071  0.00  0.00    +0.011 C 
ATOM      7  C   UNL     1      32.002  -9.131 -19.532  0.00  0.00    +0.054 C 
ENDROOT
BRANCH   2  11
ATOM      8  O   UNL     1      31.730  -6.064 -23.506  0.00  0.00    -0.326 OA
ATOM      9  O   UNL     1      33.558  -5.292 -22.299  0.00  0.00    -0.326 OA
ATOM     10  C   UNL     1      32.383  -5.073 -24.311  0.00  0.00    +0.176 C 
ATOM     11  C   UNL     1      32.190  -5.741 -22.179  0.00  0.00    +0.235 C 
ATOM     12  C   UNL     1      31.637  -3.730 -24.098  0.00  0.00    +0.169 C 
ATOM     13  C   UNL     1      31.341  -4.545 -21.688  0.00  0.00    +0.196 C 
ATOM     14  C   UNL     1      31.511  -3.324 -22.614  0.00  0.00    +0.172 C 
ATOM     15  C   UNL     1      33.778  -5.103 -23.704  0.00  0.00    +0.177 C 
BRANCH  12  16
ATOM     16  O   UNL     1      30.318  -3.860 -24.637  0.00  0.00    -0.379 OA
ATOM     17  H   UNL     1      30.106  -4.800 -24.750  0.00  0.00    +0.211 HD
ENDBRANCH  12  16
BRANCH  13  18
ATOM     18  O   UNL     1      29.962  -4.913 -21.661  0.00  0.00    -0.377 OA
ATOM     19  H   UNL     1      29.662  -4.972 -20.740  0.00  0.00    +0.211 HD
ENDBRANCH  13  18
BRANCH  14  20
ATOM     20  O   UNL     1      32.690  -2.621 -22.218  0.00  0.00    -0.379 OA
ATOM     21  H   UNL     1      32.481  -1.681 -22.100  0.00  0.00    +0.211 HD
ENDBRANCH  14  20
BRANCH  10  22
ATOM     22  C   UNL     1      32.379  -5.518 -25.768  0.00  0.00    +0.169 C 
BRANCH  22  23
ATOM     23  O   UNL     1      32.692  -4.400 -26.581  0.00  0.00    -0.379 OA
ATOM     24  H   UNL     1      32.453  -3.584 -26.114  0.00  0.00    +0.211 HD
ENDBRANCH  22  23
ENDBRANCH  10  22
ENDBRANCH   2  11
BRANCH   5  25
ATOM     25  C   UNL     1      31.023 -10.538 -21.383  0.00  0.00    +0.054 C 
BRANCH  25  27
ATOM     26  F   UNL     1      34.607 -11.992 -24.368  0.00  0.00    -0.201 F 
ATOM     27  C   UNL     1      32.093 -11.533 -21.781  0.00  0.00    -0.015 C 
ATOM     28  C   UNL     1      32.875 -11.303 -22.913  0.00  0.00    +0.029 C 
ATOM     29  C   UNL     1      32.297 -12.681 -21.015  0.00  0.00    -0.001 C 
ATOM     30  C   UNL     1      33.860 -12.219 -23.278  0.00  0.00    +0.174 C 
ATOM     31  C   UNL     1      33.282 -13.597 -21.380  0.00  0.00    +0.039 C 
ATOM     32  C   UNL     1      34.063 -13.367 -22.512  0.00  0.00    +0.166 C 
BRANCH  32  33
ATOM     33  O   UNL     1      35.025 -14.263 -22.869  0.00  0.00    -0.473 OA
BRANCH  33  34
ATOM     34  C   UNL     1      34.634 -15.633 -22.953  0.00  0.00    +0.206 C 
ATOM     35  C   UNL     1      34.264 -15.951 -24.387  0.00  0.00    +0.051 C 
ENDBRANCH  33  34
ENDBRANCH  32  33
ENDBRANCH  25  27
ENDBRANCH   5  25
TORSDOF 10
ENDMDL
