MODEL 1
REMARK VINA RESULT:     -10.9      0.000      0.000
REMARK  Name = 54576693
REMARK  3 active torsions:
REMARK  status: ('A' for Active; 'I' for Inactive)
REMARK    1  A    between atoms: N_2  and  C_19
REMARK    2  A    between atoms: N_4  and  C_14
REMARK    3  A    between atoms: C_19  and  C_24
REMARK                            x       y       z     vdW  Elec       q    Type
REMARK                         _______ _______ _______ _____ _____    ______ ____
ROOT
ATOM      1  O   UNL     1      33.108 -12.874 -25.204  0.00  0.00    -0.252 OA
ATOM      2  N   UNL     1      34.995 -16.797 -22.772  0.00  0.00    +0.392 N 
ATOM      3  N   UNL     1      33.718 -14.330 -23.513  0.00  0.00    -0.268 N 
ATOM      4  N   UNL     1      33.331 -12.048 -23.046  0.00  0.00    -0.266 N 
ATOM      5  C   UNL     1      34.968 -16.367 -24.176  0.00  0.00    -0.055 C 
ATOM      6  C   UNL     1      35.083 -15.628 -21.889  0.00  0.00    -0.055 C 
ATOM      7  C   UNL     1      33.899 -14.678 -22.097  0.00  0.00    +0.072 C 
ATOM      8  C   UNL     1      33.763 -15.467 -24.435  0.00  0.00    +0.072 C 
ATOM      9  C   UNL     1      33.373 -13.055 -24.013  0.00  0.00    +0.308 C 
ATOM     10  H   UNL     1      34.129 -17.297 -22.566  0.00  0.00    -0.079 HD
ATOM     11  H   UNL     1      33.086 -12.329 -22.135  0.00  0.00    +0.156 HD
ENDROOT
BRANCH   4  14
ATOM     12 CL   UNL     1      31.398 -10.052 -21.748  0.00  0.00    -0.081 Cl
ATOM     13  N   UNL     1      35.043  -8.992 -24.204  0.00  0.00    -0.241 NA
ATOM     14  C   UNL     1      33.601 -10.670 -23.230  0.00  0.00    +0.082 C 
ATOM     15  C   UNL     1      32.795  -9.674 -22.689  0.00  0.00    +0.074 C 
ATOM     16  C   UNL     1      34.704 -10.279 -23.973  0.00  0.00    +0.114 C 
ATOM     17  C   UNL     1      33.112  -8.337 -22.906  0.00  0.00    +0.033 C 
ATOM     18  C   UNL     1      34.237  -8.052 -23.663  0.00  0.00    +0.100 C 
ENDBRANCH   4  14
BRANCH   2  19
ATOM     19  C   UNL     1      36.115 -17.706 -22.534  0.00  0.00    -0.050 C 
BRANCH  19  24
ATOM     20  F   UNL     1      32.584 -21.360 -18.066  0.00  0.00    -0.125 F 
ATOM     21  F   UNL     1      33.061 -22.935 -19.509  0.00  0.00    -0.125 F 
ATOM     22  O   UNL     1      33.006 -20.781 -20.217  0.00  0.00    -0.395 OA
ATOM     23  O   UNL     1      34.733 -21.607 -18.745  0.00  0.00    -0.395 OA
ATOM     24  C   UNL     1      35.779 -18.752 -21.505  0.00  0.00    -0.040 C 
ATOM     25  C   UNL     1      34.473 -19.237 -21.412  0.00  0.00    +0.034 C 
ATOM     26  C   UNL     1      36.785 -19.233 -20.648  0.00  0.00    -0.003 C 
ATOM     27  C   UNL     1      34.212 -20.196 -20.454  0.00  0.00    +0.181 C 
ATOM     28  C   UNL     1      35.198 -20.667 -19.614  0.00  0.00    +0.182 C 
ATOM     29  C   UNL     1      36.496 -20.204 -19.687  0.00  0.00    +0.040 C 
ATOM     30  C   UNL     1      33.355 -21.663 -19.139  0.00  0.00    +0.589 C 
ENDBRANCH  19  24
ENDBRANCH   2  19
TORSDOF 3
ENDMDL
MODEL 2
REMARK VINA RESULT:     -10.7      5.161     10.216
REMARK  Name = 54576693
REMARK  3 active torsions:
REMARK  status: ('A' for Active; 'I' for Inactive)
REMARK    1  A    between atoms: N_2  and  C_19
REMARK    2  A    between atoms: N_4  and  C_14
REMARK    3  A    between atoms: C_19  and  C_24
REMARK                            x       y       z     vdW  Elec       q    Type
REMARK                         _______ _______ _______ _____ _____    ______ ____
ROOT
ATOM      1  O   UNL     1      35.203 -18.867 -23.483  0.00  0.00    -0.252 OA
ATOM      2  N   UNL     1      33.945 -14.048 -23.736  0.00  0.00    +0.392 N 
ATOM      3  N   UNL     1      34.898 -16.640 -22.936  0.00  0.00    -0.268 N 
ATOM      4  N   UNL     1      35.100 -18.272 -21.242  0.00  0.00    -0.266 N 
ATOM      5  C   UNL     1      33.799 -15.202 -24.632  0.00  0.00    -0.055 C 
ATOM      6  C   UNL     1      33.824 -14.479 -22.337  0.00  0.00    -0.055 C 
ATOM      7  C   UNL     1      34.884 -15.525 -21.979  0.00  0.00    +0.072 C 
ATOM      8  C   UNL     1      34.881 -16.240 -24.344  0.00  0.00    +0.072 C 
ATOM      9  C   UNL     1      35.069 -18.005 -22.612  0.00  0.00    +0.308 C 
ATOM     10  H   UNL     1      34.870 -13.642 -23.873  0.00  0.00    -0.079 HD
ATOM     11  H   UNL     1      35.455 -17.557 -20.666  0.00  0.00    +0.156 HD
ENDROOT
BRANCH   4  14
ATOM     12 CL   UNL     1      37.261 -19.972 -19.882  0.00  0.00    -0.081 Cl
ATOM     13  N   UNL     1      32.840 -20.908 -19.995  0.00  0.00    -0.241 NA
ATOM     14  C   UNL     1      34.679 -19.457 -20.589  0.00  0.00    +0.082 C 
ATOM     15  C   UNL     1      35.569 -20.306 -19.939  0.00  0.00    +0.074 C 
ATOM     16  C   UNL     1      33.337 -19.801 -20.588  0.00  0.00    +0.114 C 
ATOM     17  C   UNL     1      35.095 -21.457 -19.317  0.00  0.00    +0.033 C 
ATOM     18  C   UNL     1      33.734 -21.709 -19.373  0.00  0.00    +0.100 C 
ENDBRANCH   4  14
BRANCH   2  19
ATOM     19  C   UNL     1      32.946 -13.027 -24.047  0.00  0.00    -0.050 C 
BRANCH  19  24
ATOM     20  F   UNL     1      33.468  -6.355 -23.047  0.00  0.00    -0.125 F 
ATOM     21  F   UNL     1      34.985  -7.042 -21.628  0.00  0.00    -0.125 F 
ATOM     22  O   UNL     1      33.301  -8.450 -22.196  0.00  0.00    -0.395 OA
ATOM     23  O   UNL     1      35.038  -7.829 -23.754  0.00  0.00    -0.395 OA
ATOM     24  C   UNL     1      33.529 -11.640 -23.996  0.00  0.00    -0.040 C 
ATOM     25  C   UNL     1      33.062 -10.725 -23.049  0.00  0.00    +0.034 C 
ATOM     26  C   UNL     1      34.541 -11.278 -24.903  0.00  0.00    -0.003 C 
ATOM     27  C   UNL     1      33.627  -9.467 -23.041  0.00  0.00    +0.181 C 
ATOM     28  C   UNL     1      34.619  -9.112 -23.930  0.00  0.00    +0.182 C 
ATOM     29  C   UNL     1      35.098  -9.997 -24.874  0.00  0.00    +0.040 C 
ATOM     30  C   UNL     1      34.198  -7.430 -22.662  0.00  0.00    +0.589 C 
ENDBRANCH  19  24
ENDBRANCH   2  19
TORSDOF 3
ENDMDL
MODEL 3
REMARK VINA RESULT:     -10.7      6.330      9.819
REMARK  Name = 54576693
REMARK  3 active torsions:
REMARK  status: ('A' for Active; 'I' for Inactive)
REMARK    1  A    between atoms: N_2  and  C_19
REMARK    2  A    between atoms: N_4  and  C_14
REMARK    3  A    between atoms: C_19  and  C_24
REMARK                            x       y       z     vdW  Elec       q    Type
REMARK                         _______ _______ _______ _____ _____    ______ ____
ROOT
ATOM      1  O   UNL     1      37.180 -21.206 -17.579  0.00  0.00    -0.252 OA
ATOM      2  N   UNL     1      33.776 -23.580 -14.814  0.00  0.00    +0.392 N 
ATOM      3  N   UNL     1      35.371 -22.505 -16.951  0.00  0.00    -0.268 N 
ATOM      4  N   UNL     1      35.459 -21.535 -19.101  0.00  0.00    -0.266 N 
ATOM      5  C   UNL     1      34.904 -22.687 -14.521  0.00  0.00    -0.055 C 
ATOM      6  C   UNL     1      33.145 -23.196 -16.084  0.00  0.00    -0.055 C 
ATOM      7  C   UNL     1      34.143 -23.255 -17.245  0.00  0.00    +0.072 C 
ATOM      8  C   UNL     1      35.949 -22.767 -15.632  0.00  0.00    +0.072 C 
ATOM      9  C   UNL     1      36.085 -21.696 -17.864  0.00  0.00    +0.308 C 
ATOM     10  H   UNL     1      34.128 -24.534 -14.900  0.00  0.00    -0.079 HD
ATOM     11  H   UNL     1      34.894 -22.282 -19.405  0.00  0.00    +0.156 HD
ENDROOT
BRANCH   4  14
ATOM     12 CL   UNL     1      32.845 -20.503 -20.330  0.00  0.00    -0.081 Cl
ATOM     13  N   UNL     1      36.963 -18.777 -21.036  0.00  0.00    -0.241 NA
ATOM     14  C   UNL     1      35.545 -20.417 -19.968  0.00  0.00    +0.082 C 
ATOM     15  C   UNL     1      34.428 -19.863 -20.583  0.00  0.00    +0.074 C 
ATOM     16  C   UNL     1      36.779 -19.842 -20.225  0.00  0.00    +0.114 C 
ATOM     17  C   UNL     1      34.577 -18.766 -21.425  0.00  0.00    +0.033 C 
ATOM     18  C   UNL     1      35.855 -18.265 -21.617  0.00  0.00    +0.100 C 
ENDBRANCH   4  14
BRANCH   2  19
ATOM     19  C   UNL     1      32.800 -23.549 -13.726  0.00  0.00    -0.050 C 
BRANCH  19  24
ATOM     20  F   UNL     1      26.432 -22.107 -15.502  0.00  0.00    -0.125 F 
ATOM     21  F   UNL     1      27.207 -22.735 -17.451  0.00  0.00    -0.125 F 
ATOM     22  O   UNL     1      28.658 -21.936 -15.902  0.00  0.00    -0.395 OA
ATOM     23  O   UNL     1      27.556 -24.070 -15.652  0.00  0.00    -0.395 OA
ATOM     24  C   UNL     1      31.393 -23.724 -14.231  0.00  0.00    -0.040 C 
ATOM     25  C   UNL     1      30.737 -22.651 -14.840  0.00  0.00    +0.034 C 
ATOM     26  C   UNL     1      30.751 -24.967 -14.085  0.00  0.00    -0.003 C 
ATOM     27  C   UNL     1      29.449 -22.859 -15.288  0.00  0.00    +0.181 C 
ATOM     28  C   UNL     1      28.819 -24.077 -15.145  0.00  0.00    +0.182 C 
ATOM     29  C   UNL     1      29.446 -25.152 -14.547  0.00  0.00    +0.040 C 
ATOM     30  C   UNL     1      27.473 -22.717 -16.121  0.00  0.00    +0.589 C 
ENDBRANCH  19  24
ENDBRANCH   2  19
TORSDOF 3
ENDMDL
MODEL 4
REMARK VINA RESULT:     -10.1      3.684      5.711
REMARK  Name = 54576693
REMARK  3 active torsions:
REMARK  status: ('A' for Active; 'I' for Inactive)
REMARK    1  A    between atoms: N_2  and  C_19
REMARK    2  A    between atoms: N_4  and  C_14
REMARK    3  A    between atoms: C_19  and  C_24
REMARK                            x       y       z     vdW  Elec       q    Type
REMARK                         _______ _______ _______ _____ _____    ______ ____
ROOT
ATOM      1  O   UNL     1      31.547  -7.273 -21.763  0.00  0.00    -0.252 OA
ATOM      2  N   UNL     1      33.622 -11.578 -23.187  0.00  0.00    +0.392 N 
ATOM      3  N   UNL     1      33.053  -8.825 -22.586  0.00  0.00    -0.268 N 
ATOM      4  N   UNL     1      33.204  -6.556 -23.221  0.00  0.00    -0.266 N 
ATOM      5  C   UNL     1      32.312 -11.192 -22.648  0.00  0.00    -0.055 C 
ATOM      6  C   UNL     1      34.146 -10.511 -24.050  0.00  0.00    -0.055 C 
ATOM      7  C   UNL     1      34.292  -9.193 -23.284  0.00  0.00    +0.072 C 
ATOM      8  C   UNL     1      32.432  -9.911 -21.825  0.00  0.00    +0.072 C 
ATOM      9  C   UNL     1      32.520  -7.521 -22.479  0.00  0.00    +0.308 C 
ATOM     10  H   UNL     1      34.268 -11.716 -22.410  0.00  0.00    -0.079 HD
ATOM     11  H   UNL     1      34.167  -6.711 -23.355  0.00  0.00    +0.156 HD
ENDROOT
BRANCH   4  14
ATOM     12 CL   UNL     1      34.936  -5.095 -25.288  0.00  0.00    -0.081 Cl
ATOM     13  N   UNL     1      30.815  -3.834 -23.922  0.00  0.00    -0.241 NA
ATOM     14  C   UNL     1      32.668  -5.381 -23.803  0.00  0.00    +0.082 C 
ATOM     15  C   UNL     1      33.362  -4.635 -24.750  0.00  0.00    +0.074 C 
ATOM     16  C   UNL     1      31.409  -4.941 -23.426  0.00  0.00    +0.114 C 
ATOM     17  C   UNL     1      32.783  -3.488 -25.284  0.00  0.00    +0.033 C 
ATOM     18  C   UNL     1      31.518  -3.134 -24.841  0.00  0.00    +0.100 C 
ENDBRANCH   4  14
BRANCH   2  19
ATOM     19  C   UNL     1      33.522 -12.835 -23.928  0.00  0.00    -0.050 C 
BRANCH  19  24
ATOM     20  F   UNL     1      34.913 -19.196 -22.086  0.00  0.00    -0.125 F 
ATOM     21  F   UNL     1      36.954 -18.423 -22.249  0.00  0.00    -0.125 F 
ATOM     22  O   UNL     1      35.307 -17.426 -23.448  0.00  0.00    -0.395 OA
ATOM     23  O   UNL     1      35.433 -17.252 -21.042  0.00  0.00    -0.395 OA
ATOM     24  C   UNL     1      34.029 -14.001 -23.122  0.00  0.00    -0.040 C 
ATOM     25  C   UNL     1      34.424 -15.173 -23.773  0.00  0.00    +0.034 C 
ATOM     26  C   UNL     1      34.102 -13.899 -21.722  0.00  0.00    -0.003 C 
ATOM     27  C   UNL     1      34.883 -16.215 -22.993  0.00  0.00    +0.181 C 
ATOM     28  C   UNL     1      34.954 -16.115 -21.620  0.00  0.00    +0.182 C 
ATOM     29  C   UNL     1      34.571 -14.969 -20.955  0.00  0.00    +0.040 C 
ATOM     30  C   UNL     1      35.647 -18.062 -22.206  0.00  0.00    +0.589 C 
ENDBRANCH  19  24
ENDBRANCH   2  19
TORSDOF 3
ENDMDL
MODEL 5
REMARK VINA RESULT:     -10.0      5.998     10.633
REMARK  Name = 54576693
REMARK  3 active torsions:
REMARK  status: ('A' for Active; 'I' for Inactive)
REMARK    1  A    between atoms: N_2  and  C_19
REMARK    2  A    between atoms: N_4  and  C_14
REMARK    3  A    between atoms: C_19  and  C_24
REMARK                            x       y       z     vdW  Elec       q    Type
REMARK                         _______ _______ _______ _____ _____    ______ ____
ROOT
ATOM      1  O   UNL     1      35.070 -14.824 -24.474  0.00  0.00    -0.252 OA
ATOM      2  N   UNL     1      32.648 -11.757 -21.378  0.00  0.00    +0.392 N 
ATOM      3  N   UNL     1      34.238 -13.845 -22.550  0.00  0.00    -0.268 N 
ATOM      4  N   UNL     1      34.888 -16.115 -22.554  0.00  0.00    -0.266 N 
ATOM      5  C   UNL     1      32.768 -11.868 -22.837  0.00  0.00    -0.055 C 
ATOM      6  C   UNL     1      32.678 -13.091 -20.766  0.00  0.00    -0.055 C 
ATOM      7  C   UNL     1      33.975 -13.833 -21.105  0.00  0.00    +0.072 C 
ATOM      8  C   UNL     1      34.081 -12.549 -23.213  0.00  0.00    +0.072 C 
ATOM      9  C   UNL     1      34.751 -14.935 -23.288  0.00  0.00    +0.308 C 
ATOM     10  H   UNL     1      33.439 -11.218 -21.024  0.00  0.00    -0.079 HD
ATOM     11  H   UNL     1      35.070 -16.011 -21.592  0.00  0.00    +0.156 HD
ENDROOT
BRANCH   4  14
ATOM     12 CL   UNL     1      36.395 -18.288 -21.001  0.00  0.00    -0.081 Cl
ATOM     13  N   UNL     1      33.892 -18.940 -24.708  0.00  0.00    -0.241 NA
ATOM     14  C   UNL     1      34.793 -17.443 -23.038  0.00  0.00    +0.082 C 
ATOM     15  C   UNL     1      35.434 -18.510 -22.417  0.00  0.00    +0.074 C 
ATOM     16  C   UNL     1      34.041 -17.710 -24.171  0.00  0.00    +0.114 C 
ATOM     17  C   UNL     1      35.304 -19.792 -22.941  0.00  0.00    +0.033 C 
ATOM     18  C   UNL     1      34.529 -19.952 -24.078  0.00  0.00    +0.100 C 
ENDBRANCH   4  14
BRANCH   2  19
ATOM     19  C   UNL     1      31.418 -11.054 -21.015  0.00  0.00    -0.050 C 
BRANCH  19  24
ATOM     20  F   UNL     1      32.957  -4.666 -22.634  0.00  0.00    -0.125 F 
ATOM     21  F   UNL     1      30.850  -4.397 -22.106  0.00  0.00    -0.125 F 
ATOM     22  O   UNL     1      31.553  -6.439 -22.799  0.00  0.00    -0.395 OA
ATOM     23  O   UNL     1      32.205  -5.509 -20.668  0.00  0.00    -0.395 OA
ATOM     24  C   UNL     1      31.639  -9.570 -20.887  0.00  0.00    -0.040 C 
ATOM     25  C   UNL     1      31.462  -8.744 -22.000  0.00  0.00    +0.034 C 
ATOM     26  C   UNL     1      32.018  -9.028 -19.646  0.00  0.00    -0.003 C 
ATOM     27  C   UNL     1      31.675  -7.391 -21.833  0.00  0.00    +0.181 C 
ATOM     28  C   UNL     1      32.048  -6.860 -20.617  0.00  0.00    +0.182 C 
ATOM     29  C   UNL     1      32.227  -7.654 -19.503  0.00  0.00    +0.040 C 
ATOM     30  C   UNL     1      31.891  -5.264 -22.046  0.00  0.00    +0.589 C 
ENDBRANCH  19  24
ENDBRANCH   2  19
TORSDOF 3
ENDMDL
MODEL 6
REMARK VINA RESULT:      -9.9      2.988      4.555
REMARK  Name = 54576693
REMARK  3 active torsions:
REMARK  status: ('A' for Active; 'I' for Inactive)
REMARK    1  A    between atoms: N_2  and  C_19
REMARK    2  A    between atoms: N_4  and  C_14
REMARK    3  A    between atoms: C_19  and  C_24
REMARK                            x       y       z     vdW  Elec       q    Type
REMARK                         _______ _______ _______ _____ _____    ______ ____
ROOT
ATOM      1  O   UNL     1      31.335  -9.534 -21.008  0.00  0.00    -0.252 OA
ATOM      2  N   UNL     1      33.637 -13.193 -23.494  0.00  0.00    +0.392 N 
ATOM      3  N   UNL     1      32.913 -10.725 -22.211  0.00  0.00    -0.268 N 
ATOM      4  N   UNL     1      32.905  -8.364 -22.254  0.00  0.00    -0.266 N 
ATOM      5  C   UNL     1      32.320 -13.044 -22.862  0.00  0.00    -0.055 C 
ATOM      6  C   UNL     1      34.071 -11.912 -24.064  0.00  0.00    -0.055 C 
ATOM      7  C   UNL     1      34.154 -10.821 -22.992  0.00  0.00    +0.072 C 
ATOM      8  C   UNL     1      32.381 -12.006 -21.743  0.00  0.00    +0.072 C 
ATOM      9  C   UNL     1      32.303  -9.528 -21.773  0.00  0.00    +0.308 C 
ATOM     10  H   UNL     1      34.312 -13.479 -22.783  0.00  0.00    -0.079 HD
ATOM     11  H   UNL     1      33.872  -8.415 -22.432  0.00  0.00    +0.156 HD
ENDROOT
BRANCH   4  14
ATOM     12 CL   UNL     1      32.539  -6.452 -19.884  0.00  0.00    -0.081 Cl
ATOM     13  N   UNL     1      31.263  -5.657 -24.148  0.00  0.00    -0.241 NA
ATOM     14  C   UNL     1      32.282  -7.119 -22.515  0.00  0.00    +0.082 C 
ATOM     15  C   UNL     1      32.062  -6.173 -21.519  0.00  0.00    +0.074 C 
ATOM     16  C   UNL     1      31.867  -6.815 -23.801  0.00  0.00    +0.114 C 
ATOM     17  C   UNL     1      31.442  -4.968 -21.837  0.00  0.00    +0.033 C 
ATOM     18  C   UNL     1      31.066  -4.761 -23.154  0.00  0.00    +0.100 C 
ENDBRANCH   4  14
BRANCH   2  19
ATOM     19  C   UNL     1      33.597 -14.227 -24.527  0.00  0.00    -0.050 C 
BRANCH  19  24
ATOM     20  F   UNL     1      37.343 -18.861 -21.320  0.00  0.00    -0.125 F 
ATOM     21  F   UNL     1      35.472 -19.091 -20.208  0.00  0.00    -0.125 F 
ATOM     22  O   UNL     1      35.901 -17.113 -21.231  0.00  0.00    -0.395 OA
ATOM     23  O   UNL     1      35.411 -19.125 -22.475  0.00  0.00    -0.395 OA
ATOM     24  C   UNL     1      34.069 -15.559 -24.005  0.00  0.00    -0.040 C 
ATOM     25  C   UNL     1      34.785 -15.619 -22.807  0.00  0.00    +0.034 C 
ATOM     26  C   UNL     1      33.783 -16.730 -24.729  0.00  0.00    -0.003 C 
ATOM     27  C   UNL     1      35.196 -16.861 -22.369  0.00  0.00    +0.181 C 
ATOM     28  C   UNL     1      34.916 -18.009 -23.079  0.00  0.00    +0.182 C 
ATOM     29  C   UNL     1      34.211 -17.976 -24.264  0.00  0.00    +0.040 C 
ATOM     30  C   UNL     1      36.026 -18.541 -21.318  0.00  0.00    +0.589 C 
ENDBRANCH  19  24
ENDBRANCH   2  19
TORSDOF 3
ENDMDL
MODEL 7
REMARK VINA RESULT:      -9.7      5.368     10.304
REMARK  Name = 54576693
REMARK  3 active torsions:
REMARK  status: ('A' for Active; 'I' for Inactive)
REMARK    1  A    between atoms: N_2  and  C_19
REMARK    2  A    between atoms: N_4  and  C_14
REMARK    3  A    between atoms: C_19  and  C_24
REMARK                            x       y       z     vdW  Elec       q    Type
REMARK                         _______ _______ _______ _____ _____    ______ ____
ROOT
ATOM      1  O   UNL     1      35.278 -17.242 -23.413  0.00  0.00    -0.252 OA
ATOM      2  N   UNL     1      33.130 -12.873 -22.333  0.00  0.00    +0.392 N 
ATOM      3  N   UNL     1      34.646 -15.315 -22.298  0.00  0.00    -0.268 N 
ATOM      4  N   UNL     1      35.379 -17.210 -21.094  0.00  0.00    -0.266 N 
ATOM      5  C   UNL     1      33.076 -13.796 -23.474  0.00  0.00    -0.055 C 
ATOM      6  C   UNL     1      33.286 -13.627 -21.082  0.00  0.00    -0.055 C 
ATOM      7  C   UNL     1      34.559 -14.477 -21.095  0.00  0.00    +0.072 C 
ATOM      8  C   UNL     1      34.361 -14.618 -23.554  0.00  0.00    +0.072 C 
ATOM      9  C   UNL     1      35.109 -16.650 -22.345  0.00  0.00    +0.308 C 
ATOM     10  H   UNL     1      33.937 -12.259 -22.446  0.00  0.00    -0.079 HD
ATOM     11  H   UNL     1      35.671 -16.586 -20.391  0.00  0.00    +0.156 HD
ENDROOT
BRANCH   4  14
ATOM     12 CL   UNL     1      37.887 -18.540 -19.934  0.00  0.00    -0.081 Cl
ATOM     13  N   UNL     1      33.885 -20.543 -20.577  0.00  0.00    -0.241 NA
ATOM     14  C   UNL     1      35.278 -18.573 -20.725  0.00  0.00    +0.082 C 
ATOM     15  C   UNL     1      36.349 -19.282 -20.189  0.00  0.00    +0.074 C 
ATOM     16  C   UNL     1      34.078 -19.245 -20.897  0.00  0.00    +0.114 C 
ATOM     17  C   UNL     1      36.188 -20.620 -19.847  0.00  0.00    +0.033 C 
ATOM     18  C   UNL     1      34.947 -21.199 -20.058  0.00  0.00    +0.100 C 
ENDBRANCH   4  14
BRANCH   2  19
ATOM     19  C   UNL     1      31.926 -12.044 -22.286  0.00  0.00    -0.050 C 
BRANCH  19  24
ATOM     20  F   UNL     1      31.391  -5.664 -20.096  0.00  0.00    -0.125 F 
ATOM     21  F   UNL     1      33.199  -6.256 -19.015  0.00  0.00    -0.125 F 
ATOM     22  O   UNL     1      31.727  -7.861 -19.648  0.00  0.00    -0.395 OA
ATOM     23  O   UNL     1      33.077  -6.652 -21.244  0.00  0.00    -0.395 OA
ATOM     24  C   UNL     1      32.254 -10.595 -22.038  0.00  0.00    -0.040 C 
ATOM     25  C   UNL     1      31.776  -9.964 -20.888  0.00  0.00    +0.034 C 
ATOM     26  C   UNL     1      33.040  -9.892 -22.968  0.00  0.00    -0.003 C 
ATOM     27  C   UNL     1      32.102  -8.636 -20.703  0.00  0.00    +0.181 C 
ATOM     28  C   UNL     1      32.873  -7.946 -21.614  0.00  0.00    +0.182 C 
ATOM     29  C   UNL     1      33.357  -8.547 -22.757  0.00  0.00    +0.040 C 
ATOM     30  C   UNL     1      32.350  -6.619 -20.008  0.00  0.00    +0.589 C 
ENDBRANCH  19  24
ENDBRANCH   2  19
TORSDOF 3
ENDMDL
MODEL 8
REMARK VINA RESULT:      -9.6      6.521     11.942
REMARK  Name = 54576693
REMARK  3 active torsions:
REMARK  status: ('A' for Active; 'I' for Inactive)
REMARK    1  A    between atoms: N_2  and  C_19
REMARK    2  A    between atoms: N_4  and  C_14
REMARK    3  A    between atoms: C_19  and  C_24
REMARK                            x       y       z     vdW  Elec       q    Type
REMARK                         _______ _______ _______ _____ _____    ______ ____
ROOT
ATOM      1  O   UNL     1      31.946 -13.002 -20.278  0.00  0.00    -0.252 OA
ATOM      2  N   UNL     1      32.091  -8.060 -20.920  0.00  0.00    +0.392 N 
ATOM      3  N   UNL     1      32.002 -10.912 -21.267  0.00  0.00    -0.268 N 
ATOM      4  N   UNL     1      32.739 -12.816 -22.451  0.00  0.00    -0.266 N 
ATOM      5  C   UNL     1      32.118  -8.951 -19.753  0.00  0.00    -0.055 C 
ATOM      6  C   UNL     1      32.790  -8.687 -22.049  0.00  0.00    -0.055 C 
ATOM      7  C   UNL     1      32.150 -10.025 -22.429  0.00  0.00    +0.072 C 
ATOM      8  C   UNL     1      31.431 -10.275 -20.079  0.00  0.00    +0.072 C 
ATOM      9  C   UNL     1      32.221 -12.308 -21.259  0.00  0.00    +0.308 C 
ATOM     10  H   UNL     1      31.120  -7.898 -21.186  0.00  0.00    -0.079 HD
ATOM     11  H   UNL     1      32.489 -12.338 -23.274  0.00  0.00    +0.156 HD
ENDROOT
BRANCH   4  14
ATOM     12 CL   UNL     1      33.256 -13.798 -25.310  0.00  0.00    -0.081 Cl
ATOM     13  N   UNL     1      34.950 -15.626 -21.538  0.00  0.00    -0.241 NA
ATOM     14  C   UNL     1      33.584 -13.943 -22.608  0.00  0.00    +0.082 C 
ATOM     15  C   UNL     1      33.890 -14.477 -23.856  0.00  0.00    +0.074 C 
ATOM     16  C   UNL     1      34.135 -14.549 -21.491  0.00  0.00    +0.114 C 
ATOM     17  C   UNL     1      34.725 -15.586 -23.945  0.00  0.00    +0.033 C 
ATOM     18  C   UNL     1      35.225 -16.118 -22.767  0.00  0.00    +0.100 C 
ENDBRANCH   4  14
BRANCH   2  19
ATOM     19  C   UNL     1      32.697  -6.769 -20.594  0.00  0.00    -0.050 C 
BRANCH  19  24
ATOM     20  F   UNL     1      34.766  -3.052 -25.856  0.00  0.00    -0.125 F 
ATOM     21  F   UNL     1      33.371  -4.382 -26.892  0.00  0.00    -0.125 F 
ATOM     22  O   UNL     1      34.319  -5.084 -24.956  0.00  0.00    -0.395 OA
ATOM     23  O   UNL     1      32.677  -3.315 -25.016  0.00  0.00    -0.395 OA
ATOM     24  C   UNL     1      32.664  -5.823 -21.765  0.00  0.00    -0.040 C 
ATOM     25  C   UNL     1      33.581  -5.979 -22.807  0.00  0.00    +0.034 C 
ATOM     26  C   UNL     1      31.707  -4.793 -21.800  0.00  0.00    -0.003 C 
ATOM     27  C   UNL     1      33.512  -5.089 -23.859  0.00  0.00    +0.181 C 
ATOM     28  C   UNL     1      32.574  -4.079 -23.894  0.00  0.00    +0.182 C 
ATOM     29  C   UNL     1      31.657  -3.905 -22.877  0.00  0.00    +0.040 C 
ATOM     30  C   UNL     1      33.778  -3.962 -25.669  0.00  0.00    +0.589 C 
ENDBRANCH  19  24
ENDBRANCH   2  19
TORSDOF 3
ENDMDL
MODEL 9
REMARK VINA RESULT:      -9.6      6.912     12.150
REMARK  Name = 54576693
REMARK  3 active torsions:
REMARK  status: ('A' for Active; 'I' for Inactive)
REMARK    1  A    between atoms: N_2  and  C_19
REMARK    2  A    between atoms: N_4  and  C_14
REMARK    3  A    between atoms: C_19  and  C_24
REMARK                            x       y       z     vdW  Elec       q    Type
REMARK                         _______ _______ _______ _____ _____    ______ ____
ROOT
ATOM      1  O   UNL     1      38.045 -22.790 -15.137  0.00  0.00    -0.252 OA
ATOM      2  N   UNL     1      35.229 -21.286 -18.967  0.00  0.00    +0.392 N 
ATOM      3  N   UNL     1      36.215 -22.321 -16.474  0.00  0.00    -0.268 N 
ATOM      4  N   UNL     1      36.072 -23.960 -14.780  0.00  0.00    -0.266 N 
ATOM      5  C   UNL     1      36.673 -21.351 -18.711  0.00  0.00    -0.055 C 
ATOM      6  C   UNL     1      34.549 -22.414 -18.317  0.00  0.00    -0.055 C 
ATOM      7  C   UNL     1      34.787 -22.414 -16.804  0.00  0.00    +0.072 C 
ATOM      8  C   UNL     1      36.950 -21.291 -17.210  0.00  0.00    +0.072 C 
ATOM      9  C   UNL     1      36.871 -23.022 -15.437  0.00  0.00    +0.308 C 
ATOM     10  H   UNL     1      34.865 -20.416 -18.576  0.00  0.00    -0.079 HD
ATOM     11  H   UNL     1      35.109 -23.760 -14.739  0.00  0.00    +0.156 HD
ENDROOT
BRANCH   4  14
ATOM     12 CL   UNL     1      37.132 -23.783 -11.907  0.00  0.00    -0.081 Cl
ATOM     13  N   UNL     1      36.789 -27.557 -14.374  0.00  0.00    -0.241 NA
ATOM     14  C   UNL     1      36.492 -25.166 -14.168  0.00  0.00    +0.082 C 
ATOM     15  C   UNL     1      36.991 -25.209 -12.870  0.00  0.00    +0.074 C 
ATOM     16  C   UNL     1      36.413 -26.358 -14.871  0.00  0.00    +0.114 C 
ATOM     17  C   UNL     1      37.389 -26.425 -12.323  0.00  0.00    +0.033 C 
ATOM     18  C   UNL     1      37.268 -27.559 -13.110  0.00  0.00    +0.100 C 
ENDBRANCH   4  14
BRANCH   2  19
ATOM     19  C   UNL     1      34.962 -21.286 -20.405  0.00  0.00    -0.050 C 
BRANCH  19  24
ATOM     20  F   UNL     1      35.385 -16.315 -24.976  0.00  0.00    -0.125 F 
ATOM     21  F   UNL     1      33.505 -15.745 -24.011  0.00  0.00    -0.125 F 
ATOM     22  O   UNL     1      34.159 -17.916 -23.940  0.00  0.00    -0.395 OA
ATOM     23  O   UNL     1      35.312 -16.184 -22.714  0.00  0.00    -0.395 OA
ATOM     24  C   UNL     1      35.075 -19.905 -20.996  0.00  0.00    -0.040 C 
ATOM     25  C   UNL     1      34.511 -19.638 -22.245  0.00  0.00    +0.034 C 
ATOM     26  C   UNL     1      35.747 -18.897 -20.282  0.00  0.00    -0.003 C 
ATOM     27  C   UNL     1      34.640 -18.358 -22.745  0.00  0.00    +0.181 C 
ATOM     28  C   UNL     1      35.298 -17.370 -22.046  0.00  0.00    +0.182 C 
ATOM     29  C   UNL     1      35.863 -17.609 -20.810  0.00  0.00    +0.040 C 
ATOM     30  C   UNL     1      34.593 -16.548 -23.901  0.00  0.00    +0.589 C 
ENDBRANCH  19  24
ENDBRANCH   2  19
TORSDOF 3
ENDMDL
