MODEL 1
REMARK VINA RESULT:     -11.3      0.000      0.000
REMARK  Name = 46892373
REMARK  3 active torsions:
REMARK  status: ('A' for Active; 'I' for Inactive)
REMARK    1  A    between atoms: C_7  and  C_20
REMARK    2  A    between atoms: C_20  and  C_22
REMARK    3  A    between atoms: C_20  and  O_28
REMARK                            x       y       z     vdW  Elec       q    Type
REMARK                         _______ _______ _______ _____ _____    ______ ____
ROOT
ATOM      1  N   UNL     1      34.099 -23.602 -16.820  0.00  0.00    -0.326 NA
ATOM      2  N   UNL     1      34.682 -24.284 -14.645  0.00  0.00    -0.271 N 
ATOM      3  N   UNL     1      31.910 -22.705 -17.282  0.00  0.00    -0.345 NA
ATOM      4  N   UNL     1      38.104 -23.858 -15.054  0.00  0.00    -0.239 N 
ATOM      5  N   UNL     1      36.864 -23.615 -15.511  0.00  0.00    -0.166 NA
ATOM      6  C   UNL     1      32.466 -23.390 -15.051  0.00  0.00    +0.072 C 
ATOM      7  C   UNL     1      33.158 -23.085 -17.625  0.00  0.00    +0.146 C 
ATOM      8  C   UNL     1      33.722 -23.742 -15.536  0.00  0.00    +0.199 C 
ATOM      9  C   UNL     1      31.566 -22.860 -15.991  0.00  0.00    +0.129 C 
ATOM     10  C   UNL     1      32.095 -23.546 -13.705  0.00  0.00    +0.006 C 
ATOM     11  C   UNL     1      30.298 -22.495 -15.544  0.00  0.00    +0.086 C 
ATOM     12  C   UNL     1      36.086 -24.236 -14.621  0.00  0.00    +0.152 C 
ATOM     13  C   UNL     1      30.822 -23.174 -13.285  0.00  0.00    -0.004 C 
ATOM     14  C   UNL     1      29.923 -22.647 -14.206  0.00  0.00    -0.019 C 
ATOM     15  C   UNL     1      36.822 -24.871 -13.604  0.00  0.00    +0.048 C 
ATOM     16  C   UNL     1      38.134 -24.606 -13.914  0.00  0.00    +0.046 C 
ATOM     17  C   UNL     1      39.395 -24.982 -13.256  0.00  0.00    +0.049 C 
ATOM     18  H   UNL     1      34.290 -24.793 -13.899  0.00  0.00    +0.156 HD
ATOM     19  H   UNL     1      38.916 -23.526 -15.501  0.00  0.00    +0.174 HD
ENDROOT
BRANCH   7  20
ATOM     20  C   UNL     1      33.532 -22.911 -19.060  0.00  0.00    +0.243 C 
BRANCH  20  22
ATOM     21  F   UNL     1      37.307 -18.799 -19.950  0.00  0.00    -0.204 F 
ATOM     22  C   UNL     1      34.549 -21.802 -19.299  0.00  0.00    +0.021 C 
ATOM     23  C   UNL     1      34.235 -20.737 -20.144  0.00  0.00    +0.001 C 
ATOM     24  C   UNL     1      35.796 -21.852 -18.676  0.00  0.00    +0.001 C 
ATOM     25  C   UNL     1      35.166 -19.722 -20.363  0.00  0.00    +0.029 C 
ATOM     26  C   UNL     1      36.728 -20.838 -18.895  0.00  0.00    +0.029 C 
ATOM     27  C   UNL     1      36.413 -19.773 -19.740  0.00  0.00    +0.140 C 
ENDBRANCH  20  22
BRANCH  20  28
ATOM     28  O   UNL     1      34.013 -24.132 -19.649  0.00  0.00    -0.366 OA
ATOM     29  H   UNL     1      34.864 -24.372 -19.249  0.00  0.00    +0.212 HD
ENDBRANCH  20  28
ENDBRANCH   7  20
TORSDOF 3
ENDMDL
MODEL 2
REMARK VINA RESULT:     -11.3      1.711      5.359
REMARK  Name = 46892373
REMARK  3 active torsions:
REMARK  status: ('A' for Active; 'I' for Inactive)
REMARK    1  A    between atoms: C_7  and  C_20
REMARK    2  A    between atoms: C_20  and  C_22
REMARK    3  A    between atoms: C_20  and  O_28
REMARK                            x       y       z     vdW  Elec       q    Type
REMARK                         _______ _______ _______ _____ _____    ______ ____
ROOT
ATOM      1  N   UNL     1      32.064 -22.694 -17.044  0.00  0.00    -0.326 NA
ATOM      2  N   UNL     1      30.710 -22.515 -15.128  0.00  0.00    -0.271 N 
ATOM      3  N   UNL     1      34.321 -23.522 -16.882  0.00  0.00    -0.345 NA
ATOM      4  N   UNL     1      27.685 -22.737 -16.818  0.00  0.00    -0.239 N 
ATOM      5  N   UNL     1      29.018 -22.903 -16.844  0.00  0.00    -0.166 NA
ATOM      6  C   UNL     1      32.973 -23.355 -14.904  0.00  0.00    +0.072 C 
ATOM      7  C   UNL     1      33.257 -23.038 -17.553  0.00  0.00    +0.146 C 
ATOM      8  C   UNL     1      31.952 -22.865 -15.713  0.00  0.00    +0.199 C 
ATOM      9  C   UNL     1      34.176 -23.680 -15.554  0.00  0.00    +0.129 C 
ATOM     10  C   UNL     1      32.833 -23.524 -13.516  0.00  0.00    +0.006 C 
ATOM     11  C   UNL     1      35.221 -24.174 -14.777  0.00  0.00    +0.086 C 
ATOM     12  C   UNL     1      29.394 -22.526 -15.619  0.00  0.00    +0.152 C 
ATOM     13  C   UNL     1      33.894 -24.019 -12.764  0.00  0.00    -0.004 C 
ATOM     14  C   UNL     1      35.089 -24.345 -13.396  0.00  0.00    -0.019 C 
ATOM     15  C   UNL     1      28.310 -22.122 -14.818  0.00  0.00    +0.048 C 
ATOM     16  C   UNL     1      27.211 -22.271 -15.628  0.00  0.00    +0.046 C 
ATOM     17  C   UNL     1      25.779 -22.021 -15.397  0.00  0.00    +0.049 C 
ATOM     18  H   UNL     1      30.782 -22.203 -14.197  0.00  0.00    +0.156 HD
ATOM     19  H   UNL     1      27.104 -22.934 -17.589  0.00  0.00    +0.174 HD
ENDROOT
BRANCH   7  20
ATOM     20  C   UNL     1      33.426 -22.866 -19.026  0.00  0.00    +0.243 C 
BRANCH  20  22
ATOM     21  F   UNL     1      36.878 -18.619 -20.443  0.00  0.00    -0.204 F 
ATOM     22  C   UNL     1      34.356 -21.721 -19.408  0.00  0.00    +0.021 C 
ATOM     23  C   UNL     1      33.858 -20.621 -20.106  0.00  0.00    +0.001 C 
ATOM     24  C   UNL     1      35.706 -21.773 -19.060  0.00  0.00    +0.001 C 
ATOM     25  C   UNL     1      34.710 -19.573 -20.456  0.00  0.00    +0.029 C 
ATOM     26  C   UNL     1      36.559 -20.725 -19.410  0.00  0.00    +0.029 C 
ATOM     27  C   UNL     1      36.060 -19.625 -20.108  0.00  0.00    +0.140 C 
ENDBRANCH  20  22
BRANCH  20  28
ATOM     28  O   UNL     1      33.872 -24.074 -19.668  0.00  0.00    -0.366 OA
ATOM     29  H   UNL     1      34.606 -23.870 -20.269  0.00  0.00    +0.212 HD
ENDBRANCH  20  28
ENDBRANCH   7  20
TORSDOF 3
ENDMDL
MODEL 3
REMARK VINA RESULT:     -11.0      2.962      7.073
REMARK  Name = 46892373
REMARK  3 active torsions:
REMARK  status: ('A' for Active; 'I' for Inactive)
REMARK    1  A    between atoms: C_7  and  C_20
REMARK    2  A    between atoms: C_20  and  C_22
REMARK    3  A    between atoms: C_20  and  O_28
REMARK                            x       y       z     vdW  Elec       q    Type
REMARK                         _______ _______ _______ _____ _____    ______ ____
ROOT
ATOM      1  N   UNL     1      33.751 -23.335 -15.440  0.00  0.00    -0.326 NA
ATOM      2  N   UNL     1      31.970 -22.778 -16.873  0.00  0.00    -0.271 N 
ATOM      3  N   UNL     1      36.026 -22.818 -16.048  0.00  0.00    -0.345 NA
ATOM      4  N   UNL     1      29.558 -22.619 -14.381  0.00  0.00    -0.239 N 
ATOM      5  N   UNL     1      30.862 -22.654 -14.701  0.00  0.00    -0.166 NA
ATOM      6  C   UNL     1      34.237 -22.235 -17.537  0.00  0.00    +0.072 C 
ATOM      7  C   UNL     1      35.077 -23.317 -15.230  0.00  0.00    +0.146 C 
ATOM      8  C   UNL     1      33.362 -22.784 -16.605  0.00  0.00    +0.199 C 
ATOM      9  C   UNL     1      35.601 -22.276 -17.204  0.00  0.00    +0.129 C 
ATOM     10  C   UNL     1      33.806 -21.666 -18.747  0.00  0.00    +0.006 C 
ATOM     11  C   UNL     1      36.509 -21.735 -18.111  0.00  0.00    +0.086 C 
ATOM     12  C   UNL     1      30.844 -22.722 -16.035  0.00  0.00    +0.152 C 
ATOM     13  C   UNL     1      34.734 -21.133 -19.636  0.00  0.00    -0.004 C 
ATOM     14  C   UNL     1      36.087 -21.168 -19.317  0.00  0.00    -0.019 C 
ATOM     15  C   UNL     1      29.539 -22.729 -16.562  0.00  0.00    +0.048 C 
ATOM     16  C   UNL     1      28.724 -22.661 -15.459  0.00  0.00    +0.046 C 
ATOM     17  C   UNL     1      27.259 -22.634 -15.319  0.00  0.00    +0.049 C 
ATOM     18  H   UNL     1      31.749 -22.824 -17.831  0.00  0.00    +0.156 HD
ATOM     19  H   UNL     1      29.234 -22.567 -13.452  0.00  0.00    +0.174 HD
ENDROOT
BRANCH   7  20
ATOM     20  C   UNL     1      35.556 -23.917 -13.950  0.00  0.00    +0.243 C 
BRANCH  20  22
ATOM     21  F   UNL     1      39.782 -27.615 -14.604  0.00  0.00    -0.204 F 
ATOM     22  C   UNL     1      36.695 -24.914 -14.127  0.00  0.00    +0.021 C 
ATOM     23  C   UNL     1      36.458 -26.141 -14.746  0.00  0.00    +0.001 C 
ATOM     24  C   UNL     1      37.974 -24.600 -13.668  0.00  0.00    +0.001 C 
ATOM     25  C   UNL     1      37.501 -27.054 -14.908  0.00  0.00    +0.029 C 
ATOM     26  C   UNL     1      39.018 -25.513 -13.829  0.00  0.00    +0.029 C 
ATOM     27  C   UNL     1      38.780 -26.740 -14.449  0.00  0.00    +0.140 C 
ENDBRANCH  20  22
BRANCH  20  28
ATOM     28  O   UNL     1      35.945 -22.917 -12.992  0.00  0.00    -0.366 OA
ATOM     29  H   UNL     1      36.247 -22.122 -13.458  0.00  0.00    +0.212 HD
ENDBRANCH  20  28
ENDBRANCH   7  20
TORSDOF 3
ENDMDL
MODEL 4
REMARK VINA RESULT:     -10.7      3.029      7.208
REMARK  Name = 46892373
REMARK  3 active torsions:
REMARK  status: ('A' for Active; 'I' for Inactive)
REMARK    1  A    between atoms: C_7  and  C_20
REMARK    2  A    between atoms: C_20  and  C_22
REMARK    3  A    between atoms: C_20  and  O_28
REMARK                            x       y       z     vdW  Elec       q    Type
REMARK                         _______ _______ _______ _____ _____    ______ ____
ROOT
ATOM      1  N   UNL     1      32.640 -23.543 -15.174  0.00  0.00    -0.326 NA
ATOM      2  N   UNL     1      31.009 -22.794 -16.696  0.00  0.00    -0.271 N 
ATOM      3  N   UNL     1      34.986 -23.248 -15.641  0.00  0.00    -0.345 NA
ATOM      4  N   UNL     1      28.482 -22.427 -14.345  0.00  0.00    -0.239 N 
ATOM      5  N   UNL     1      29.792 -22.588 -14.590  0.00  0.00    -0.166 NA
ATOM      6  C   UNL     1      33.354 -22.470 -17.219  0.00  0.00    +0.072 C 
ATOM      7  C   UNL     1      33.946 -23.661 -14.888  0.00  0.00    +0.146 C 
ATOM      8  C   UNL     1      32.376 -22.942 -16.349  0.00  0.00    +0.199 C 
ATOM      9  C   UNL     1      34.686 -22.652 -16.809  0.00  0.00    +0.129 C 
ATOM     10  C   UNL     1      33.054 -21.846 -18.441  0.00  0.00    +0.006 C 
ATOM     11  C   UNL     1      35.695 -22.192 -17.652  0.00  0.00    +0.086 C 
ATOM     12  C   UNL     1      29.847 -22.636 -15.924  0.00  0.00    +0.152 C 
ATOM     13  C   UNL     1      34.081 -21.396 -19.265  0.00  0.00    -0.004 C 
ATOM     14  C   UNL     1      35.402 -21.569 -18.869  0.00  0.00    -0.019 C 
ATOM     15  C   UNL     1      28.581 -22.508 -16.525  0.00  0.00    +0.048 C 
ATOM     16  C   UNL     1      27.713 -22.373 -15.469  0.00  0.00    +0.046 C 
ATOM     17  C   UNL     1      26.252 -22.202 -15.413  0.00  0.00    +0.049 C 
ATOM     18  H   UNL     1      30.842 -22.805 -17.666  0.00  0.00    +0.156 HD
ATOM     19  H   UNL     1      28.110 -22.356 -13.435  0.00  0.00    +0.174 HD
ENDROOT
BRANCH   7  20
ATOM     20  C   UNL     1      34.287 -24.322 -13.594  0.00  0.00    +0.243 C 
BRANCH  20  22
ATOM     21  F   UNL     1      39.826 -25.186 -12.868  0.00  0.00    -0.204 F 
ATOM     22  C   UNL     1      35.780 -24.555 -13.398  0.00  0.00    +0.021 C 
ATOM     23  C   UNL     1      36.507 -23.732 -12.538  0.00  0.00    +0.001 C 
ATOM     24  C   UNL     1      36.420 -25.590 -14.080  0.00  0.00    +0.001 C 
ATOM     25  C   UNL     1      37.874 -23.946 -12.358  0.00  0.00    +0.029 C 
ATOM     26  C   UNL     1      37.787 -25.803 -13.901  0.00  0.00    +0.029 C 
ATOM     27  C   UNL     1      38.514 -24.981 -13.040  0.00  0.00    +0.140 C 
ENDBRANCH  20  22
BRANCH  20  28
ATOM     28  O   UNL     1      33.765 -23.603 -12.461  0.00  0.00    -0.366 OA
ATOM     29  H   UNL     1      32.867 -23.912 -12.267  0.00  0.00    +0.212 HD
ENDBRANCH  20  28
ENDBRANCH   7  20
TORSDOF 3
ENDMDL
MODEL 5
REMARK VINA RESULT:     -10.7      2.925      5.832
REMARK  Name = 46892373
REMARK  3 active torsions:
REMARK  status: ('A' for Active; 'I' for Inactive)
REMARK    1  A    between atoms: C_7  and  C_20
REMARK    2  A    between atoms: C_20  and  C_22
REMARK    3  A    between atoms: C_20  and  O_28
REMARK                            x       y       z     vdW  Elec       q    Type
REMARK                         _______ _______ _______ _____ _____    ______ ____
ROOT
ATOM      1  N   UNL     1      33.434 -23.049 -16.321  0.00  0.00    -0.326 NA
ATOM      2  N   UNL     1      35.747 -23.056 -15.893  0.00  0.00    -0.271 N 
ATOM      3  N   UNL     1      32.548 -21.950 -18.275  0.00  0.00    -0.345 NA
ATOM      4  N   UNL     1      35.736 -25.950 -13.975  0.00  0.00    -0.239 N 
ATOM      5  N   UNL     1      35.085 -25.157 -14.842  0.00  0.00    -0.166 NA
ATOM      6  C   UNL     1      34.913 -21.934 -17.874  0.00  0.00    +0.072 C 
ATOM      7  C   UNL     1      32.439 -22.661 -17.135  0.00  0.00    +0.146 C 
ATOM      8  C   UNL     1      34.662 -22.670 -16.719  0.00  0.00    +0.199 C 
ATOM      9  C   UNL     1      33.790 -21.587 -18.643  0.00  0.00    +0.129 C 
ATOM     10  C   UNL     1      36.206 -21.549 -18.268  0.00  0.00    +0.006 C 
ATOM     11  C   UNL     1      34.001 -20.851 -19.807  0.00  0.00    +0.086 C 
ATOM     12  C   UNL     1      35.950 -24.161 -15.050  0.00  0.00    +0.152 C 
ATOM     13  C   UNL     1      36.388 -20.814 -19.435  0.00  0.00    -0.004 C 
ATOM     14  C   UNL     1      35.284 -20.465 -20.205  0.00  0.00    -0.019 C 
ATOM     15  C   UNL     1      37.143 -24.316 -14.321  0.00  0.00    +0.048 C 
ATOM     16  C   UNL     1      36.973 -25.491 -13.630  0.00  0.00    +0.046 C 
ATOM     17  C   UNL     1      37.845 -26.214 -12.691  0.00  0.00    +0.049 C 
ATOM     18  H   UNL     1      36.505 -22.428 -15.913  0.00  0.00    +0.156 HD
ATOM     19  H   UNL     1      35.354 -26.786 -13.619  0.00  0.00    +0.174 HD
ENDROOT
BRANCH   7  20
ATOM     20  C   UNL     1      31.058 -23.060 -16.733  0.00  0.00    +0.243 C 
BRANCH  20  22
ATOM     21  F   UNL     1      30.699 -25.021 -11.443  0.00  0.00    -0.204 F 
ATOM     22  C   UNL     1      30.961 -23.588 -15.307  0.00  0.00    +0.021 C 
ATOM     23  C   UNL     1      31.459 -22.831 -14.247  0.00  0.00    +0.001 C 
ATOM     24  C   UNL     1      30.375 -24.830 -15.061  0.00  0.00    +0.001 C 
ATOM     25  C   UNL     1      31.370 -23.314 -12.942  0.00  0.00    +0.029 C 
ATOM     26  C   UNL     1      30.287 -25.315 -13.756  0.00  0.00    +0.029 C 
ATOM     27  C   UNL     1      30.784 -24.556 -12.696  0.00  0.00    +0.140 C 
ENDBRANCH  20  22
BRANCH  20  28
ATOM     28  O   UNL     1      30.110 -21.992 -16.910  0.00  0.00    -0.366 OA
ATOM     29  H   UNL     1      29.776 -21.708 -16.044  0.00  0.00    +0.212 HD
ENDBRANCH  20  28
ENDBRANCH   7  20
TORSDOF 3
ENDMDL
MODEL 6
REMARK VINA RESULT:     -10.6      3.022      6.687
REMARK  Name = 46892373
REMARK  3 active torsions:
REMARK  status: ('A' for Active; 'I' for Inactive)
REMARK    1  A    between atoms: C_7  and  C_20
REMARK    2  A    between atoms: C_20  and  C_22
REMARK    3  A    between atoms: C_20  and  O_28
REMARK                            x       y       z     vdW  Elec       q    Type
REMARK                         _______ _______ _______ _____ _____    ______ ____
ROOT
ATOM      1  N   UNL     1      35.478 -22.899 -16.028  0.00  0.00    -0.326 NA
ATOM      2  N   UNL     1      33.251 -23.111 -16.756  0.00  0.00    -0.271 N 
ATOM      3  N   UNL     1      37.085 -21.660 -17.328  0.00  0.00    -0.345 NA
ATOM      4  N   UNL     1      31.902 -23.633 -13.600  0.00  0.00    -0.239 N 
ATOM      5  N   UNL     1      32.950 -23.230 -14.336  0.00  0.00    -0.166 NA
ATOM      6  C   UNL     1      34.823 -21.853 -18.106  0.00  0.00    +0.072 C 
ATOM      7  C   UNL     1      36.701 -22.401 -16.269  0.00  0.00    +0.146 C 
ATOM      8  C   UNL     1      34.559 -22.607 -16.966  0.00  0.00    +0.199 C 
ATOM      9  C   UNL     1      36.141 -21.387 -18.247  0.00  0.00    +0.129 C 
ATOM     10  C   UNL     1      33.846 -21.561 -19.072  0.00  0.00    +0.006 C 
ATOM     11  C   UNL     1      36.445 -20.627 -19.375  0.00  0.00    +0.086 C 
ATOM     12  C   UNL     1      32.521 -23.395 -15.590  0.00  0.00    +0.152 C 
ATOM     13  C   UNL     1      34.177 -20.801 -20.189  0.00  0.00    -0.004 C 
ATOM     14  C   UNL     1      35.477 -20.333 -20.340  0.00  0.00    -0.019 C 
ATOM     15  C   UNL     1      31.209 -23.900 -15.654  0.00  0.00    +0.048 C 
ATOM     16  C   UNL     1      30.834 -24.045 -14.340  0.00  0.00    +0.046 C 
ATOM     17  C   UNL     1      29.588 -24.526 -13.721  0.00  0.00    +0.049 C 
ATOM     18  H   UNL     1      32.759 -23.301 -17.587  0.00  0.00    +0.156 HD
ATOM     19  H   UNL     1      31.905 -23.632 -12.615  0.00  0.00    +0.174 HD
ENDROOT
BRANCH   7  20
ATOM     20  C   UNL     1      37.754 -22.699 -15.254  0.00  0.00    +0.243 C 
BRANCH  20  22
ATOM     21  F   UNL     1      35.836 -25.504 -10.736  0.00  0.00    -0.204 F 
ATOM     22  C   UNL     1      37.236 -23.455 -14.036  0.00  0.00    +0.021 C 
ATOM     23  C   UNL     1      36.715 -22.753 -12.949  0.00  0.00    +0.001 C 
ATOM     24  C   UNL     1      37.284 -24.849 -14.007  0.00  0.00    +0.001 C 
ATOM     25  C   UNL     1      36.241 -23.445 -11.834  0.00  0.00    +0.029 C 
ATOM     26  C   UNL     1      36.811 -25.542 -12.892  0.00  0.00    +0.029 C 
ATOM     27  C   UNL     1      36.290 -24.839 -11.806  0.00  0.00    +0.140 C 
ENDBRANCH  20  22
BRANCH  20  28
ATOM     28  O   UNL     1      38.867 -23.415 -15.819  0.00  0.00    -0.366 OA
ATOM     29  H   UNL     1      39.687 -23.134 -15.383  0.00  0.00    +0.212 HD
ENDBRANCH  20  28
ENDBRANCH   7  20
TORSDOF 3
ENDMDL
MODEL 7
REMARK VINA RESULT:     -10.4      2.620      5.387
REMARK  Name = 46892373
REMARK  3 active torsions:
REMARK  status: ('A' for Active; 'I' for Inactive)
REMARK    1  A    between atoms: C_7  and  C_20
REMARK    2  A    between atoms: C_20  and  C_22
REMARK    3  A    between atoms: C_20  and  O_28
REMARK                            x       y       z     vdW  Elec       q    Type
REMARK                         _______ _______ _______ _____ _____    ______ ____
ROOT
ATOM      1  N   UNL     1      33.256 -23.324 -14.958  0.00  0.00    -0.326 NA
ATOM      2  N   UNL     1      32.229 -22.395 -16.860  0.00  0.00    -0.271 N 
ATOM      3  N   UNL     1      32.013 -24.741 -13.457  0.00  0.00    -0.345 NA
ATOM      4  N   UNL     1      35.157 -22.019 -18.688  0.00  0.00    -0.239 N 
ATOM      5  N   UNL     1      34.537 -22.576 -17.634  0.00  0.00    -0.166 NA
ATOM      6  C   UNL     1      30.928 -23.813 -15.385  0.00  0.00    +0.072 C 
ATOM      7  C   UNL     1      33.123 -24.097 -13.869  0.00  0.00    +0.146 C 
ATOM      8  C   UNL     1      32.139 -23.202 -15.698  0.00  0.00    +0.199 C 
ATOM      9  C   UNL     1      30.914 -24.596 -14.220  0.00  0.00    +0.129 C 
ATOM     10  C   UNL     1      29.774 -23.669 -16.173  0.00  0.00    +0.006 C 
ATOM     11  C   UNL     1      29.720 -25.225 -13.873  0.00  0.00    +0.086 C 
ATOM     12  C   UNL     1      33.291 -22.106 -17.733  0.00  0.00    +0.152 C 
ATOM     13  C   UNL     1      28.594 -24.308 -15.804  0.00  0.00    -0.004 C 
ATOM     14  C   UNL     1      28.568 -25.087 -14.653  0.00  0.00    -0.019 C 
ATOM     15  C   UNL     1      33.116 -21.255 -18.840  0.00  0.00    +0.048 C 
ATOM     16  C   UNL     1      34.351 -21.218 -19.442  0.00  0.00    +0.046 C 
ATOM     17  C   UNL     1      34.841 -20.514 -20.638  0.00  0.00    +0.049 C 
ATOM     18  H   UNL     1      31.385 -21.950 -17.102  0.00  0.00    +0.156 HD
ATOM     19  H   UNL     1      36.107 -22.174 -18.896  0.00  0.00    +0.174 HD
ENDROOT
BRANCH   7  20
ATOM     20  C   UNL     1      34.338 -24.262 -13.018  0.00  0.00    +0.243 C 
BRANCH  20  22
ATOM     21  F   UNL     1      39.186 -23.226 -15.736  0.00  0.00    -0.204 F 
ATOM     22  C   UNL     1      35.645 -23.983 -13.751  0.00  0.00    +0.021 C 
ATOM     23  C   UNL     1      36.586 -25.000 -13.911  0.00  0.00    +0.001 C 
ATOM     24  C   UNL     1      35.901 -22.710 -14.261  0.00  0.00    +0.001 C 
ATOM     25  C   UNL     1      37.782 -24.745 -14.583  0.00  0.00    +0.029 C 
ATOM     26  C   UNL     1      37.097 -22.454 -14.931  0.00  0.00    +0.029 C 
ATOM     27  C   UNL     1      38.038 -23.472 -15.092  0.00  0.00    +0.140 C 
ENDBRANCH  20  22
BRANCH  20  28
ATOM     28  O   UNL     1      34.281 -23.457 -11.826  0.00  0.00    -0.366 OA
ATOM     29  H   UNL     1      34.050 -24.016 -11.068  0.00  0.00    +0.212 HD
ENDBRANCH  20  28
ENDBRANCH   7  20
TORSDOF 3
ENDMDL
MODEL 8
REMARK VINA RESULT:     -10.4      2.995      5.682
REMARK  Name = 46892373
REMARK  3 active torsions:
REMARK  status: ('A' for Active; 'I' for Inactive)
REMARK    1  A    between atoms: C_7  and  C_20
REMARK    2  A    between atoms: C_20  and  C_22
REMARK    3  A    between atoms: C_20  and  O_28
REMARK                            x       y       z     vdW  Elec       q    Type
REMARK                         _______ _______ _______ _____ _____    ______ ____
ROOT
ATOM      1  N   UNL     1      34.075 -23.509 -15.042  0.00  0.00    -0.326 NA
ATOM      2  N   UNL     1      36.328 -23.137 -15.611  0.00  0.00    -0.271 N 
ATOM      3  N   UNL     1      32.303 -22.823 -16.525  0.00  0.00    -0.345 NA
ATOM      4  N   UNL     1      37.606 -25.712 -13.665  0.00  0.00    -0.239 N 
ATOM      5  N   UNL     1      36.532 -25.144 -14.237  0.00  0.00    -0.166 NA
ATOM      6  C   UNL     1      34.587 -22.425 -17.142  0.00  0.00    +0.072 C 
ATOM      7  C   UNL     1      32.786 -23.378 -15.395  0.00  0.00    +0.146 C 
ATOM      8  C   UNL     1      34.953 -23.022 -15.939  0.00  0.00    +0.199 C 
ATOM      9  C   UNL     1      33.208 -22.346 -17.398  0.00  0.00    +0.129 C 
ATOM     10  C   UNL     1      35.523 -21.923 -18.061  0.00  0.00    +0.006 C 
ATOM     11  C   UNL     1      32.801 -21.755 -18.593  0.00  0.00    +0.086 C 
ATOM     12  C   UNL     1      37.046 -24.076 -14.854  0.00  0.00    +0.152 C 
ATOM     13  C   UNL     1      35.090 -21.338 -19.247  0.00  0.00    -0.004 C 
ATOM     14  C   UNL     1      33.727 -21.254 -19.512  0.00  0.00    -0.019 C 
ATOM     15  C   UNL     1      38.437 -23.963 -14.676  0.00  0.00    +0.048 C 
ATOM     16  C   UNL     1      38.772 -25.043 -13.897  0.00  0.00    +0.046 C 
ATOM     17  C   UNL     1      40.061 -25.503 -13.355  0.00  0.00    +0.049 C 
ATOM     18  H   UNL     1      36.887 -22.419 -15.986  0.00  0.00    +0.156 HD
ATOM     19  H   UNL     1      37.557 -26.535 -13.127  0.00  0.00    +0.174 HD
ENDROOT
BRANCH   7  20
ATOM     20  C   UNL     1      31.776 -23.905 -14.431  0.00  0.00    +0.243 C 
BRANCH  20  22
ATOM     21  F   UNL     1      26.439 -22.650 -15.810  0.00  0.00    -0.204 F 
ATOM     22  C   UNL     1      30.337 -23.566 -14.803  0.00  0.00    +0.021 C 
ATOM     23  C   UNL     1      29.758 -22.383 -14.343  0.00  0.00    +0.001 C 
ATOM     24  C   UNL     1      29.599 -24.439 -15.602  0.00  0.00    +0.001 C 
ATOM     25  C   UNL     1      28.441 -22.073 -14.684  0.00  0.00    +0.029 C 
ATOM     26  C   UNL     1      28.281 -24.130 -15.942  0.00  0.00    +0.029 C 
ATOM     27  C   UNL     1      27.703 -22.946 -15.483  0.00  0.00    +0.140 C 
ENDBRANCH  20  22
BRANCH  20  28
ATOM     28  O   UNL     1      31.894 -25.326 -14.240  0.00  0.00    -0.366 OA
ATOM     29  H   UNL     1      31.168 -25.776 -14.698  0.00  0.00    +0.212 HD
ENDBRANCH  20  28
ENDBRANCH   7  20
TORSDOF 3
ENDMDL
MODEL 9
REMARK VINA RESULT:     -10.3      3.148      6.243
REMARK  Name = 46892373
REMARK  3 active torsions:
REMARK  status: ('A' for Active; 'I' for Inactive)
REMARK    1  A    between atoms: C_7  and  C_20
REMARK    2  A    between atoms: C_20  and  C_22
REMARK    3  A    between atoms: C_20  and  O_28
REMARK                            x       y       z     vdW  Elec       q    Type
REMARK                         _______ _______ _______ _____ _____    ______ ____
ROOT
ATOM      1  N   UNL     1      33.810 -23.085 -15.004  0.00  0.00    -0.326 NA
ATOM      2  N   UNL     1      32.560 -22.343 -16.855  0.00  0.00    -0.271 N 
ATOM      3  N   UNL     1      32.818 -24.531 -13.350  0.00  0.00    -0.345 NA
ATOM      4  N   UNL     1      35.295 -21.801 -18.925  0.00  0.00    -0.239 N 
ATOM      5  N   UNL     1      34.810 -22.359 -17.803  0.00  0.00    -0.166 NA
ATOM      6  C   UNL     1      31.510 -23.796 -15.223  0.00  0.00    +0.072 C 
ATOM      7  C   UNL     1      33.831 -23.813 -13.876  0.00  0.00    +0.146 C 
ATOM      8  C   UNL     1      32.633 -23.097 -15.656  0.00  0.00    +0.199 C 
ATOM      9  C   UNL     1      31.656 -24.520 -14.028  0.00  0.00    +0.129 C 
ATOM     10  C   UNL     1      30.291 -23.793 -15.921  0.00  0.00    +0.006 C 
ATOM     11  C   UNL     1      30.554 -25.234 -13.561  0.00  0.00    +0.086 C 
ATOM     12  C   UNL     1      33.522 -22.005 -17.821  0.00  0.00    +0.152 C 
ATOM     13  C   UNL     1      29.206 -24.513 -15.433  0.00  0.00    -0.004 C 
ATOM     14  C   UNL     1      29.338 -25.235 -14.251  0.00  0.00    -0.019 C 
ATOM     15  C   UNL     1      33.188 -21.227 -18.945  0.00  0.00    +0.048 C 
ATOM     16  C   UNL     1      34.364 -21.112 -19.644  0.00  0.00    +0.046 C 
ATOM     17  C   UNL     1      34.696 -20.427 -20.904  0.00  0.00    +0.049 C 
ATOM     18  H   UNL     1      31.663 -21.987 -17.046  0.00  0.00    +0.156 HD
ATOM     19  H   UNL     1      36.237 -21.883 -19.201  0.00  0.00    +0.174 HD
ENDROOT
BRANCH   7  20
ATOM     20  C   UNL     1      35.117 -23.829 -13.119  0.00  0.00    +0.243 C 
BRANCH  20  22
ATOM     21  F   UNL     1      38.268 -28.424 -14.076  0.00  0.00    -0.204 F 
ATOM     22  C   UNL     1      35.966 -25.068 -13.377  0.00  0.00    +0.021 C 
ATOM     23  C   UNL     1      36.741 -25.609 -12.350  0.00  0.00    +0.001 C 
ATOM     24  C   UNL     1      35.970 -25.661 -14.639  0.00  0.00    +0.001 C 
ATOM     25  C   UNL     1      37.518 -26.743 -12.586  0.00  0.00    +0.029 C 
ATOM     26  C   UNL     1      36.748 -26.794 -14.876  0.00  0.00    +0.029 C 
ATOM     27  C   UNL     1      37.522 -27.335 -13.849  0.00  0.00    +0.140 C 
ENDBRANCH  20  22
BRANCH  20  28
ATOM     28  O   UNL     1      35.908 -22.652 -13.363  0.00  0.00    -0.366 OA
ATOM     29  H   UNL     1      36.008 -22.152 -12.538  0.00  0.00    +0.212 HD
ENDBRANCH  20  28
ENDBRANCH   7  20
TORSDOF 3
ENDMDL
