MODEL 1
REMARK VINA RESULT:     -10.7      0.000      0.000
REMARK  Name = 24812719
REMARK  3 active torsions:
REMARK  status: ('A' for Active; 'I' for Inactive)
REMARK    1  A    between atoms: N_2  and  C_22
REMARK    2  A    between atoms: C_3  and  C_12
REMARK    3  A    between atoms: C_25  and  C_31
REMARK                            x       y       z     vdW  Elec       q    Type
REMARK                         _______ _______ _______ _____ _____    ______ ____
ROOT
ATOM      1  O   UNL     1      36.020 -24.830 -15.411  0.00  0.00    -0.269 OA
ATOM      2  N   UNL     1      34.514 -24.037 -13.784  0.00  0.00    -0.233 N 
ATOM      3  C   UNL     1      36.683 -25.113 -13.169  0.00  0.00    +0.046 C 
ATOM      4  C   UNL     1      36.438 -24.850 -11.869  0.00  0.00    -0.016 C 
ATOM      5  C   UNL     1      35.702 -24.663 -14.233  0.00  0.00    +0.256 C 
ATOM      6  C   UNL     1      34.336 -23.789 -12.428  0.00  0.00    +0.072 C 
ATOM      7  C   UNL     1      35.227 -24.154 -11.502  0.00  0.00    +0.012 C 
ATOM      8  C   UNL     1      37.316 -25.225 -10.705  0.00  0.00    +0.031 C 
ENDROOT
BRANCH   3  12
ATOM      9  N   UNL     1      41.368 -27.794 -14.816  0.00  0.00    -0.342 NA
ATOM     10  N   UNL     1      40.218 -29.910 -14.753  0.00  0.00    -0.170 NA
ATOM     11  N   UNL     1      42.474 -29.787 -15.373  0.00  0.00    -0.293 N 
ATOM     12  C   UNL     1      37.905 -25.820 -13.598  0.00  0.00    -0.017 C 
ATOM     13  C   UNL     1      37.892 -27.201 -13.765  0.00  0.00    +0.056 C 
ATOM     14  C   UNL     1      39.076 -25.110 -13.840  0.00  0.00    -0.022 C 
ATOM     15  C   UNL     1      39.058 -27.869 -14.176  0.00  0.00    +0.029 C 
ATOM     16  C   UNL     1      40.247 -27.164 -14.423  0.00  0.00    +0.124 C 
ATOM     17  C   UNL     1      40.231 -25.783 -14.248  0.00  0.00    +0.085 C 
ATOM     18  C   UNL     1      39.113 -29.249 -14.361  0.00  0.00    +0.110 C 
ATOM     19  C   UNL     1      41.292 -29.132 -14.959  0.00  0.00    +0.141 C 
ATOM     20  H   UNL     1      43.292 -29.266 -15.539  0.00  0.00    +0.155 HD
ATOM     21  H   UNL     1      42.478 -30.764 -15.496  0.00  0.00    +0.155 HD
ENDBRANCH   3  12
BRANCH   2  22
ATOM     22  C   UNL     1      33.501 -23.635 -14.742  0.00  0.00    +0.058 C 
ATOM     23  C   UNL     1      32.153 -23.673 -14.390  0.00  0.00    +0.019 C 
ATOM     24  C   UNL     1      33.878 -23.211 -16.017  0.00  0.00    +0.015 C 
ATOM     25  C   UNL     1      31.180 -23.287 -15.311  0.00  0.00    +0.073 C 
ATOM     26  C   UNL     1      32.904 -22.825 -16.938  0.00  0.00    +0.001 C 
ATOM     27  C   UNL     1      31.555 -22.864 -16.586  0.00  0.00    +0.004 C 
BRANCH  25  31
ATOM     28  F   UNL     1      28.898 -23.492 -16.001  0.00  0.00    -0.166 F 
ATOM     29  F   UNL     1      29.425 -24.347 -14.078  0.00  0.00    -0.166 F 
ATOM     30  F   UNL     1      29.323 -22.188 -14.313  0.00  0.00    -0.166 F 
ATOM     31  C   UNL     1      29.737 -23.330 -14.935  0.00  0.00    +0.419 C 
ENDBRANCH  25  31
ENDBRANCH   2  22
TORSDOF 3
ENDMDL
MODEL 2
REMARK VINA RESULT:     -10.7      1.902      2.437
REMARK  Name = 24812719
REMARK  3 active torsions:
REMARK  status: ('A' for Active; 'I' for Inactive)
REMARK    1  A    between atoms: N_2  and  C_22
REMARK    2  A    between atoms: C_3  and  C_12
REMARK    3  A    between atoms: C_25  and  C_31
REMARK                            x       y       z     vdW  Elec       q    Type
REMARK                         _______ _______ _______ _____ _____    ______ ____
ROOT
ATOM      1  O   UNL     1      36.050 -24.905 -15.451  0.00  0.00    -0.269 OA
ATOM      2  N   UNL     1      34.559 -24.147 -13.794  0.00  0.00    -0.233 N 
ATOM      3  C   UNL     1      36.702 -25.298 -13.222  0.00  0.00    +0.046 C 
ATOM      4  C   UNL     1      36.459 -25.085 -11.912  0.00  0.00    -0.016 C 
ATOM      5  C   UNL     1      35.734 -24.781 -14.267  0.00  0.00    +0.256 C 
ATOM      6  C   UNL     1      34.383 -23.953 -12.428  0.00  0.00    +0.072 C 
ATOM      7  C   UNL     1      35.264 -24.378 -11.518  0.00  0.00    +0.012 C 
ATOM      8  C   UNL     1      37.325 -25.530 -10.765  0.00  0.00    +0.031 C 
ENDROOT
BRANCH   3  12
ATOM      9  N   UNL     1      41.328 -28.018 -14.966  0.00  0.00    -0.342 NA
ATOM     10  N   UNL     1      39.990 -29.863 -15.746  0.00  0.00    -0.170 NA
ATOM     11  N   UNL     1      42.322 -29.891 -15.971  0.00  0.00    -0.293 N 
ATOM     12  C   UNL     1      37.907 -26.015 -13.679  0.00  0.00    -0.017 C 
ATOM     13  C   UNL     1      37.793 -27.265 -14.279  0.00  0.00    +0.056 C 
ATOM     14  C   UNL     1      39.164 -25.445 -13.514  0.00  0.00    -0.022 C 
ATOM     15  C   UNL     1      38.945 -27.943 -14.715  0.00  0.00    +0.029 C 
ATOM     16  C   UNL     1      40.220 -27.378 -14.554  0.00  0.00    +0.124 C 
ATOM     17  C   UNL     1      40.305 -26.126 -13.950  0.00  0.00    +0.085 C 
ATOM     18  C   UNL     1      38.900 -29.195 -15.322  0.00  0.00    +0.110 C 
ATOM     19  C   UNL     1      41.152 -29.225 -15.539  0.00  0.00    +0.141 C 
ATOM     20  H   UNL     1      43.202 -29.470 -15.845  0.00  0.00    +0.155 HD
ATOM     21  H   UNL     1      42.254 -30.776 -16.398  0.00  0.00    +0.155 HD
ENDBRANCH   3  12
BRANCH   2  22
ATOM     22  C   UNL     1      33.559 -23.681 -14.735  0.00  0.00    +0.058 C 
ATOM     23  C   UNL     1      33.949 -23.166 -15.970  0.00  0.00    +0.019 C 
ATOM     24  C   UNL     1      32.206 -23.745 -14.403  0.00  0.00    +0.015 C 
ATOM     25  C   UNL     1      32.988 -22.716 -16.874  0.00  0.00    +0.073 C 
ATOM     26  C   UNL     1      31.243 -23.295 -15.307  0.00  0.00    +0.001 C 
ATOM     27  C   UNL     1      31.635 -22.780 -16.543  0.00  0.00    +0.004 C 
BRANCH  25  31
ATOM     28  F   UNL     1      32.576 -21.188 -18.669  0.00  0.00    -0.166 F 
ATOM     29  F   UNL     1      34.649 -21.598 -18.183  0.00  0.00    -0.166 F 
ATOM     30  F   UNL     1      33.447 -23.116 -19.173  0.00  0.00    -0.166 F 
ATOM     31  C   UNL     1      33.406 -22.164 -18.196  0.00  0.00    +0.419 C 
ENDBRANCH  25  31
ENDBRANCH   2  22
TORSDOF 3
ENDMDL
MODEL 3
REMARK VINA RESULT:     -10.6     10.931     15.273
REMARK  Name = 24812719
REMARK  3 active torsions:
REMARK  status: ('A' for Active; 'I' for Inactive)
REMARK    1  A    between atoms: N_2  and  C_22
REMARK    2  A    between atoms: C_3  and  C_12
REMARK    3  A    between atoms: C_25  and  C_31
REMARK                            x       y       z     vdW  Elec       q    Type
REMARK                         _______ _______ _______ _____ _____    ______ ____
ROOT
ATOM      1  O   UNL     1      34.582 -15.344 -20.809  0.00  0.00    -0.269 OA
ATOM      2  N   UNL     1      34.954 -16.918 -22.522  0.00  0.00    -0.233 N 
ATOM      3  C   UNL     1      33.944 -14.678 -22.977  0.00  0.00    +0.046 C 
ATOM      4  C   UNL     1      33.947 -14.953 -24.298  0.00  0.00    -0.016 C 
ATOM      5  C   UNL     1      34.508 -15.682 -21.992  0.00  0.00    +0.256 C 
ATOM      6  C   UNL     1      34.938 -17.124 -23.897  0.00  0.00    +0.072 C 
ATOM      7  C   UNL     1      34.476 -16.215 -24.759  0.00  0.00    +0.012 C 
ATOM      8  C   UNL     1      33.431 -14.058 -25.392  0.00  0.00    +0.031 C 
ENDROOT
BRANCH   3  12
ATOM      9  N   UNL     1      31.911  -9.819 -20.951  0.00  0.00    -0.342 NA
ATOM     10  N   UNL     1      33.058  -8.584 -22.673  0.00  0.00    -0.170 NA
ATOM     11  N   UNL     1      31.747  -7.482 -21.074  0.00  0.00    -0.293 N 
ATOM     12  C   UNL     1      33.417 -13.405 -22.452  0.00  0.00    -0.017 C 
ATOM     13  C   UNL     1      33.746 -12.202 -23.070  0.00  0.00    +0.056 C 
ATOM     14  C   UNL     1      32.586 -13.398 -21.337  0.00  0.00    -0.022 C 
ATOM     15  C   UNL     1      33.239 -10.992 -22.567  0.00  0.00    +0.029 C 
ATOM     16  C   UNL     1      32.400 -10.972 -21.441  0.00  0.00    +0.124 C 
ATOM     17  C   UNL     1      32.087 -12.190 -20.843  0.00  0.00    +0.085 C 
ATOM     18  C   UNL     1      33.530  -9.756 -23.138  0.00  0.00    +0.110 C 
ATOM     19  C   UNL     1      32.266  -8.689 -21.594  0.00  0.00    +0.141 C 
ATOM     20  H   UNL     1      31.160  -7.499 -20.284  0.00  0.00    +0.155 HD
ATOM     21  H   UNL     1      31.972  -6.625 -21.502  0.00  0.00    +0.155 HD
ENDBRANCH   3  12
BRANCH   2  22
ATOM     22  C   UNL     1      35.451 -17.950 -21.631  0.00  0.00    +0.058 C 
ATOM     23  C   UNL     1      34.588 -18.936 -21.157  0.00  0.00    +0.019 C 
ATOM     24  C   UNL     1      36.792 -17.953 -21.248  0.00  0.00    +0.015 C 
ATOM     25  C   UNL     1      35.065 -19.928 -20.301  0.00  0.00    +0.073 C 
ATOM     26  C   UNL     1      37.269 -18.945 -20.391  0.00  0.00    +0.001 C 
ATOM     27  C   UNL     1      36.405 -19.932 -19.917  0.00  0.00    +0.004 C 
BRANCH  25  31
ATOM     28  F   UNL     1      34.607 -22.254 -19.976  0.00  0.00    -0.166 F 
ATOM     29  F   UNL     1      33.887 -20.887 -18.453  0.00  0.00    -0.166 F 
ATOM     30  F   UNL     1      32.919 -20.949 -20.399  0.00  0.00    -0.166 F 
ATOM     31  C   UNL     1      34.141 -20.983 -19.792  0.00  0.00    +0.419 C 
ENDBRANCH  25  31
ENDBRANCH   2  22
TORSDOF 3
ENDMDL
MODEL 4
REMARK VINA RESULT:     -10.5     15.047     18.918
REMARK  Name = 24812719
REMARK  3 active torsions:
REMARK  status: ('A' for Active; 'I' for Inactive)
REMARK    1  A    between atoms: N_2  and  C_22
REMARK    2  A    between atoms: C_3  and  C_12
REMARK    3  A    between atoms: C_25  and  C_31
REMARK                            x       y       z     vdW  Elec       q    Type
REMARK                         _______ _______ _______ _____ _____    ______ ____
ROOT
ATOM      1  O   UNL     1      33.814 -11.069 -24.087  0.00  0.00    -0.269 OA
ATOM      2  N   UNL     1      33.023 -12.527 -22.416  0.00  0.00    -0.233 N 
ATOM      3  C   UNL     1      32.780 -10.047 -22.235  0.00  0.00    +0.046 C 
ATOM      4  C   UNL     1      32.078 -10.205 -21.093  0.00  0.00    -0.016 C 
ATOM      5  C   UNL     1      33.272 -11.260 -22.998  0.00  0.00    +0.256 C 
ATOM      6  C   UNL     1      32.282 -12.612 -21.242  0.00  0.00    +0.072 C 
ATOM      7  C   UNL     1      31.818 -11.537 -20.600  0.00  0.00    +0.012 C 
ATOM      8  C   UNL     1      31.521  -9.103 -20.233  0.00  0.00    +0.031 C 
ENDROOT
BRANCH   3  12
ATOM      9  N   UNL     1      33.929  -4.933 -24.326  0.00  0.00    -0.342 NA
ATOM     10  N   UNL     1      31.597  -4.568 -24.805  0.00  0.00    -0.170 NA
ATOM     11  N   UNL     1      33.195  -2.930 -25.305  0.00  0.00    -0.293 N 
ATOM     12  C   UNL     1      33.073  -8.709 -22.783  0.00  0.00    -0.017 C 
ATOM     13  C   UNL     1      32.044  -7.912 -23.274  0.00  0.00    +0.056 C 
ATOM     14  C   UNL     1      34.381  -8.237 -22.812  0.00  0.00    -0.022 C 
ATOM     15  C   UNL     1      32.329  -6.638 -23.794  0.00  0.00    +0.029 C 
ATOM     16  C   UNL     1      33.646  -6.150 -23.829  0.00  0.00    +0.124 C 
ATOM     17  C   UNL     1      34.656  -6.969 -23.332  0.00  0.00    +0.085 C 
ATOM     18  C   UNL     1      31.347  -5.792 -24.301  0.00  0.00    +0.110 C 
ATOM     19  C   UNL     1      32.889  -4.209 -24.786  0.00  0.00    +0.141 C 
ATOM     20  H   UNL     1      34.127  -2.615 -25.316  0.00  0.00    +0.155 HD
ATOM     21  H   UNL     1      32.476  -2.356 -25.654  0.00  0.00    +0.155 HD
ENDBRANCH   3  12
BRANCH   2  22
ATOM     22  C   UNL     1      33.518 -13.729 -23.059  0.00  0.00    +0.058 C 
ATOM     23  C   UNL     1      34.127 -14.727 -22.299  0.00  0.00    +0.019 C 
ATOM     24  C   UNL     1      33.387 -13.885 -24.439  0.00  0.00    +0.015 C 
ATOM     25  C   UNL     1      34.603 -15.882 -22.918  0.00  0.00    +0.073 C 
ATOM     26  C   UNL     1      33.863 -15.041 -25.058  0.00  0.00    +0.001 C 
ATOM     27  C   UNL     1      34.473 -16.039 -24.298  0.00  0.00    +0.004 C 
BRANCH  25  31
ATOM     28  F   UNL     1      36.543 -17.212 -22.479  0.00  0.00    -0.166 F 
ATOM     29  F   UNL     1      35.325 -16.657 -20.773  0.00  0.00    -0.166 F 
ATOM     30  F   UNL     1      34.600 -18.144 -22.185  0.00  0.00    -0.166 F 
ATOM     31  C   UNL     1      35.256 -16.949 -22.106  0.00  0.00    +0.419 C 
ENDBRANCH  25  31
ENDBRANCH   2  22
TORSDOF 3
ENDMDL
MODEL 5
REMARK VINA RESULT:     -10.4     15.410     18.278
REMARK  Name = 24812719
REMARK  3 active torsions:
REMARK  status: ('A' for Active; 'I' for Inactive)
REMARK    1  A    between atoms: N_2  and  C_22
REMARK    2  A    between atoms: C_3  and  C_12
REMARK    3  A    between atoms: C_25  and  C_31
REMARK                            x       y       z     vdW  Elec       q    Type
REMARK                         _______ _______ _______ _____ _____    ______ ____
ROOT
ATOM      1  O   UNL     1      34.089  -9.865 -24.071  0.00  0.00    -0.269 OA
ATOM      2  N   UNL     1      32.933  -8.499 -22.541  0.00  0.00    -0.233 N 
ATOM      3  C   UNL     1      32.844 -10.993 -22.420  0.00  0.00    +0.046 C 
ATOM      4  C   UNL     1      32.114 -10.905 -21.289  0.00  0.00    -0.016 C 
ATOM      5  C   UNL     1      33.338  -9.734 -23.103  0.00  0.00    +0.256 C 
ATOM      6  C   UNL     1      32.190  -8.487 -21.366  0.00  0.00    +0.072 C 
ATOM      7  C   UNL     1      31.795  -9.604 -20.749  0.00  0.00    +0.012 C 
ATOM      8  C   UNL     1      31.562 -12.060 -20.497  0.00  0.00    +0.031 C 
ENDROOT
BRANCH   3  12
ATOM      9  N   UNL     1      34.188 -15.970 -24.714  0.00  0.00    -0.342 NA
ATOM     10  N   UNL     1      35.088 -16.732 -22.613  0.00  0.00    -0.170 NA
ATOM     11  N   UNL     1      35.107 -18.119 -24.501  0.00  0.00    -0.293 N 
ATOM     12  C   UNL     1      33.199 -12.296 -23.013  0.00  0.00    -0.017 C 
ATOM     13  C   UNL     1      33.811 -13.275 -22.238  0.00  0.00    +0.056 C 
ATOM     14  C   UNL     1      32.923 -12.553 -24.351  0.00  0.00    -0.022 C 
ATOM     15  C   UNL     1      34.145 -14.515 -22.808  0.00  0.00    +0.029 C 
ATOM     16  C   UNL     1      33.872 -14.787 -24.158  0.00  0.00    +0.124 C 
ATOM     17  C   UNL     1      33.259 -13.789 -24.911  0.00  0.00    +0.085 C 
ATOM     18  C   UNL     1      34.758 -15.537 -22.088  0.00  0.00    +0.110 C 
ATOM     19  C   UNL     1      34.779 -16.878 -23.911  0.00  0.00    +0.141 C 
ATOM     20  H   UNL     1      34.903 -18.281 -25.450  0.00  0.00    +0.155 HD
ATOM     21  H   UNL     1      35.540 -18.821 -23.963  0.00  0.00    +0.155 HD
ENDBRANCH   3  12
BRANCH   2  22
ATOM     22  C   UNL     1      33.318  -7.253 -23.177  0.00  0.00    +0.058 C 
ATOM     23  C   UNL     1      32.452  -6.161 -23.152  0.00  0.00    +0.019 C 
ATOM     24  C   UNL     1      34.554  -7.149 -23.815  0.00  0.00    +0.015 C 
ATOM     25  C   UNL     1      32.821  -4.964 -23.764  0.00  0.00    +0.073 C 
ATOM     26  C   UNL     1      34.924  -5.951 -24.428  0.00  0.00    +0.001 C 
ATOM     27  C   UNL     1      34.057  -4.859 -24.403  0.00  0.00    +0.004 C 
BRANCH  25  31
ATOM     28  F   UNL     1      30.839  -3.914 -24.598  0.00  0.00    -0.166 F 
ATOM     29  F   UNL     1      31.333  -3.569 -22.515  0.00  0.00    -0.166 F 
ATOM     30  F   UNL     1      32.514  -2.627 -24.079  0.00  0.00    -0.166 F 
ATOM     31  C   UNL     1      31.895  -3.795 -23.739  0.00  0.00    +0.419 C 
ENDBRANCH  25  31
ENDBRANCH   2  22
TORSDOF 3
ENDMDL
MODEL 6
REMARK VINA RESULT:     -10.1      5.434      7.542
REMARK  Name = 24812719
REMARK  3 active torsions:
REMARK  status: ('A' for Active; 'I' for Inactive)
REMARK    1  A    between atoms: N_2  and  C_22
REMARK    2  A    between atoms: C_3  and  C_12
REMARK    3  A    between atoms: C_25  and  C_31
REMARK                            x       y       z     vdW  Elec       q    Type
REMARK                         _______ _______ _______ _____ _____    ______ ____
ROOT
ATOM      1  O   UNL     1      36.641 -20.877 -18.035  0.00  0.00    -0.269 OA
ATOM      2  N   UNL     1      34.720 -20.906 -19.397  0.00  0.00    -0.233 N 
ATOM      3  C   UNL     1      34.845 -22.185 -17.254  0.00  0.00    +0.046 C 
ATOM      4  C   UNL     1      33.556 -22.554 -17.407  0.00  0.00    -0.016 C 
ATOM      5  C   UNL     1      35.498 -21.273 -18.272  0.00  0.00    +0.256 C 
ATOM      6  C   UNL     1      33.394 -21.316 -19.480  0.00  0.00    +0.072 C 
ATOM      7  C   UNL     1      32.816 -22.087 -18.555  0.00  0.00    +0.012 C 
ATOM      8  C   UNL     1      32.772 -23.446 -16.482  0.00  0.00    +0.031 C 
ENDROOT
BRANCH   3  12
ATOM      9  N   UNL     1      37.937 -23.899 -12.855  0.00  0.00    -0.342 NA
ATOM     10  N   UNL     1      35.940 -24.343 -11.583  0.00  0.00    -0.170 NA
ATOM     11  N   UNL     1      38.060 -24.729 -10.664  0.00  0.00    -0.293 N 
ATOM     12  C   UNL     1      35.647 -22.634 -16.100  0.00  0.00    -0.017 C 
ATOM     13  C   UNL     1      35.019 -23.062 -14.935  0.00  0.00    +0.056 C 
ATOM     14  C   UNL     1      37.035 -22.632 -16.171  0.00  0.00    -0.022 C 
ATOM     15  C   UNL     1      35.788 -23.490 -13.839  0.00  0.00    +0.029 C 
ATOM     16  C   UNL     1      37.192 -23.492 -13.898  0.00  0.00    +0.124 C 
ATOM     17  C   UNL     1      37.793 -23.058 -15.077  0.00  0.00    +0.085 C 
ATOM     18  C   UNL     1      35.223 -23.929 -12.645  0.00  0.00    +0.110 C 
ATOM     19  C   UNL     1      37.270 -24.302 -11.755  0.00  0.00    +0.141 C 
ATOM     20  H   UNL     1      39.041 -24.720 -10.734  0.00  0.00    +0.155 HD
ATOM     21  H   UNL     1      37.628 -25.035  -9.834  0.00  0.00    +0.155 HD
ENDBRANCH   3  12
BRANCH   2  22
ATOM     22  C   UNL     1      35.300 -20.084 -20.442  0.00  0.00    +0.058 C 
ATOM     23  C   UNL     1      34.609 -19.884 -21.636  0.00  0.00    +0.019 C 
ATOM     24  C   UNL     1      36.550 -19.496 -20.253  0.00  0.00    +0.015 C 
ATOM     25  C   UNL     1      35.167 -19.095 -22.641  0.00  0.00    +0.073 C 
ATOM     26  C   UNL     1      37.108 -18.706 -21.258  0.00  0.00    +0.001 C 
ATOM     27  C   UNL     1      36.417 -18.506 -22.453  0.00  0.00    +0.004 C 
BRANCH  25  31
ATOM     28  F   UNL     1      33.071 -18.842 -23.769  0.00  0.00    -0.166 F 
ATOM     29  F   UNL     1      34.751 -17.713 -24.549  0.00  0.00    -0.166 F 
ATOM     30  F   UNL     1      34.667 -19.867 -24.834  0.00  0.00    -0.166 F 
ATOM     31  C   UNL     1      34.428 -18.882 -23.920  0.00  0.00    +0.419 C 
ENDBRANCH  25  31
ENDBRANCH   2  22
TORSDOF 3
ENDMDL
MODEL 7
REMARK VINA RESULT:     -10.1      5.174      8.218
REMARK  Name = 24812719
REMARK  3 active torsions:
REMARK  status: ('A' for Active; 'I' for Inactive)
REMARK    1  A    between atoms: N_2  and  C_22
REMARK    2  A    between atoms: C_3  and  C_12
REMARK    3  A    between atoms: C_25  and  C_31
REMARK                            x       y       z     vdW  Elec       q    Type
REMARK                         _______ _______ _______ _____ _____    ______ ____
ROOT
ATOM      1  O   UNL     1      32.025 -22.028 -17.685  0.00  0.00    -0.269 OA
ATOM      2  N   UNL     1      33.130 -23.231 -15.988  0.00  0.00    -0.233 N 
ATOM      3  C   UNL     1      34.379 -21.937 -17.723  0.00  0.00    +0.046 C 
ATOM      4  C   UNL     1      35.538 -22.235 -17.101  0.00  0.00    -0.016 C 
ATOM      5  C   UNL     1      33.062 -22.414 -17.143  0.00  0.00    +0.256 C 
ATOM      6  C   UNL     1      34.362 -23.486 -15.396  0.00  0.00    +0.072 C 
ATOM      7  C   UNL     1      35.512 -23.026 -15.893  0.00  0.00    +0.012 C 
ATOM      8  C   UNL     1      36.916 -21.829 -17.550  0.00  0.00    +0.031 C 
ENDROOT
BRANCH   3  12
ATOM      9  N   UNL     1      34.233 -18.868 -22.457  0.00  0.00    -0.342 NA
ATOM     10  N   UNL     1      36.574 -18.346 -22.229  0.00  0.00    -0.170 NA
ATOM     11  N   UNL     1      35.330 -17.520 -24.034  0.00  0.00    -0.293 N 
ATOM     12  C   UNL     1      34.348 -21.133 -18.959  0.00  0.00    -0.017 C 
ATOM     13  C   UNL     1      35.502 -20.503 -19.414  0.00  0.00    +0.056 C 
ATOM     14  C   UNL     1      33.164 -21.000 -19.677  0.00  0.00    -0.022 C 
ATOM     15  C   UNL     1      35.466 -19.739 -20.593  0.00  0.00    +0.029 C 
ATOM     16  C   UNL     1      34.278 -19.597 -21.328  0.00  0.00    +0.124 C 
ATOM     17  C   UNL     1      33.138 -20.239 -20.849  0.00  0.00    +0.085 C 
ATOM     18  C   UNL     1      36.585 -19.084 -21.102  0.00  0.00    +0.110 C 
ATOM     19  C   UNL     1      35.384 -18.283 -22.845  0.00  0.00    +0.141 C 
ATOM     20  H   UNL     1      34.482 -17.439 -24.527  0.00  0.00    +0.155 HD
ATOM     21  H   UNL     1      36.139 -17.070 -24.366  0.00  0.00    +0.155 HD
ENDBRANCH   3  12
BRANCH   2  22
ATOM     22  C   UNL     1      31.914 -23.774 -15.413  0.00  0.00    +0.058 C 
ATOM     23  C   UNL     1      30.677 -23.463 -15.976  0.00  0.00    +0.019 C 
ATOM     24  C   UNL     1      31.982 -24.604 -14.295  0.00  0.00    +0.015 C 
ATOM     25  C   UNL     1      29.508 -23.984 -15.423  0.00  0.00    +0.073 C 
ATOM     26  C   UNL     1      30.813 -25.126 -13.741  0.00  0.00    +0.001 C 
ATOM     27  C   UNL     1      29.575 -24.815 -14.305  0.00  0.00    +0.004 C 
BRANCH  25  31
ATOM     28  F   UNL     1      27.241 -23.289 -15.106  0.00  0.00    -0.166 F 
ATOM     29  F   UNL     1      28.232 -22.615 -16.914  0.00  0.00    -0.166 F 
ATOM     30  F   UNL     1      27.642 -24.698 -16.713  0.00  0.00    -0.166 F 
ATOM     31  C   UNL     1      28.184 -23.652 -16.025  0.00  0.00    +0.419 C 
ENDBRANCH  25  31
ENDBRANCH   2  22
TORSDOF 3
ENDMDL
MODEL 8
REMARK VINA RESULT:     -10.0      9.435     12.152
REMARK  Name = 24812719
REMARK  3 active torsions:
REMARK  status: ('A' for Active; 'I' for Inactive)
REMARK    1  A    between atoms: N_2  and  C_22
REMARK    2  A    between atoms: C_3  and  C_12
REMARK    3  A    between atoms: C_25  and  C_31
REMARK                            x       y       z     vdW  Elec       q    Type
REMARK                         _______ _______ _______ _____ _____    ______ ____
ROOT
ATOM      1  O   UNL     1      34.703 -15.725 -21.197  0.00  0.00    -0.269 OA
ATOM      2  N   UNL     1      33.998 -15.373 -23.416  0.00  0.00    -0.233 N 
ATOM      3  C   UNL     1      34.818 -17.596 -22.623  0.00  0.00    +0.046 C 
ATOM      4  C   UNL     1      34.525 -18.126 -23.828  0.00  0.00    -0.016 C 
ATOM      5  C   UNL     1      34.518 -16.137 -22.343  0.00  0.00    +0.256 C 
ATOM      6  C   UNL     1      33.710 -15.992 -24.627  0.00  0.00    +0.072 C 
ATOM      7  C   UNL     1      33.941 -17.288 -24.849  0.00  0.00    +0.012 C 
ATOM      8  C   UNL     1      34.757 -19.552 -24.251  0.00  0.00    +0.031 C 
ENDROOT
BRANCH   3  12
ATOM      9  N   UNL     1      37.125 -20.684 -18.501  0.00  0.00    -0.342 NA
ATOM     10  N   UNL     1      35.100 -21.972 -18.289  0.00  0.00    -0.170 NA
ATOM     11  N   UNL     1      36.955 -22.417 -16.929  0.00  0.00    -0.293 N 
ATOM     12  C   UNL     1      35.414 -18.406 -21.545  0.00  0.00    -0.017 C 
ATOM     13  C   UNL     1      34.679 -19.422 -20.943  0.00  0.00    +0.056 C 
ATOM     14  C   UNL     1      36.716 -18.160 -21.123  0.00  0.00    -0.022 C 
ATOM     15  C   UNL     1      35.253 -20.192 -19.917  0.00  0.00    +0.029 C 
ATOM     16  C   UNL     1      36.567 -19.953 -19.483  0.00  0.00    +0.124 C 
ATOM     17  C   UNL     1      37.280 -18.930 -20.102  0.00  0.00    +0.085 C 
ATOM     18  C   UNL     1      34.571 -21.222 -19.274  0.00  0.00    +0.110 C 
ATOM     19  C   UNL     1      36.361 -21.653 -17.959  0.00  0.00    +0.141 C 
ATOM     20  H   UNL     1      37.878 -22.227 -16.646  0.00  0.00    +0.155 HD
ATOM     21  H   UNL     1      36.445 -23.140 -16.496  0.00  0.00    +0.155 HD
ENDBRANCH   3  12
BRANCH   2  22
ATOM     22  C   UNL     1      33.743 -13.955 -23.239  0.00  0.00    +0.058 C 
ATOM     23  C   UNL     1      32.955 -13.516 -22.176  0.00  0.00    +0.019 C 
ATOM     24  C   UNL     1      34.284 -13.033 -24.134  0.00  0.00    +0.015 C 
ATOM     25  C   UNL     1      32.710 -12.154 -22.006  0.00  0.00    +0.073 C 
ATOM     26  C   UNL     1      34.039 -11.670 -23.964  0.00  0.00    +0.001 C 
ATOM     27  C   UNL     1      33.250 -11.231 -22.901  0.00  0.00    +0.004 C 
BRANCH  25  31
ATOM     28  F   UNL     1      32.266 -10.486 -20.350  0.00  0.00    -0.166 F 
ATOM     29  F   UNL     1      30.552 -11.506 -21.201  0.00  0.00    -0.166 F 
ATOM     30  F   UNL     1      31.863 -12.556 -19.821  0.00  0.00    -0.166 F 
ATOM     31  C   UNL     1      31.866 -11.683 -20.870  0.00  0.00    +0.419 C 
ENDBRANCH  25  31
ENDBRANCH   2  22
TORSDOF 3
ENDMDL
MODEL 9
REMARK VINA RESULT:     -10.0      5.060      8.714
REMARK  Name = 24812719
REMARK  3 active torsions:
REMARK  status: ('A' for Active; 'I' for Inactive)
REMARK    1  A    between atoms: N_2  and  C_22
REMARK    2  A    between atoms: C_3  and  C_12
REMARK    3  A    between atoms: C_25  and  C_31
REMARK                            x       y       z     vdW  Elec       q    Type
REMARK                         _______ _______ _______ _____ _____    ______ ____
ROOT
ATOM      1  O   UNL     1      36.289 -22.853 -16.315  0.00  0.00    -0.269 OA
ATOM      2  N   UNL     1      35.161 -23.882 -14.522  0.00  0.00    -0.233 N 
ATOM      3  C   UNL     1      33.936 -22.829 -16.428  0.00  0.00    +0.046 C 
ATOM      4  C   UNL     1      32.768 -23.256 -15.905  0.00  0.00    -0.016 C 
ATOM      5  C   UNL     1      35.244 -23.173 -15.745  0.00  0.00    +0.256 C 
ATOM      6  C   UNL     1      33.921 -24.299 -14.050  0.00  0.00    +0.072 C 
ATOM      7  C   UNL     1      32.777 -24.026 -14.683  0.00  0.00    +0.012 C 
ATOM      8  C   UNL     1      31.396 -23.002 -16.469  0.00  0.00    +0.031 C 
ENDROOT
BRANCH   3  12
ATOM      9  N   UNL     1      34.091 -19.817 -21.198  0.00  0.00    -0.342 NA
ATOM     10  N   UNL     1      36.488 -19.628 -21.039  0.00  0.00    -0.170 NA
ATOM     11  N   UNL     1      35.322 -18.652 -22.821  0.00  0.00    -0.293 N 
ATOM     12  C   UNL     1      33.984 -22.041 -17.674  0.00  0.00    -0.017 C 
ATOM     13  C   UNL     1      35.201 -21.584 -18.168  0.00  0.00    +0.056 C 
ATOM     14  C   UNL     1      32.811 -21.750 -18.362  0.00  0.00    -0.022 C 
ATOM     15  C   UNL     1      35.241 -20.835 -19.356  0.00  0.00    +0.029 C 
ATOM     16  C   UNL     1      34.064 -20.534 -20.060  0.00  0.00    +0.124 C 
ATOM     17  C   UNL     1      32.859 -21.003 -19.543  0.00  0.00    +0.085 C 
ATOM     18  C   UNL     1      36.426 -20.349 -19.903  0.00  0.00    +0.110 C 
ATOM     19  C   UNL     1      35.301 -19.404 -21.624  0.00  0.00    +0.141 C 
ATOM     20  H   UNL     1      34.481 -18.457 -23.293  0.00  0.00    +0.155 HD
ATOM     21  H   UNL     1      36.177 -18.324 -23.181  0.00  0.00    +0.155 HD
ENDBRANCH   3  12
BRANCH   2  22
ATOM     22  C   UNL     1      36.369 -24.192 -13.781  0.00  0.00    +0.058 C 
ATOM     23  C   UNL     1      37.214 -25.210 -14.220  0.00  0.00    +0.019 C 
ATOM     24  C   UNL     1      36.684 -23.474 -12.628  0.00  0.00    +0.015 C 
ATOM     25  C   UNL     1      38.375 -25.509 -13.508  0.00  0.00    +0.073 C 
ATOM     26  C   UNL     1      37.845 -23.772 -11.915  0.00  0.00    +0.001 C 
ATOM     27  C   UNL     1      38.690 -24.791 -12.355  0.00  0.00    +0.004 C 
BRANCH  25  31
ATOM     28  F   UNL     1      39.118 -27.774 -13.298  0.00  0.00    -0.166 F 
ATOM     29  F   UNL     1      39.108 -26.923 -15.293  0.00  0.00    -0.166 F 
ATOM     30  F   UNL     1      40.599 -26.279 -13.847  0.00  0.00    -0.166 F 
ATOM     31  C   UNL     1      39.279 -26.600 -13.977  0.00  0.00    +0.419 C 
ENDBRANCH  25  31
ENDBRANCH   2  22
TORSDOF 3
ENDMDL
