MODEL 1
REMARK VINA RESULT:     -11.7      0.000      0.000
REMARK  Name = 446560
REMARK  8 active torsions:
REMARK  status: ('A' for Active; 'I' for Inactive)
REMARK    1  A    between atoms: C_1  and  C_19
REMARK    2  A    between atoms: C_2  and  C_9
REMARK    3  A    between atoms: N_8  and  CA_11
REMARK    4  A    between atoms: CA_11  and  CB_12
REMARK    5  A    between atoms: CA_11  and  C_16
REMARK    6  A    between atoms: C_16  and  O_17
REMARK    7  A    between atoms: C_19  and  C_20
REMARK    8  A    between atoms: C_20  and  C_26
REMARK                            x       y       z     vdW  Elec       q    Type
REMARK                         _______ _______ _______ _____ _____    ______ ____
ROOT
ATOM      1  C   UNL     1      35.269 -17.204 -22.567  0.00  0.00    -0.022 C 
ATOM      2  C   UNL     1      34.278 -14.833 -23.573  0.00  0.00    +0.053 C 
ATOM      3  C   UNL     1      34.893 -17.117 -23.908  0.00  0.00    -0.004 C 
ATOM      4  C   UNL     1      35.143 -16.091 -21.735  0.00  0.00    -0.004 C 
ATOM      5  C   UNL     1      34.393 -15.919 -24.417  0.00  0.00    +0.004 C 
ATOM      6  C   UNL     1      34.642 -14.893 -22.244  0.00  0.00    +0.004 C 
ENDROOT
BRANCH   2   9
ATOM      7  O   UNL     1      33.039 -13.578 -25.118  0.00  0.00    -0.270 OA
ATOM      8  N   UNL     1      34.086 -12.412 -23.408  0.00  0.00    -0.293 N 
ATOM      9  C   ACE A   0      33.747 -13.556 -24.114  0.00  0.00    +0.246 C 
ATOM     10  H   UNL     1      34.662 -12.500 -22.615  0.00  0.00    +0.150 HD
BRANCH   8  11
ATOM     11  CA  UNL     1      33.626 -11.098 -23.796  0.00  0.00    +0.171 C 
BRANCH  11  12
ATOM     12  CB  UNL     1      32.950 -10.397 -22.598  0.00  0.00    +0.029 C 
ATOM     13  CG1 UNL     1      32.024 -11.340 -21.822  0.00  0.00    +0.002 C 
ATOM     14  CG2 UNL     1      32.198  -9.121 -22.990  0.00  0.00    +0.002 C 
ENDBRANCH  11  12
BRANCH  11  16
ATOM     15  OXT UNL     1      35.030 -10.356 -25.633  0.00  0.00    -0.248 OA
ATOM     16  C   UNL     1      34.753 -10.297 -24.441  0.00  0.00    +0.332 C 
BRANCH  16  17
ATOM     17  O   UNL     1      35.472  -9.538 -23.578  0.00  0.00    -0.479 OA
ATOM     18  H   UNL     1      36.305  -9.841 -23.271  0.00  0.00    +0.295 HD
ENDBRANCH  16  17
ENDBRANCH  11  16
ENDBRANCH   8  11
ENDBRANCH   2   9
BRANCH   1  19
ATOM     19  C   UNL     1      35.802 -18.486 -22.025  0.00  0.00    +0.031 C 
BRANCH  19  20
ATOM     20  C   UNL     1      34.718 -19.448 -21.496  0.00  0.00    +0.033 C 
BRANCH  20  26
ATOM     21  O   UNL     1      32.133 -20.799 -20.231  0.00  0.00    -0.209 OA
ATOM     22  N   UNL     1      36.452 -21.171 -18.761  0.00  0.00    -0.300 N 
ATOM     23  N   UNL     1      34.738 -22.349 -17.543  0.00  0.00    -0.264 N 
ATOM     24  N   UNL     1      32.501 -22.111 -18.366  0.00  0.00    -0.302 NA
ATOM     25  N   UNL     1      32.997 -23.423 -16.472  0.00  0.00    -0.320 N 
ATOM     26  C   UNL     1      35.161 -20.249 -20.306  0.00  0.00    +0.007 C 
ATOM     27  C   UNL     1      34.336 -21.003 -19.464  0.00  0.00    +0.120 C 
ATOM     28  C   UNL     1      35.171 -21.553 -18.529  0.00  0.00    +0.115 C 
ATOM     29  C   UNL     1      36.455 -20.356 -19.871  0.00  0.00    +0.059 C 
ATOM     30  C   UNL     1      32.908 -21.277 -19.410  0.00  0.00    +0.209 C 
ATOM     31  C   UNL     1      33.371 -22.601 -17.505  0.00  0.00    +0.248 C 
ATOM     32  H   UNL     1      37.241 -21.430 -18.230  0.00  0.00    +0.153 HD
ATOM     33  H   UNL     1      35.355 -22.734 -16.879  0.00  0.00    +0.157 HD
ATOM     34  H   UNL     1      33.675 -23.770 -15.848  0.00  0.00    +0.146 HD
ATOM     35  H   UNL     1      32.050 -23.666 -16.355  0.00  0.00    +0.146 HD
ENDBRANCH  20  26
ENDBRANCH  19  20
ENDBRANCH   1  19
TORSDOF 8
ENDMDL
MODEL 2
REMARK VINA RESULT:     -11.7      1.164      1.929
REMARK  Name = 446560
REMARK  8 active torsions:
REMARK  status: ('A' for Active; 'I' for Inactive)
REMARK    1  A    between atoms: C_1  and  C_19
REMARK    2  A    between atoms: C_2  and  C_9
REMARK    3  A    between atoms: N_8  and  CA_11
REMARK    4  A    between atoms: CA_11  and  CB_12
REMARK    5  A    between atoms: CA_11  and  C_16
REMARK    6  A    between atoms: C_16  and  O_17
REMARK    7  A    between atoms: C_19  and  C_20
REMARK    8  A    between atoms: C_20  and  C_26
REMARK                            x       y       z     vdW  Elec       q    Type
REMARK                         _______ _______ _______ _____ _____    ______ ____
ROOT
ATOM      1  C   UNL     1      35.174 -17.664 -22.882  0.00  0.00    -0.022 C 
ATOM      2  C   UNL     1      34.193 -15.220 -23.709  0.00  0.00    +0.053 C 
ATOM      3  C   UNL     1      35.304 -16.544 -22.059  0.00  0.00    -0.004 C 
ATOM      4  C   UNL     1      34.548 -17.547 -24.123  0.00  0.00    -0.004 C 
ATOM      5  C   UNL     1      34.808 -15.310 -22.476  0.00  0.00    +0.004 C 
ATOM      6  C   UNL     1      34.053 -16.311 -24.541  0.00  0.00    +0.004 C 
ENDROOT
BRANCH   2   9
ATOM      7  O   UNL     1      33.107 -13.823 -25.246  0.00  0.00    -0.270 OA
ATOM      8  N   UNL     1      33.827 -12.856 -23.265  0.00  0.00    -0.293 N 
ATOM      9  C   ACE A   0      33.664 -13.906 -24.154  0.00  0.00    +0.246 C 
ATOM     10  H   UNL     1      34.289 -13.025 -22.413  0.00  0.00    +0.150 HD
BRANCH   8  11
ATOM     11  CA  UNL     1      33.344 -11.523 -23.545  0.00  0.00    +0.171 C 
BRANCH  11  12
ATOM     12  CB  UNL     1      32.783 -10.880 -22.258  0.00  0.00    +0.029 C 
ATOM     13  CG1 UNL     1      31.933 -11.860 -21.443  0.00  0.00    +0.002 C 
ATOM     14  CG2 UNL     1      31.999  -9.590 -22.519  0.00  0.00    +0.002 C 
ENDBRANCH  11  12
BRANCH  11  16
ATOM     15  OXT UNL     1      34.607 -10.723 -25.458  0.00  0.00    -0.248 OA
ATOM     16  C   UNL     1      34.413 -10.694 -24.249  0.00  0.00    +0.332 C 
BRANCH  16  17
ATOM     17  O   UNL     1      35.184  -9.946 -23.421  0.00  0.00    -0.479 OA
ATOM     18  H   UNL     1      35.143 -10.081 -22.494  0.00  0.00    +0.295 HD
ENDBRANCH  16  17
ENDBRANCH  11  16
ENDBRANCH   8  11
ENDBRANCH   2   9
BRANCH   1  19
ATOM     19  C   UNL     1      35.705 -18.983 -22.434  0.00  0.00    +0.031 C 
BRANCH  19  20
ATOM     20  C   UNL     1      35.688 -19.184 -20.905  0.00  0.00    +0.033 C 
BRANCH  20  26
ATOM     21  O   UNL     1      36.646 -21.104 -18.558  0.00  0.00    -0.209 OA
ATOM     22  N   UNL     1      32.400 -20.658 -20.211  0.00  0.00    -0.300 N 
ATOM     23  N   UNL     1      32.754 -22.222 -18.412  0.00  0.00    -0.264 N 
ATOM     24  N   UNL     1      34.999 -22.406 -17.594  0.00  0.00    -0.302 NA
ATOM     25  N   UNL     1      33.237 -23.683 -16.690  0.00  0.00    -0.320 N 
ATOM     26  C   UNL     1      34.486 -19.939 -20.415  0.00  0.00    +0.007 C 
ATOM     27  C   UNL     1      34.467 -20.890 -19.388  0.00  0.00    +0.120 C 
ATOM     28  C   UNL     1      33.166 -21.304 -19.296  0.00  0.00    +0.115 C 
ATOM     29  C   UNL     1      33.218 -19.801 -20.915  0.00  0.00    +0.059 C 
ATOM     30  C   UNL     1      35.472 -21.453 -18.500  0.00  0.00    +0.209 C 
ATOM     31  C   UNL     1      33.726 -22.750 -17.569  0.00  0.00    +0.248 C 
ATOM     32  H   UNL     1      31.432 -20.778 -20.347  0.00  0.00    +0.153 HD
ATOM     33  H   UNL     1      31.814 -22.509 -18.361  0.00  0.00    +0.157 HD
ATOM     34  H   UNL     1      32.281 -23.916 -16.700  0.00  0.00    +0.146 HD
ATOM     35  H   UNL     1      33.842 -24.119 -16.047  0.00  0.00    +0.146 HD
ENDBRANCH  20  26
ENDBRANCH  19  20
ENDBRANCH   1  19
TORSDOF 8
ENDMDL
MODEL 3
REMARK VINA RESULT:     -11.7      2.818     10.604
REMARK  Name = 446560
REMARK  8 active torsions:
REMARK  status: ('A' for Active; 'I' for Inactive)
REMARK    1  A    between atoms: C_1  and  C_19
REMARK    2  A    between atoms: C_2  and  C_9
REMARK    3  A    between atoms: N_8  and  CA_11
REMARK    4  A    between atoms: CA_11  and  CB_12
REMARK    5  A    between atoms: CA_11  and  C_16
REMARK    6  A    between atoms: C_16  and  O_17
REMARK    7  A    between atoms: C_19  and  C_20
REMARK    8  A    between atoms: C_20  and  C_26
REMARK                            x       y       z     vdW  Elec       q    Type
REMARK                         _______ _______ _______ _____ _____    ______ ____
ROOT
ATOM      1  C   UNL     1      35.062 -20.111 -20.284  0.00  0.00    -0.022 C 
ATOM      2  C   UNL     1      33.779 -21.916 -18.638  0.00  0.00    +0.053 C 
ATOM      3  C   UNL     1      35.807 -20.982 -19.487  0.00  0.00    -0.004 C 
ATOM      4  C   UNL     1      33.668 -20.153 -20.247  0.00  0.00    -0.004 C 
ATOM      5  C   UNL     1      35.158 -21.894 -18.656  0.00  0.00    +0.004 C 
ATOM      6  C   UNL     1      33.019 -21.066 -19.415  0.00  0.00    +0.004 C 
ENDROOT
BRANCH   2   9
ATOM      7  O   UNL     1      33.433 -24.067 -17.772  0.00  0.00    -0.270 OA
ATOM      8  N   UNL     1      32.094 -22.366 -16.940  0.00  0.00    -0.293 N 
ATOM      9  C   ACE A   0      33.087 -22.889 -17.754  0.00  0.00    +0.246 C 
ATOM     10  H   UNL     1      31.890 -21.405 -17.000  0.00  0.00    +0.150 HD
BRANCH   8  11
ATOM     11  CA  UNL     1      31.349 -23.181 -16.008  0.00  0.00    +0.171 C 
BRANCH  11  12
ATOM     12  CB  UNL     1      31.775 -22.859 -14.559  0.00  0.00    +0.029 C 
ATOM     13  CG1 UNL     1      33.180 -23.380 -14.240  0.00  0.00    +0.002 C 
ATOM     14  CG2 UNL     1      30.775 -23.354 -13.511  0.00  0.00    +0.002 C 
ENDBRANCH  11  12
BRANCH  11  16
ATOM     15  OXT UNL     1      29.287 -22.010 -16.533  0.00  0.00    -0.248 OA
ATOM     16  C   UNL     1      29.849 -23.065 -16.264  0.00  0.00    +0.332 C 
BRANCH  16  17
ATOM     17  O   UNL     1      29.161 -24.224 -16.120  0.00  0.00    -0.479 OA
ATOM     18  H   UNL     1      28.322 -24.221 -15.702  0.00  0.00    +0.295 HD
ENDBRANCH  16  17
ENDBRANCH  11  16
ENDBRANCH   8  11
ENDBRANCH   2   9
BRANCH   1  19
ATOM     19  C   UNL     1      35.756 -19.136 -21.172  0.00  0.00    +0.031 C 
BRANCH  19  20
ATOM     20  C   UNL     1      35.308 -17.673 -20.975  0.00  0.00    +0.033 C 
BRANCH  20  26
ATOM     21  O   UNL     1      34.574 -14.662 -20.266  0.00  0.00    -0.209 OA
ATOM     22  N   UNL     1      34.727 -16.567 -24.425  0.00  0.00    -0.300 N 
ATOM     23  N   UNL     1      34.130 -14.237 -24.271  0.00  0.00    -0.264 N 
ATOM     24  N   UNL     1      34.069 -13.304 -22.066  0.00  0.00    -0.302 NA
ATOM     25  N   UNL     1      33.572 -12.016 -23.976  0.00  0.00    -0.320 N 
ATOM     26  C   UNL     1      35.013 -16.961 -22.264  0.00  0.00    +0.007 C 
ATOM     27  C   UNL     1      34.648 -15.617 -22.402  0.00  0.00    +0.120 C 
ATOM     28  C   UNL     1      34.483 -15.418 -23.747  0.00  0.00    +0.115 C 
ATOM     29  C   UNL     1      35.060 -17.537 -23.506  0.00  0.00    +0.059 C 
ATOM     30  C   UNL     1      34.436 -14.516 -21.475  0.00  0.00    +0.209 C 
ATOM     31  C   UNL     1      33.932 -13.195 -23.372  0.00  0.00    +0.248 C 
ATOM     32  H   UNL     1      34.677 -16.687 -25.402  0.00  0.00    +0.153 HD
ATOM     33  H   UNL     1      34.015 -14.114 -25.241  0.00  0.00    +0.157 HD
ATOM     34  H   UNL     1      33.479 -11.973 -24.955  0.00  0.00    +0.146 HD
ATOM     35  H   UNL     1      33.409 -11.214 -23.430  0.00  0.00    +0.146 HD
ENDBRANCH  20  26
ENDBRANCH  19  20
ENDBRANCH   1  19
TORSDOF 8
ENDMDL
MODEL 4
REMARK VINA RESULT:     -11.5      3.012     10.563
REMARK  Name = 446560
REMARK  8 active torsions:
REMARK  status: ('A' for Active; 'I' for Inactive)
REMARK    1  A    between atoms: C_1  and  C_19
REMARK    2  A    between atoms: C_2  and  C_9
REMARK    3  A    between atoms: N_8  and  CA_11
REMARK    4  A    between atoms: CA_11  and  CB_12
REMARK    5  A    between atoms: CA_11  and  C_16
REMARK    6  A    between atoms: C_16  and  O_17
REMARK    7  A    between atoms: C_19  and  C_20
REMARK    8  A    between atoms: C_20  and  C_26
REMARK                            x       y       z     vdW  Elec       q    Type
REMARK                         _______ _______ _______ _____ _____    ______ ____
ROOT
ATOM      1  C   UNL     1      35.350 -20.006 -20.264  0.00  0.00    -0.022 C 
ATOM      2  C   UNL     1      34.032 -21.881 -18.727  0.00  0.00    +0.053 C 
ATOM      3  C   UNL     1      36.077 -20.882 -19.456  0.00  0.00    -0.004 C 
ATOM      4  C   UNL     1      33.957 -20.078 -20.294  0.00  0.00    -0.004 C 
ATOM      5  C   UNL     1      35.411 -21.830 -18.680  0.00  0.00    +0.004 C 
ATOM      6  C   UNL     1      33.291 -21.026 -19.516  0.00  0.00    +0.004 C 
ENDROOT
BRANCH   2   9
ATOM      7  O   UNL     1      33.430 -24.081 -18.186  0.00  0.00    -0.270 OA
ATOM      8  N   UNL     1      32.593 -22.394 -16.833  0.00  0.00    -0.293 N 
ATOM      9  C   ACE A   0      33.322 -22.891 -17.902  0.00  0.00    +0.246 C 
ATOM     10  H   UNL     1      32.568 -21.420 -16.689  0.00  0.00    +0.150 HD
BRANCH   8  11
ATOM     11  CA  UNL     1      31.867 -23.252 -15.924  0.00  0.00    +0.171 C 
BRANCH  11  12
ATOM     12  CB  UNL     1      32.594 -23.321 -14.563  0.00  0.00    +0.029 C 
ATOM     13  CG1 UNL     1      34.095 -23.047 -14.694  0.00  0.00    +0.002 C 
ATOM     14  CG2 UNL     1      32.358 -24.638 -13.819  0.00  0.00    +0.002 C 
ENDBRANCH  11  12
BRANCH  11  16
ATOM     15  OXT UNL     1      29.737 -22.488 -16.805  0.00  0.00    -0.248 OA
ATOM     16  C   UNL     1      30.402 -22.836 -15.836  0.00  0.00    +0.332 C 
BRANCH  16  17
ATOM     17  O   UNL     1      29.892 -22.828 -14.580  0.00  0.00    -0.479 OA
ATOM     18  H   UNL     1      29.076 -22.399 -14.409  0.00  0.00    +0.295 HD
ENDBRANCH  16  17
ENDBRANCH  11  16
ENDBRANCH   8  11
ENDBRANCH   2   9
BRANCH   1  19
ATOM     19  C   UNL     1      36.064 -18.993 -21.093  0.00  0.00    +0.031 C 
BRANCH  19  20
ATOM     20  C   UNL     1      35.209 -18.390 -22.227  0.00  0.00    +0.033 C 
BRANCH  20  26
ATOM     21  O   UNL     1      34.320 -17.237 -25.053  0.00  0.00    -0.209 OA
ATOM     22  N   UNL     1      34.735 -14.922 -21.126  0.00  0.00    -0.300 N 
ATOM     23  N   UNL     1      34.029 -13.708 -23.084  0.00  0.00    -0.264 N 
ATOM     24  N   UNL     1      33.832 -14.980 -25.105  0.00  0.00    -0.302 NA
ATOM     25  N   UNL     1      33.362 -12.672 -25.037  0.00  0.00    -0.320 N 
ATOM     26  C   UNL     1      34.941 -16.922 -22.055  0.00  0.00    +0.007 C 
ATOM     27  C   UNL     1      34.525 -16.035 -23.054  0.00  0.00    +0.120 C 
ATOM     28  C   UNL     1      34.411 -14.818 -22.439  0.00  0.00    +0.115 C 
ATOM     29  C   UNL     1      35.067 -16.236 -20.877  0.00  0.00    +0.059 C 
ATOM     30  C   UNL     1      34.226 -16.162 -24.472  0.00  0.00    +0.209 C 
ATOM     31  C   UNL     1      33.746 -13.845 -24.439  0.00  0.00    +0.248 C 
ATOM     32  H   UNL     1      34.734 -14.190 -20.467  0.00  0.00    +0.153 HD
ATOM     33  H   UNL     1      33.953 -12.841 -22.625  0.00  0.00    +0.157 HD
ATOM     34  H   UNL     1      33.309 -11.844 -24.507  0.00  0.00    +0.146 HD
ATOM     35  H   UNL     1      33.137 -12.658 -25.995  0.00  0.00    +0.146 HD
ENDBRANCH  20  26
ENDBRANCH  19  20
ENDBRANCH   1  19
TORSDOF 8
ENDMDL
MODEL 5
REMARK VINA RESULT:     -11.2      2.778     10.825
REMARK  Name = 446560
REMARK  8 active torsions:
REMARK  status: ('A' for Active; 'I' for Inactive)
REMARK    1  A    between atoms: C_1  and  C_19
REMARK    2  A    between atoms: C_2  and  C_9
REMARK    3  A    between atoms: N_8  and  CA_11
REMARK    4  A    between atoms: CA_11  and  CB_12
REMARK    5  A    between atoms: CA_11  and  C_16
REMARK    6  A    between atoms: C_16  and  O_17
REMARK    7  A    between atoms: C_19  and  C_20
REMARK    8  A    between atoms: C_20  and  C_26
REMARK                            x       y       z     vdW  Elec       q    Type
REMARK                         _______ _______ _______ _____ _____    ______ ____
ROOT
ATOM      1  C   UNL     1      35.429 -19.870 -20.455  0.00  0.00    -0.022 C 
ATOM      2  C   UNL     1      34.513 -21.800 -18.709  0.00  0.00    +0.053 C 
ATOM      3  C   UNL     1      34.059 -20.101 -20.326  0.00  0.00    -0.004 C 
ATOM      4  C   UNL     1      36.336 -20.616 -19.701  0.00  0.00    -0.004 C 
ATOM      5  C   UNL     1      33.596 -21.076 -19.444  0.00  0.00    +0.004 C 
ATOM      6  C   UNL     1      35.872 -21.592 -18.819  0.00  0.00    +0.004 C 
ENDROOT
BRANCH   2   9
ATOM      7  O   UNL     1      33.335 -23.763 -18.200  0.00  0.00    -0.270 OA
ATOM      8  N   UNL     1      34.404 -22.687 -16.446  0.00  0.00    -0.293 N 
ATOM      9  C   ACE A   0      34.020 -22.839 -17.768  0.00  0.00    +0.246 C 
ATOM     10  H   UNL     1      34.955 -21.909 -16.199  0.00  0.00    +0.150 HD
BRANCH   8  11
ATOM     11  CA  UNL     1      34.025 -23.628 -15.417  0.00  0.00    +0.171 C 
BRANCH  11  12
ATOM     12  CB  UNL     1      35.232 -23.933 -14.503  0.00  0.00    +0.029 C 
ATOM     13  CG1 UNL     1      36.401 -22.973 -14.748  0.00  0.00    +0.002 C 
ATOM     14  CG2 UNL     1      35.711 -25.385 -14.600  0.00  0.00    +0.002 C 
ENDBRANCH  11  12
BRANCH  11  16
ATOM     15  OXT UNL     1      31.732 -22.848 -15.235  0.00  0.00    -0.248 OA
ATOM     16  C   UNL     1      32.780 -23.150 -14.676  0.00  0.00    +0.332 C 
BRANCH  16  17
ATOM     17  O   UNL     1      32.932 -23.032 -13.333  0.00  0.00    -0.479 OA
ATOM     18  H   UNL     1      33.694 -23.384 -12.916  0.00  0.00    +0.295 HD
ENDBRANCH  16  17
ENDBRANCH  11  16
ENDBRANCH   8  11
ENDBRANCH   2   9
BRANCH   1  19
ATOM     19  C   UNL     1      35.924 -18.827 -21.399  0.00  0.00    +0.031 C 
BRANCH  19  20
ATOM     20  C   UNL     1      35.348 -17.419 -21.142  0.00  0.00    +0.033 C 
BRANCH  20  26
ATOM     21  O   UNL     1      34.567 -14.445 -20.332  0.00  0.00    -0.209 OA
ATOM     22  N   UNL     1      34.589 -16.254 -24.537  0.00  0.00    -0.300 N 
ATOM     23  N   UNL     1      33.937 -13.945 -24.303  0.00  0.00    -0.264 N 
ATOM     24  N   UNL     1      33.948 -13.062 -22.076  0.00  0.00    -0.302 NA
ATOM     25  N   UNL     1      33.335 -11.747 -23.933  0.00  0.00    -0.320 N 
ATOM     26  C   UNL     1      34.978 -16.687 -22.400  0.00  0.00    +0.007 C 
ATOM     27  C   UNL     1      34.573 -15.351 -22.491  0.00  0.00    +0.120 C 
ATOM     28  C   UNL     1      34.344 -15.127 -23.822  0.00  0.00    +0.115 C 
ATOM     29  C   UNL     1      34.986 -17.235 -23.655  0.00  0.00    +0.059 C 
ATOM     30  C   UNL     1      34.373 -14.277 -21.530  0.00  0.00    +0.209 C 
ATOM     31  C   UNL     1      33.751 -12.929 -23.373  0.00  0.00    +0.248 C 
ATOM     32  H   UNL     1      34.499 -16.354 -25.513  0.00  0.00    +0.153 HD
ATOM     33  H   UNL     1      33.777 -13.803 -25.264  0.00  0.00    +0.157 HD
ATOM     34  H   UNL     1      33.198 -11.684 -24.905  0.00  0.00    +0.146 HD
ATOM     35  H   UNL     1      33.174 -10.961 -23.361  0.00  0.00    +0.146 HD
ENDBRANCH  20  26
ENDBRANCH  19  20
ENDBRANCH   1  19
TORSDOF 8
ENDMDL
MODEL 6
REMARK VINA RESULT:     -10.7      3.518     11.034
REMARK  Name = 446560
REMARK  8 active torsions:
REMARK  status: ('A' for Active; 'I' for Inactive)
REMARK    1  A    between atoms: C_1  and  C_19
REMARK    2  A    between atoms: C_2  and  C_9
REMARK    3  A    between atoms: N_8  and  CA_11
REMARK    4  A    between atoms: CA_11  and  CB_12
REMARK    5  A    between atoms: CA_11  and  C_16
REMARK    6  A    between atoms: C_16  and  O_17
REMARK    7  A    between atoms: C_19  and  C_20
REMARK    8  A    between atoms: C_20  and  C_26
REMARK                            x       y       z     vdW  Elec       q    Type
REMARK                         _______ _______ _______ _____ _____    ______ ____
ROOT
ATOM      1  C   UNL     1      34.885 -20.519 -20.161  0.00  0.00    -0.022 C 
ATOM      2  C   UNL     1      35.711 -21.765 -17.842  0.00  0.00    +0.053 C 
ATOM      3  C   UNL     1      33.969 -21.236 -19.390  0.00  0.00    -0.004 C 
ATOM      4  C   UNL     1      36.218 -20.433 -19.759  0.00  0.00    -0.004 C 
ATOM      5  C   UNL     1      34.387 -21.866 -18.218  0.00  0.00    +0.004 C 
ATOM      6  C   UNL     1      36.635 -21.063 -18.587  0.00  0.00    +0.004 C 
ENDROOT
BRANCH   2   9
ATOM      7  O   UNL     1      37.317 -22.291 -16.217  0.00  0.00    -0.270 OA
ATOM      8  N   UNL     1      35.190 -23.168 -15.923  0.00  0.00    -0.293 N 
ATOM      9  C   ACE A   0      36.156 -22.434 -16.593  0.00  0.00    +0.246 C 
ATOM     10  H   UNL     1      34.285 -23.222 -16.307  0.00  0.00    +0.150 HD
BRANCH   8  11
ATOM     11  CA  UNL     1      35.463 -23.856 -14.681  0.00  0.00    +0.171 C 
BRANCH  11  12
ATOM     12  CB  UNL     1      34.144 -24.143 -13.931  0.00  0.00    +0.029 C 
ATOM     13  CG1 UNL     1      33.000 -23.241 -14.405  0.00  0.00    +0.002 C 
ATOM     14  CG2 UNL     1      34.286 -24.063 -12.408  0.00  0.00    +0.002 C 
ENDBRANCH  11  12
BRANCH  11  16
ATOM     15  OXT UNL     1      35.881 -26.194 -15.187  0.00  0.00    -0.248 OA
ATOM     16  C   UNL     1      36.332 -25.086 -14.922  0.00  0.00    +0.332 C 
BRANCH  16  17
ATOM     17  O   UNL     1      37.663 -24.876 -14.767  0.00  0.00    -0.479 OA
ATOM     18  H   UNL     1      38.112 -24.281 -15.335  0.00  0.00    +0.295 HD
ENDBRANCH  16  17
ENDBRANCH  11  16
ENDBRANCH   8  11
ENDBRANCH   2   9
BRANCH   1  19
ATOM     19  C   UNL     1      34.437 -19.847 -21.414  0.00  0.00    +0.031 C 
BRANCH  19  20
ATOM     20  C   UNL     1      35.509 -18.950 -22.067  0.00  0.00    +0.033 C 
BRANCH  20  26
ATOM     21  O   UNL     1      34.494 -18.003 -24.927  0.00  0.00    -0.209 OA
ATOM     22  N   UNL     1      34.951 -15.438 -21.164  0.00  0.00    -0.300 N 
ATOM     23  N   UNL     1      34.144 -14.370 -23.168  0.00  0.00    -0.264 N 
ATOM     24  N   UNL     1      33.928 -15.769 -25.100  0.00  0.00    -0.302 NA
ATOM     25  N   UNL     1      33.382 -13.478 -25.156  0.00  0.00    -0.320 N 
ATOM     26  C   UNL     1      35.196 -17.484 -21.976  0.00  0.00    +0.007 C 
ATOM     27  C   UNL     1      34.720 -16.674 -23.013  0.00  0.00    +0.120 C 
ATOM     28  C   UNL     1      34.583 -15.425 -22.469  0.00  0.00    +0.115 C 
ATOM     29  C   UNL     1      35.336 -16.722 -20.846  0.00  0.00    +0.059 C 
ATOM     30  C   UNL     1      34.382 -16.897 -24.410  0.00  0.00    +0.209 C 
ATOM     31  C   UNL     1      33.825 -14.599 -24.501  0.00  0.00    +0.248 C 
ATOM     32  H   UNL     1      34.945 -14.667 -20.550  0.00  0.00    +0.153 HD
ATOM     33  H   UNL     1      34.053 -13.478 -22.759  0.00  0.00    +0.157 HD
ATOM     34  H   UNL     1      33.317 -12.621 -24.677  0.00  0.00    +0.146 HD
ATOM     35  H   UNL     1      33.128 -13.531 -26.106  0.00  0.00    +0.146 HD
ENDBRANCH  20  26
ENDBRANCH  19  20
ENDBRANCH   1  19
TORSDOF 8
ENDMDL
MODEL 7
REMARK VINA RESULT:     -10.4      3.769      6.516
REMARK  Name = 446560
REMARK  8 active torsions:
REMARK  status: ('A' for Active; 'I' for Inactive)
REMARK    1  A    between atoms: C_1  and  C_19
REMARK    2  A    between atoms: C_2  and  C_9
REMARK    3  A    between atoms: N_8  and  CA_11
REMARK    4  A    between atoms: CA_11  and  CB_12
REMARK    5  A    between atoms: CA_11  and  C_16
REMARK    6  A    between atoms: C_16  and  O_17
REMARK    7  A    between atoms: C_19  and  C_20
REMARK    8  A    between atoms: C_20  and  C_26
REMARK                            x       y       z     vdW  Elec       q    Type
REMARK                         _______ _______ _______ _____ _____    ______ ____
ROOT
ATOM      1  C   UNL     1      33.938 -22.007 -18.689  0.00  0.00    -0.022 C 
ATOM      2  C   UNL     1      35.083 -20.062 -20.277  0.00  0.00    +0.053 C 
ATOM      3  C   UNL     1      33.130 -21.158 -19.445  0.00  0.00    -0.004 C 
ATOM      4  C   UNL     1      35.326 -21.872 -18.735  0.00  0.00    -0.004 C 
ATOM      5  C   UNL     1      33.708 -20.176 -20.248  0.00  0.00    +0.004 C 
ATOM      6  C   UNL     1      35.905 -20.888 -19.538  0.00  0.00    +0.004 C 
ENDROOT
BRANCH   2   9
ATOM      7  O   UNL     1      36.919 -18.861 -21.103  0.00  0.00    -0.270 OA
ATOM      8  N   UNL     1      34.828 -18.299 -21.935  0.00  0.00    -0.293 N 
ATOM      9  C   ACE A   0      35.701 -19.018 -21.133  0.00  0.00    +0.246 C 
ATOM     10  H   UNL     1      33.866 -18.501 -21.885  0.00  0.00    +0.150 HD
BRANCH   8  11
ATOM     11  CA  UNL     1      35.280 -17.267 -22.839  0.00  0.00    +0.171 C 
BRANCH  11  12
ATOM     12  CB  UNL     1      34.602 -17.433 -24.217  0.00  0.00    +0.029 C 
ATOM     13  CG1 UNL     1      33.717 -16.235 -24.575  0.00  0.00    +0.002 C 
ATOM     14  CG2 UNL     1      33.808 -18.736 -24.347  0.00  0.00    +0.002 C 
ENDBRANCH  11  12
BRANCH  11  16
ATOM     15  OXT UNL     1      35.239 -14.839 -22.840  0.00  0.00    -0.248 OA
ATOM     16  C   UNL     1      35.108 -15.885 -22.216  0.00  0.00    +0.332 C 
BRANCH  16  17
ATOM     17  O   UNL     1      34.846 -15.895 -20.885  0.00  0.00    -0.479 OA
ATOM     18  H   UNL     1      35.545 -15.786 -20.271  0.00  0.00    +0.295 HD
ENDBRANCH  16  17
ENDBRANCH  11  16
ENDBRANCH   8  11
ENDBRANCH   2   9
BRANCH   1  19
ATOM     19  C   UNL     1      33.318 -23.056 -17.830  0.00  0.00    +0.031 C 
BRANCH  19  20
ATOM     20  C   UNL     1      32.308 -22.512 -16.799  0.00  0.00    +0.033 C 
BRANCH  20  26
ATOM     21  O   UNL     1      35.158 -22.387 -15.397  0.00  0.00    -0.209 OA
ATOM     22  N   UNL     1      31.451 -24.637 -13.934  0.00  0.00    -0.300 N 
ATOM     23  N   UNL     1      33.452 -24.769 -12.598  0.00  0.00    -0.264 N 
ATOM     24  N   UNL     1      35.355 -23.568 -13.421  0.00  0.00    -0.302 NA
ATOM     25  N   UNL     1      35.437 -24.807 -11.418  0.00  0.00    -0.320 N 
ATOM     26  C   UNL     1      32.234 -23.334 -15.544  0.00  0.00    +0.007 C 
ATOM     27  C   UNL     1      33.273 -23.544 -14.630  0.00  0.00    +0.120 C 
ATOM     28  C   UNL     1      32.747 -24.349 -13.656  0.00  0.00    +0.115 C 
ATOM     29  C   UNL     1      31.121 -24.006 -15.113  0.00  0.00    +0.059 C 
ATOM     30  C   UNL     1      34.657 -23.107 -14.541  0.00  0.00    +0.209 C 
ATOM     31  C   UNL     1      34.774 -24.342 -12.526  0.00  0.00    +0.248 C 
ATOM     32  H   UNL     1      30.850 -25.198 -13.389  0.00  0.00    +0.153 HD
ATOM     33  H   UNL     1      33.057 -25.349 -11.908  0.00  0.00    +0.157 HD
ATOM     34  H   UNL     1      34.970 -25.384 -10.771  0.00  0.00    +0.146 HD
ATOM     35  H   UNL     1      36.379 -24.563 -11.270  0.00  0.00    +0.146 HD
ENDBRANCH  20  26
ENDBRANCH  19  20
ENDBRANCH   1  19
TORSDOF 8
ENDMDL
MODEL 8
REMARK VINA RESULT:     -10.4      3.867     10.994
REMARK  Name = 446560
REMARK  8 active torsions:
REMARK  status: ('A' for Active; 'I' for Inactive)
REMARK    1  A    between atoms: C_1  and  C_19
REMARK    2  A    between atoms: C_2  and  C_9
REMARK    3  A    between atoms: N_8  and  CA_11
REMARK    4  A    between atoms: CA_11  and  CB_12
REMARK    5  A    between atoms: CA_11  and  C_16
REMARK    6  A    between atoms: C_16  and  O_17
REMARK    7  A    between atoms: C_19  and  C_20
REMARK    8  A    between atoms: C_20  and  C_26
REMARK                            x       y       z     vdW  Elec       q    Type
REMARK                         _______ _______ _______ _____ _____    ______ ____
ROOT
ATOM      1  C   UNL     1      32.592 -12.500 -21.135  0.00  0.00    -0.022 C 
ATOM      2  C   UNL     1      34.048 -14.517 -22.330  0.00  0.00    +0.053 C 
ATOM      3  C   UNL     1      32.729 -12.535 -22.524  0.00  0.00    -0.004 C 
ATOM      4  C   UNL     1      33.193 -13.486 -20.351  0.00  0.00    -0.004 C 
ATOM      5  C   UNL     1      33.464 -13.554 -23.128  0.00  0.00    +0.004 C 
ATOM      6  C   UNL     1      33.929 -14.505 -20.956  0.00  0.00    +0.004 C 
ENDROOT
BRANCH   2   9
ATOM      7  O   UNL     1      35.675 -15.317 -23.817  0.00  0.00    -0.270 OA
ATOM      8  N   UNL     1      34.549 -16.890 -22.538  0.00  0.00    -0.293 N 
ATOM      9  C   ACE A   0      34.830 -15.604 -22.973  0.00  0.00    +0.246 C 
ATOM     10  H   UNL     1      33.851 -17.016 -21.855  0.00  0.00    +0.150 HD
BRANCH   8  11
ATOM     11  CA  UNL     1      35.243 -18.049 -23.049  0.00  0.00    +0.171 C 
BRANCH  11  12
ATOM     12  CB  UNL     1      35.703 -18.952 -21.884  0.00  0.00    +0.029 C 
ATOM     13  CG1 UNL     1      34.531 -19.416 -21.013  0.00  0.00    +0.002 C 
ATOM     14  CG2 UNL     1      36.787 -18.309 -21.014  0.00  0.00    +0.002 C 
ENDBRANCH  11  12
BRANCH  11  16
ATOM     15  OXT UNL     1      34.528 -19.950 -24.381  0.00  0.00    -0.248 OA
ATOM     16  C   UNL     1      34.404 -18.763 -24.105  0.00  0.00    +0.332 C 
BRANCH  16  17
ATOM     17  O   UNL     1      33.529 -17.964 -24.765  0.00  0.00    -0.479 OA
ATOM     18  H   UNL     1      33.746 -17.066 -24.927  0.00  0.00    +0.295 HD
ENDBRANCH  16  17
ENDBRANCH  11  16
ENDBRANCH   8  11
ENDBRANCH   2   9
BRANCH   1  19
ATOM     19  C   UNL     1      31.807 -11.409 -20.491  0.00  0.00    +0.031 C 
BRANCH  19  20
ATOM     20  C   UNL     1      31.589 -10.174 -21.388  0.00  0.00    +0.033 C 
BRANCH  20  26
ATOM     21  O   UNL     1      31.094  -7.833 -23.482  0.00  0.00    -0.209 OA
ATOM     22  N   UNL     1      32.420  -7.411 -19.121  0.00  0.00    -0.300 N 
ATOM     23  N   UNL     1      32.142  -5.399 -20.417  0.00  0.00    -0.264 N 
ATOM     24  N   UNL     1      31.446  -5.691 -22.691  0.00  0.00    -0.302 NA
ATOM     25  N   UNL     1      31.837  -3.555 -21.773  0.00  0.00    -0.320 N 
ATOM     26  C   UNL     1      31.869  -8.873 -20.691  0.00  0.00    +0.007 C 
ATOM     27  C   UNL     1      31.771  -7.596 -21.253  0.00  0.00    +0.120 C 
ATOM     28  C   UNL     1      32.118  -6.728 -20.253  0.00  0.00    +0.115 C 
ATOM     29  C   UNL     1      32.266  -8.755 -19.386  0.00  0.00    +0.059 C 
ATOM     30  C   UNL     1      31.408  -7.082 -22.565  0.00  0.00    +0.209 C 
ATOM     31  C   UNL     1      31.792  -4.923 -21.676  0.00  0.00    +0.248 C 
ATOM     32  H   UNL     1      32.699  -7.019 -18.261  0.00  0.00    +0.153 HD
ATOM     33  H   UNL     1      32.395  -4.790 -19.685  0.00  0.00    +0.157 HD
ATOM     34  H   UNL     1      32.099  -3.014 -20.994  0.00  0.00    +0.146 HD
ATOM     35  H   UNL     1      31.606  -3.115 -22.623  0.00  0.00    +0.146 HD
ENDBRANCH  20  26
ENDBRANCH  19  20
ENDBRANCH   1  19
TORSDOF 8
ENDMDL
MODEL 9
REMARK VINA RESULT:     -10.4      3.241      5.627
REMARK  Name = 446560
REMARK  8 active torsions:
REMARK  status: ('A' for Active; 'I' for Inactive)
REMARK    1  A    between atoms: C_1  and  C_19
REMARK    2  A    between atoms: C_2  and  C_9
REMARK    3  A    between atoms: N_8  and  CA_11
REMARK    4  A    between atoms: CA_11  and  CB_12
REMARK    5  A    between atoms: CA_11  and  C_16
REMARK    6  A    between atoms: C_16  and  O_17
REMARK    7  A    between atoms: C_19  and  C_20
REMARK    8  A    between atoms: C_20  and  C_26
REMARK                            x       y       z     vdW  Elec       q    Type
REMARK                         _______ _______ _______ _____ _____    ______ ____
ROOT
ATOM      1  C   UNL     1      34.636 -21.552 -19.346  0.00  0.00    -0.022 C 
ATOM      2  C   UNL     1      35.495 -19.347 -20.764  0.00  0.00    +0.053 C 
ATOM      3  C   UNL     1      33.710 -20.736 -19.997  0.00  0.00    -0.004 C 
ATOM      4  C   UNL     1      35.997 -21.252 -19.411  0.00  0.00    -0.004 C 
ATOM      5  C   UNL     1      34.144 -19.622 -20.714  0.00  0.00    +0.004 C 
ATOM      6  C   UNL     1      36.431 -20.136 -20.128  0.00  0.00    +0.004 C 
ENDROOT
BRANCH   2   9
ATOM      7  O   UNL     1      37.156 -18.037 -21.775  0.00  0.00    -0.270 OA
ATOM      8  N   UNL     1      34.971 -17.277 -21.932  0.00  0.00    -0.293 N 
ATOM      9  C   ACE A   0      35.959 -18.161 -21.528  0.00  0.00    +0.246 C 
ATOM     10  H   UNL     1      34.037 -17.465 -21.683  0.00  0.00    +0.150 HD
BRANCH   8  11
ATOM     11  CA  UNL     1      35.262 -16.090 -22.703  0.00  0.00    +0.171 C 
BRANCH  11  12
ATOM     12  CB  UNL     1      34.724 -16.246 -24.143  0.00  0.00    +0.029 C 
ATOM     13  CG1 UNL     1      33.731 -15.140 -24.512  0.00  0.00    +0.002 C 
ATOM     14  CG2 UNL     1      34.109 -17.622 -24.412  0.00  0.00    +0.002 C 
ENDBRANCH  11  12
BRANCH  11  16
ATOM     15  OXT UNL     1      34.726 -13.730 -22.500  0.00  0.00    -0.248 OA
ATOM     16  C   UNL     1      34.773 -14.839 -21.980  0.00  0.00    +0.332 C 
BRANCH  16  17
ATOM     17  O   UNL     1      34.435 -15.033 -20.681  0.00  0.00    -0.479 OA
ATOM     18  H   UNL     1      34.642 -15.845 -20.261  0.00  0.00    +0.295 HD
ENDBRANCH  16  17
ENDBRANCH  11  16
ENDBRANCH   8  11
ENDBRANCH   2   9
BRANCH   1  19
ATOM     19  C   UNL     1      34.170 -22.743 -18.579  0.00  0.00    +0.031 C 
BRANCH  19  20
ATOM     20  C   UNL     1      32.993 -22.458 -17.624  0.00  0.00    +0.033 C 
BRANCH  20  26
ATOM     21  O   UNL     1      30.111 -22.860 -16.343  0.00  0.00    -0.209 OA
ATOM     22  N   UNL     1      34.151 -23.849 -14.433  0.00  0.00    -0.300 N 
ATOM     23  N   UNL     1      32.157 -24.295 -13.154  0.00  0.00    -0.264 N 
ATOM     24  N   UNL     1      30.078 -23.755 -14.213  0.00  0.00    -0.302 NA
ATOM     25  N   UNL     1      30.168 -24.671 -12.044  0.00  0.00    -0.320 N 
ATOM     26  C   UNL     1      33.181 -23.041 -16.253  0.00  0.00    +0.007 C 
ATOM     27  C   UNL     1      32.167 -23.374 -15.349  0.00  0.00    +0.120 C 
ATOM     28  C   UNL     1      32.808 -23.867 -14.244  0.00  0.00    +0.115 C 
ATOM     29  C   UNL     1      34.394 -23.334 -15.688  0.00  0.00    +0.059 C 
ATOM     30  C   UNL     1      30.714 -23.298 -15.370  0.00  0.00    +0.209 C 
ATOM     31  C   UNL     1      30.770 -24.216 -13.190  0.00  0.00    +0.248 C 
ATOM     32  H   UNL     1      34.833 -24.150 -13.788  0.00  0.00    +0.153 HD
ATOM     33  H   UNL     1      32.636 -24.646 -12.369  0.00  0.00    +0.157 HD
ATOM     34  H   UNL     1      30.717 -25.008 -11.300  0.00  0.00    +0.146 HD
ATOM     35  H   UNL     1      29.187 -24.660 -11.965  0.00  0.00    +0.146 HD
ENDBRANCH  20  26
ENDBRANCH  19  20
ENDBRANCH   1  19
TORSDOF 8
ENDMDL
