MODEL 1
REMARK VINA RESULT:     -11.4      0.000      0.000
REMARK  Name = 44129624
REMARK  6 active torsions:
REMARK  status: ('A' for Active; 'I' for Inactive)
REMARK    1  A    between atoms: C_1  and  O_20
REMARK    2  A    between atoms: C_4  and  C_8
REMARK    3  A    between atoms: C_8  and  C_9
REMARK    4  A    between atoms: C_10  and  C_16
REMARK    5  A    between atoms: O_20  and  C_21
REMARK    6  A    between atoms: C_21  and  C_23
REMARK                            x       y       z     vdW  Elec       q    Type
REMARK                         _______ _______ _______ _____ _____    ______ ____
ROOT
ATOM      1  C   UNL     1      33.523 -21.851 -18.841  0.00  0.00    +0.138 C 
ATOM      2  C   UNL     1      32.994 -20.874 -19.685  0.00  0.00    +0.037 C 
ATOM      3  C   UNL     1      34.903 -21.941 -18.657  0.00  0.00    +0.037 C 
ATOM      4  C   UNL     1      35.224 -20.077 -20.160  0.00  0.00    +0.039 C 
ATOM      5  C   UNL     1      33.844 -19.987 -20.344  0.00  0.00    +0.006 C 
ATOM      6  C   UNL     1      35.753 -21.053 -19.316  0.00  0.00    +0.006 C 
ENDROOT
BRANCH   4   8
ATOM      7  O   UNL     1      37.331 -19.367 -20.886  0.00  0.00    -0.287 OA
ATOM      8  C   UNL     1      36.111 -19.150 -20.845  0.00  0.00    +0.196 C 
BRANCH   8   9
ATOM      9  C   UNL     1      35.611 -17.915 -21.523  0.00  0.00    +0.039 C 
ATOM     10  C   UNL     1      34.676 -15.610 -22.786  0.00  0.00    +0.001 C 
ATOM     11  C   UNL     1      35.437 -17.901 -22.906  0.00  0.00    +0.003 C 
ATOM     12  C   UNL     1      35.318 -16.777 -20.771  0.00  0.00    +0.003 C 
ATOM     13  C   UNL     1      34.970 -16.748 -23.538  0.00  0.00    +0.000 C 
ATOM     14  C   UNL     1      34.851 -15.625 -21.403  0.00  0.00    +0.000 C 
BRANCH  10  16
ATOM     15  S   UNL     1      33.596 -11.950 -23.777  0.00  0.00    -0.086 S 
ATOM     16  C   UNL     1      34.195 -14.425 -23.439  0.00  0.00    +0.007 C 
ATOM     17  C   UNL     1      33.652 -14.326 -24.752  0.00  0.00    +0.007 C 
ATOM     18  C   UNL     1      34.222 -13.206 -22.797  0.00  0.00    +0.035 C 
ATOM     19  C   UNL     1      33.286 -13.035 -25.065  0.00  0.00    +0.035 C 
ENDBRANCH  10  16
ENDBRANCH   8   9
ENDBRANCH   4   8
BRANCH   1  20
ATOM     20  O   UNL     1      32.687 -22.725 -18.192  0.00  0.00    -0.478 OA
BRANCH  20  21
ATOM     21  C   UNL     1      33.040 -23.086 -16.867  0.00  0.00    +0.184 C 
BRANCH  21  23
ATOM     22  N   UNL     1      30.603 -22.684 -16.629  0.00  0.00    +0.388 N 
ATOM     23  C   UNL     1      31.770 -23.398 -16.090  0.00  0.00    -0.017 C 
ATOM     24  C   UNL     1      31.827 -22.926 -14.645  0.00  0.00    -0.020 C 
ATOM     25  C   UNL     1      30.367 -22.765 -14.252  0.00  0.00    -0.025 C 
ATOM     26  C   UNL     1      29.596 -22.764 -15.565  0.00  0.00    -0.082 C 
ATOM     27  H   UNL     1      30.266 -23.137 -17.478  0.00  0.00    -0.084 HD
ATOM     28  H   UNL     1      30.823 -21.721 -16.882  0.00  0.00    -0.084 HD
ENDBRANCH  21  23
ENDBRANCH  20  21
ENDBRANCH   1  20
TORSDOF 6
ENDMDL
MODEL 2
REMARK VINA RESULT:     -10.5      2.149      3.724
REMARK  Name = 44129624
REMARK  6 active torsions:
REMARK  status: ('A' for Active; 'I' for Inactive)
REMARK    1  A    between atoms: C_1  and  O_20
REMARK    2  A    between atoms: C_4  and  C_8
REMARK    3  A    between atoms: C_8  and  C_9
REMARK    4  A    between atoms: C_10  and  C_16
REMARK    5  A    between atoms: O_20  and  C_21
REMARK    6  A    between atoms: C_21  and  C_23
REMARK                            x       y       z     vdW  Elec       q    Type
REMARK                         _______ _______ _______ _____ _____    ______ ____
ROOT
ATOM      1  C   UNL     1      35.751 -19.724 -20.518  0.00  0.00    +0.138 C 
ATOM      2  C   UNL     1      36.652 -18.747 -20.942  0.00  0.00    +0.037 C 
ATOM      3  C   UNL     1      34.522 -19.866 -21.162  0.00  0.00    +0.037 C 
ATOM      4  C   UNL     1      35.095 -18.054 -22.654  0.00  0.00    +0.039 C 
ATOM      5  C   UNL     1      36.324 -17.912 -22.009  0.00  0.00    +0.006 C 
ATOM      6  C   UNL     1      34.195 -19.031 -22.231  0.00  0.00    +0.006 C 
ENDROOT
BRANCH   4   8
ATOM      7  O   UNL     1      34.770 -17.623 -24.929  0.00  0.00    -0.287 OA
ATOM      8  C   UNL     1      34.755 -17.185 -23.769  0.00  0.00    +0.196 C 
BRANCH   8   9
ATOM      9  C   UNL     1      34.378 -15.751 -23.582  0.00  0.00    +0.039 C 
ATOM     10  C   UNL     1      33.673 -13.075 -23.233  0.00  0.00    +0.001 C 
ATOM     11  C   UNL     1      33.787 -15.044 -24.629  0.00  0.00    +0.003 C 
ATOM     12  C   UNL     1      34.618 -15.120 -22.361  0.00  0.00    +0.003 C 
ATOM     13  C   UNL     1      33.434 -13.706 -24.454  0.00  0.00    +0.000 C 
ATOM     14  C   UNL     1      34.265 -13.783 -22.187  0.00  0.00    +0.000 C 
BRANCH  10  16
ATOM     15  S   UNL     1      32.120  -9.639 -22.080  0.00  0.00    -0.086 S 
ATOM     16  C   UNL     1      33.309 -11.698 -23.054  0.00  0.00    +0.007 C 
ATOM     17  C   UNL     1      33.803 -10.576 -23.780  0.00  0.00    +0.007 C 
ATOM     18  C   UNL     1      32.386 -11.330 -22.099  0.00  0.00    +0.035 C 
ATOM     19  C   UNL     1      33.240  -9.394 -23.351  0.00  0.00    +0.035 C 
ENDBRANCH  10  16
ENDBRANCH   8   9
ENDBRANCH   4   8
BRANCH   1  20
ATOM     20  O   UNL     1      36.072 -20.546 -19.467  0.00  0.00    -0.478 OA
BRANCH  20  21
ATOM     21  C   UNL     1      35.373 -21.776 -19.378  0.00  0.00    +0.184 C 
BRANCH  21  23
ATOM     22  N   UNL     1      35.640 -22.423 -16.998  0.00  0.00    +0.388 N 
ATOM     23  C   UNL     1      34.723 -21.872 -18.006  0.00  0.00    -0.017 C 
ATOM     24  C   UNL     1      33.549 -22.839 -17.971  0.00  0.00    -0.020 C 
ATOM     25  C   UNL     1      33.450 -23.246 -16.509  0.00  0.00    -0.025 C 
ATOM     26  C   UNL     1      34.772 -22.820 -15.885  0.00  0.00    -0.082 C 
ATOM     27  H   UNL     1      36.310 -21.716 -16.697  0.00  0.00    -0.084 HD
ATOM     28  H   UNL     1      36.187 -23.205 -17.360  0.00  0.00    -0.084 HD
ENDBRANCH  21  23
ENDBRANCH  20  21
ENDBRANCH   1  20
TORSDOF 6
ENDMDL
MODEL 3
REMARK VINA RESULT:     -10.5      5.135     10.536
REMARK  Name = 44129624
REMARK  6 active torsions:
REMARK  status: ('A' for Active; 'I' for Inactive)
REMARK    1  A    between atoms: C_1  and  O_20
REMARK    2  A    between atoms: C_4  and  C_8
REMARK    3  A    between atoms: C_8  and  C_9
REMARK    4  A    between atoms: C_10  and  C_16
REMARK    5  A    between atoms: O_20  and  C_21
REMARK    6  A    between atoms: C_21  and  C_23
REMARK                            x       y       z     vdW  Elec       q    Type
REMARK                         _______ _______ _______ _____ _____    ______ ____
ROOT
ATOM      1  C   UNL     1      33.470 -12.429 -23.111  0.00  0.00    +0.138 C 
ATOM      2  C   UNL     1      33.920 -13.259 -22.086  0.00  0.00    +0.037 C 
ATOM      3  C   UNL     1      33.407 -12.907 -24.420  0.00  0.00    +0.037 C 
ATOM      4  C   UNL     1      34.244 -15.048 -23.676  0.00  0.00    +0.039 C 
ATOM      5  C   UNL     1      34.307 -14.568 -22.367  0.00  0.00    +0.006 C 
ATOM      6  C   UNL     1      33.794 -14.218 -24.702  0.00  0.00    +0.006 C 
ENDROOT
BRANCH   4   8
ATOM      7  O   UNL     1      34.895 -16.755 -25.135  0.00  0.00    -0.287 OA
ATOM      8  C   UNL     1      34.645 -16.415 -23.969  0.00  0.00    +0.196 C 
BRANCH   8   9
ATOM      9  C   UNL     1      34.775 -17.457 -22.907  0.00  0.00    +0.039 C 
ATOM     10  C   UNL     1      35.019 -19.404 -20.924  0.00  0.00    +0.001 C 
ATOM     11  C   UNL     1      34.114 -18.678 -23.044  0.00  0.00    +0.003 C 
ATOM     12  C   UNL     1      35.557 -17.210 -21.778  0.00  0.00    +0.003 C 
ATOM     13  C   UNL     1      34.237 -19.651 -22.052  0.00  0.00    +0.000 C 
ATOM     14  C   UNL     1      35.679 -18.183 -20.787  0.00  0.00    +0.000 C 
BRANCH  10  16
ATOM     15  S   UNL     1      34.444 -22.237 -18.242  0.00  0.00    -0.086 S 
ATOM     16  C   UNL     1      35.144 -20.407 -19.905  0.00  0.00    +0.007 C 
ATOM     17  C   UNL     1      36.338 -20.819 -19.244  0.00  0.00    +0.007 C 
ATOM     18  C   UNL     1      34.040 -21.098 -19.455  0.00  0.00    +0.035 C 
ATOM     19  C   UNL     1      36.100 -21.809 -18.316  0.00  0.00    +0.035 C 
ENDBRANCH  10  16
ENDBRANCH   8   9
ENDBRANCH   4   8
BRANCH   1  20
ATOM     20  O   UNL     1      33.089 -11.139 -22.835  0.00  0.00    -0.478 OA
BRANCH  20  21
ATOM     21  C   UNL     1      33.619 -10.121 -23.668  0.00  0.00    +0.184 C 
BRANCH  21  23
ATOM     22  N   UNL     1      32.357  -8.026 -23.256  0.00  0.00    +0.388 N 
ATOM     23  C   UNL     1      33.563  -8.798 -22.921  0.00  0.00    -0.017 C 
ATOM     24  C   UNL     1      34.693  -7.854 -23.300  0.00  0.00    -0.020 C 
ATOM     25  C   UNL     1      34.150  -6.474 -22.963  0.00  0.00    -0.025 C 
ATOM     26  C   UNL     1      32.649  -6.664 -22.796  0.00  0.00    -0.082 C 
ATOM     27  H   UNL     1      31.543  -8.403 -22.771  0.00  0.00    -0.084 HD
ATOM     28  H   UNL     1      32.141  -8.060 -24.252  0.00  0.00    -0.084 HD
ENDBRANCH  21  23
ENDBRANCH  20  21
ENDBRANCH   1  20
TORSDOF 6
ENDMDL
MODEL 4
REMARK VINA RESULT:     -10.5      4.368      9.224
REMARK  Name = 44129624
REMARK  6 active torsions:
REMARK  status: ('A' for Active; 'I' for Inactive)
REMARK    1  A    between atoms: C_1  and  O_20
REMARK    2  A    between atoms: C_4  and  C_8
REMARK    3  A    between atoms: C_8  and  C_9
REMARK    4  A    between atoms: C_10  and  C_16
REMARK    5  A    between atoms: O_20  and  C_21
REMARK    6  A    between atoms: C_21  and  C_23
REMARK                            x       y       z     vdW  Elec       q    Type
REMARK                         _______ _______ _______ _____ _____    ______ ____
ROOT
ATOM      1  C   UNL     1      34.083 -15.127 -23.425  0.00  0.00    +0.138 C 
ATOM      2  C   UNL     1      34.627 -15.165 -22.141  0.00  0.00    +0.037 C 
ATOM      3  C   UNL     1      34.205 -16.232 -24.267  0.00  0.00    +0.037 C 
ATOM      4  C   UNL     1      35.416 -17.412 -22.541  0.00  0.00    +0.039 C 
ATOM      5  C   UNL     1      35.293 -16.306 -21.699  0.00  0.00    +0.006 C 
ATOM      6  C   UNL     1      34.872 -17.375 -23.824  0.00  0.00    +0.006 C 
ENDROOT
BRANCH   4   8
ATOM      7  O   UNL     1      37.203 -18.920 -22.569  0.00  0.00    -0.287 OA
ATOM      8  C   UNL     1      36.108 -18.604 -22.079  0.00  0.00    +0.196 C 
BRANCH   8   9
ATOM      9  C   UNL     1      35.552 -19.492 -21.013  0.00  0.00    +0.039 C 
ATOM     10  C   UNL     1      34.515 -21.150 -19.024  0.00  0.00    +0.001 C 
ATOM     11  C   UNL     1      34.173 -19.661 -20.896  0.00  0.00    +0.003 C 
ATOM     12  C   UNL     1      36.413 -20.151 -20.135  0.00  0.00    +0.003 C 
ATOM     13  C   UNL     1      33.654 -20.490 -19.901  0.00  0.00    +0.000 C 
ATOM     14  C   UNL     1      35.894 -20.980 -19.140  0.00  0.00    +0.000 C 
BRANCH  10  16
ATOM     15  S   UNL     1      33.931 -23.545 -15.946  0.00  0.00    -0.086 S 
ATOM     16  C   UNL     1      33.979 -22.003 -18.001  0.00  0.00    +0.007 C 
ATOM     17  C   UNL     1      32.616 -22.373 -17.816  0.00  0.00    +0.007 C 
ATOM     18  C   UNL     1      34.802 -22.571 -17.053  0.00  0.00    +0.035 C 
ATOM     19  C   UNL     1      32.448 -23.209 -16.734  0.00  0.00    +0.035 C 
ENDBRANCH  10  16
ENDBRANCH   8   9
ENDBRANCH   4   8
BRANCH   1  20
ATOM     20  O   UNL     1      33.427 -14.003 -23.861  0.00  0.00    -0.478 OA
BRANCH  20  21
ATOM     21  C   UNL     1      33.820 -12.768 -23.287  0.00  0.00    +0.184 C 
BRANCH  21  23
ATOM     22  N   UNL     1      32.779 -10.617 -22.621  0.00  0.00    +0.388 N 
ATOM     23  C   UNL     1      32.589 -12.071 -22.730  0.00  0.00    -0.017 C 
ATOM     24  C   UNL     1      32.266 -12.486 -21.302  0.00  0.00    -0.020 C 
ATOM     25  C   UNL     1      31.465 -11.317 -20.751  0.00  0.00    -0.025 C 
ATOM     26  C   UNL     1      31.709 -10.170 -21.722  0.00  0.00    -0.082 C 
ATOM     27  H   UNL     1      32.690 -10.174 -23.535  0.00  0.00    -0.084 HD
ATOM     28  H   UNL     1      33.705 -10.374 -22.270  0.00  0.00    -0.084 HD
ENDBRANCH  21  23
ENDBRANCH  20  21
ENDBRANCH   1  20
TORSDOF 6
ENDMDL
MODEL 5
REMARK VINA RESULT:     -10.4      4.417      6.273
REMARK  Name = 44129624
REMARK  6 active torsions:
REMARK  status: ('A' for Active; 'I' for Inactive)
REMARK    1  A    between atoms: C_1  and  O_20
REMARK    2  A    between atoms: C_4  and  C_8
REMARK    3  A    between atoms: C_8  and  C_9
REMARK    4  A    between atoms: C_10  and  C_16
REMARK    5  A    between atoms: O_20  and  C_21
REMARK    6  A    between atoms: C_21  and  C_23
REMARK                            x       y       z     vdW  Elec       q    Type
REMARK                         _______ _______ _______ _____ _____    ______ ____
ROOT
ATOM      1  C   UNL     1      36.751 -22.873 -14.260  0.00  0.00    +0.138 C 
ATOM      2  C   UNL     1      35.477 -23.435 -14.178  0.00  0.00    +0.037 C 
ATOM      3  C   UNL     1      37.173 -22.272 -15.447  0.00  0.00    +0.037 C 
ATOM      4  C   UNL     1      35.047 -22.797 -16.468  0.00  0.00    +0.039 C 
ATOM      5  C   UNL     1      34.626 -23.398 -15.281  0.00  0.00    +0.006 C 
ATOM      6  C   UNL     1      36.321 -22.235 -16.550  0.00  0.00    +0.006 C 
ENDROOT
BRANCH   4   8
ATOM      7  O   UNL     1      33.241 -23.583 -17.727  0.00  0.00    -0.287 OA
ATOM      8  C   UNL     1      34.158 -22.756 -17.617  0.00  0.00    +0.196 C 
BRANCH   8   9
ATOM      9  C   UNL     1      34.297 -21.738 -18.703  0.00  0.00    +0.039 C 
ATOM     10  C   UNL     1      34.557 -19.837 -20.728  0.00  0.00    +0.001 C 
ATOM     11  C   UNL     1      33.160 -21.148 -19.255  0.00  0.00    +0.003 C 
ATOM     12  C   UNL     1      35.564 -21.378 -19.163  0.00  0.00    +0.003 C 
ATOM     13  C   UNL     1      33.291 -20.198 -20.268  0.00  0.00    +0.000 C 
ATOM     14  C   UNL     1      35.694 -20.428 -20.175  0.00  0.00    +0.000 C 
BRANCH  10  16
ATOM     15  S   UNL     1      35.322 -16.647 -22.916  0.00  0.00    -0.086 S 
ATOM     16  C   UNL     1      34.690 -18.858 -21.769  0.00  0.00    +0.007 C 
ATOM     17  C   UNL     1      34.261 -18.979 -23.123  0.00  0.00    +0.007 C 
ATOM     18  C   UNL     1      35.283 -17.639 -21.521  0.00  0.00    +0.035 C 
ATOM     19  C   UNL     1      34.544 -17.848 -23.858  0.00  0.00    +0.035 C 
ENDBRANCH  10  16
ENDBRANCH   8   9
ENDBRANCH   4   8
BRANCH   1  20
ATOM     20  O   UNL     1      37.590 -22.910 -13.175  0.00  0.00    -0.478 OA
BRANCH  20  21
ATOM     21  C   UNL     1      37.931 -24.191 -12.671  0.00  0.00    +0.184 C 
BRANCH  21  23
ATOM     22  N   UNL     1      38.024 -26.268 -14.024  0.00  0.00    +0.388 N 
ATOM     23  C   UNL     1      38.657 -24.967 -13.759  0.00  0.00    -0.017 C 
ATOM     24  C   UNL     1      40.077 -25.348 -13.369  0.00  0.00    -0.020 C 
ATOM     25  C   UNL     1      40.386 -26.557 -14.239  0.00  0.00    -0.025 C 
ATOM     26  C   UNL     1      39.037 -27.029 -14.762  0.00  0.00    -0.082 C 
ATOM     27  H   UNL     1      37.182 -26.149 -14.588  0.00  0.00    -0.084 HD
ATOM     28  H   UNL     1      37.735 -26.738 -13.167  0.00  0.00    -0.084 HD
ENDBRANCH  21  23
ENDBRANCH  20  21
ENDBRANCH   1  20
TORSDOF 6
ENDMDL
MODEL 6
REMARK VINA RESULT:     -10.4      2.793      4.107
REMARK  Name = 44129624
REMARK  6 active torsions:
REMARK  status: ('A' for Active; 'I' for Inactive)
REMARK    1  A    between atoms: C_1  and  O_20
REMARK    2  A    between atoms: C_4  and  C_8
REMARK    3  A    between atoms: C_8  and  C_9
REMARK    4  A    between atoms: C_10  and  C_16
REMARK    5  A    between atoms: O_20  and  C_21
REMARK    6  A    between atoms: C_21  and  C_23
REMARK                            x       y       z     vdW  Elec       q    Type
REMARK                         _______ _______ _______ _____ _____    ______ ____
ROOT
ATOM      1  C   UNL     1      36.096 -19.699 -20.324  0.00  0.00    +0.138 C 
ATOM      2  C   UNL     1      34.801 -19.847 -20.819  0.00  0.00    +0.037 C 
ATOM      3  C   UNL     1      36.962 -18.769 -20.901  0.00  0.00    +0.037 C 
ATOM      4  C   UNL     1      35.236 -18.137 -22.468  0.00  0.00    +0.039 C 
ATOM      5  C   UNL     1      34.370 -19.067 -21.891  0.00  0.00    +0.006 C 
ATOM      6  C   UNL     1      36.531 -17.988 -21.973  0.00  0.00    +0.006 C 
ENDROOT
BRANCH   4   8
ATOM      7  O   UNL     1      34.704 -17.808 -24.722  0.00  0.00    -0.287 OA
ATOM      8  C   UNL     1      34.786 -17.321 -23.585  0.00  0.00    +0.196 C 
BRANCH   8   9
ATOM      9  C   UNL     1      34.405 -15.884 -23.425  0.00  0.00    +0.039 C 
ATOM     10  C   UNL     1      33.696 -13.203 -23.129  0.00  0.00    +0.001 C 
ATOM     11  C   UNL     1      34.643 -15.230 -22.217  0.00  0.00    +0.003 C 
ATOM     12  C   UNL     1      33.812 -15.198 -24.486  0.00  0.00    +0.003 C 
ATOM     13  C   UNL     1      34.288 -13.889 -22.069  0.00  0.00    +0.000 C 
ATOM     14  C   UNL     1      33.457 -13.858 -24.337  0.00  0.00    +0.000 C 
BRANCH  10  16
ATOM     15  S   UNL     1      33.336  -9.283 -23.368  0.00  0.00    -0.086 S 
ATOM     16  C   UNL     1      33.332 -11.822 -22.975  0.00  0.00    +0.007 C 
ATOM     17  C   UNL     1      32.362 -11.283 -22.081  0.00  0.00    +0.007 C 
ATOM     18  C   UNL     1      33.937 -10.844 -23.734  0.00  0.00    +0.035 C 
ATOM     19  C   UNL     1      32.263  -9.913 -22.192  0.00  0.00    +0.035 C 
ENDBRANCH  10  16
ENDBRANCH   8   9
ENDBRANCH   4   8
BRANCH   1  20
ATOM     20  O   UNL     1      36.521 -20.468 -19.269  0.00  0.00    -0.478 OA
BRANCH  20  21
ATOM     21  C   UNL     1      35.617 -21.447 -18.784  0.00  0.00    +0.184 C 
BRANCH  21  23
ATOM     22  N   UNL     1      35.239 -22.420 -16.534  0.00  0.00    +0.388 N 
ATOM     23  C   UNL     1      36.237 -22.130 -17.575  0.00  0.00    -0.017 C 
ATOM     24  C   UNL     1      37.248 -21.255 -16.851  0.00  0.00    -0.020 C 
ATOM     25  C   UNL     1      37.274 -21.815 -15.437  0.00  0.00    -0.025 C 
ATOM     26  C   UNL     1      36.030 -22.685 -15.327  0.00  0.00    -0.082 C 
ATOM     27  H   UNL     1      34.684 -23.237 -16.787  0.00  0.00    -0.084 HD
ATOM     28  H   UNL     1      34.582 -21.651 -16.405  0.00  0.00    -0.084 HD
ENDBRANCH  21  23
ENDBRANCH  20  21
ENDBRANCH   1  20
TORSDOF 6
ENDMDL
MODEL 7
REMARK VINA RESULT:     -10.3      3.537      6.368
REMARK  Name = 44129624
REMARK  6 active torsions:
REMARK  status: ('A' for Active; 'I' for Inactive)
REMARK    1  A    between atoms: C_1  and  O_20
REMARK    2  A    between atoms: C_4  and  C_8
REMARK    3  A    between atoms: C_8  and  C_9
REMARK    4  A    between atoms: C_10  and  C_16
REMARK    5  A    between atoms: O_20  and  C_21
REMARK    6  A    between atoms: C_21  and  C_23
REMARK                            x       y       z     vdW  Elec       q    Type
REMARK                         _______ _______ _______ _____ _____    ______ ____
ROOT
ATOM      1  C   UNL     1      35.159 -17.165 -22.292  0.00  0.00    +0.138 C 
ATOM      2  C   UNL     1      35.017 -15.917 -21.688  0.00  0.00    +0.037 C 
ATOM      3  C   UNL     1      34.813 -17.335 -23.633  0.00  0.00    +0.037 C 
ATOM      4  C   UNL     1      34.184 -15.006 -23.764  0.00  0.00    +0.039 C 
ATOM      5  C   UNL     1      34.530 -14.837 -22.423  0.00  0.00    +0.006 C 
ATOM      6  C   UNL     1      34.326 -16.255 -24.369  0.00  0.00    +0.006 C 
ENDROOT
BRANCH   4   8
ATOM      7  O   UNL     1      33.378 -14.022 -25.727  0.00  0.00    -0.287 OA
ATOM      8  C   UNL     1      33.679 -13.880 -24.532  0.00  0.00    +0.196 C 
BRANCH   8   9
ATOM      9  C   UNL     1      33.498 -12.521 -23.937  0.00  0.00    +0.039 C 
ATOM     10  C   UNL     1      33.163  -9.984 -22.827  0.00  0.00    +0.001 C 
ATOM     11  C   UNL     1      32.682 -12.352 -22.819  0.00  0.00    +0.003 C 
ATOM     12  C   UNL     1      34.146 -11.421 -24.501  0.00  0.00    +0.003 C 
ATOM     13  C   UNL     1      32.515 -11.083 -22.264  0.00  0.00    +0.000 C 
ATOM     14  C   UNL     1      33.978 -10.153 -23.946  0.00  0.00    +0.000 C 
BRANCH  10  16
ATOM     15  S   UNL     1      32.228  -6.871 -20.594  0.00  0.00    -0.086 S 
ATOM     16  C   UNL     1      32.989  -8.679 -22.253  0.00  0.00    +0.007 C 
ATOM     17  C   UNL     1      33.465  -7.441 -22.773  0.00  0.00    +0.007 C 
ATOM     18  C   UNL     1      32.300  -8.514 -21.072  0.00  0.00    +0.035 C 
ATOM     19  C   UNL     1      33.121  -6.376 -21.969  0.00  0.00    +0.035 C 
ENDBRANCH  10  16
ENDBRANCH   8   9
ENDBRANCH   4   8
BRANCH   1  20
ATOM     20  O   UNL     1      35.638 -18.229 -21.568  0.00  0.00    -0.478 OA
BRANCH  20  21
ATOM     21  C   UNL     1      34.919 -19.447 -21.667  0.00  0.00    +0.184 C 
BRANCH  21  23
ATOM     22  N   UNL     1      35.443 -21.121 -19.913  0.00  0.00    +0.388 N 
ATOM     23  C   UNL     1      34.619 -19.955 -20.265  0.00  0.00    -0.017 C 
ATOM     24  C   UNL     1      33.199 -20.475 -20.113  0.00  0.00    -0.020 C 
ATOM     25  C   UNL     1      33.283 -21.440 -18.939  0.00  0.00    -0.025 C 
ATOM     26  C   UNL     1      34.769 -21.713 -18.752  0.00  0.00    -0.082 C 
ATOM     27  H   UNL     1      36.390 -20.832 -19.671  0.00  0.00    -0.084 HD
ATOM     28  H   UNL     1      35.529 -21.780 -20.686  0.00  0.00    -0.084 HD
ENDBRANCH  21  23
ENDBRANCH  20  21
ENDBRANCH   1  20
TORSDOF 6
ENDMDL
MODEL 8
REMARK VINA RESULT:     -10.2      1.323      2.031
REMARK  Name = 44129624
REMARK  6 active torsions:
REMARK  status: ('A' for Active; 'I' for Inactive)
REMARK    1  A    between atoms: C_1  and  O_20
REMARK    2  A    between atoms: C_4  and  C_8
REMARK    3  A    between atoms: C_8  and  C_9
REMARK    4  A    between atoms: C_10  and  C_16
REMARK    5  A    between atoms: O_20  and  C_21
REMARK    6  A    between atoms: C_21  and  C_23
REMARK                            x       y       z     vdW  Elec       q    Type
REMARK                         _______ _______ _______ _____ _____    ______ ____
ROOT
ATOM      1  C   UNL     1      34.824 -21.260 -19.033  0.00  0.00    +0.138 C 
ATOM      2  C   UNL     1      33.851 -20.674 -19.841  0.00  0.00    +0.037 C 
ATOM      3  C   UNL     1      36.164 -20.903 -19.184  0.00  0.00    +0.037 C 
ATOM      4  C   UNL     1      35.556 -19.372 -20.951  0.00  0.00    +0.039 C 
ATOM      5  C   UNL     1      34.216 -19.730 -20.800  0.00  0.00    +0.006 C 
ATOM      6  C   UNL     1      36.530 -19.959 -20.143  0.00  0.00    +0.006 C 
ENDROOT
BRANCH   4   8
ATOM      7  O   UNL     1      36.816 -18.649 -22.784  0.00  0.00    -0.287 OA
ATOM      8  C   UNL     1      35.937 -18.386 -21.950  0.00  0.00    +0.196 C 
BRANCH   8   9
ATOM      9  C   UNL     1      35.304 -17.034 -22.023  0.00  0.00    +0.039 C 
ATOM     10  C   UNL     1      34.123 -14.511 -22.161  0.00  0.00    +0.001 C 
ATOM     11  C   UNL     1      35.018 -16.334 -20.852  0.00  0.00    +0.003 C 
ATOM     12  C   UNL     1      34.998 -16.474 -23.264  0.00  0.00    +0.003 C 
ATOM     13  C   UNL     1      34.427 -15.072 -20.921  0.00  0.00    +0.000 C 
ATOM     14  C   UNL     1      34.407 -15.213 -23.333  0.00  0.00    +0.000 C 
BRANCH  10  16
ATOM     15  S   UNL     1      31.975 -11.249 -21.617  0.00  0.00    -0.086 S 
ATOM     16  C   UNL     1      33.515 -13.212 -22.230  0.00  0.00    +0.007 C 
ATOM     17  C   UNL     1      33.799 -12.178 -23.169  0.00  0.00    +0.007 C 
ATOM     18  C   UNL     1      32.542 -12.839 -21.330  0.00  0.00    +0.035 C 
ATOM     19  C   UNL     1      33.032 -11.055 -22.950  0.00  0.00    +0.035 C 
ENDBRANCH  10  16
ENDBRANCH   8   9
ENDBRANCH   4   8
BRANCH   1  20
ATOM     20  O   UNL     1      34.465 -22.190 -18.089  0.00  0.00    -0.478 OA
BRANCH  20  21
ATOM     21  C   UNL     1      33.101 -22.573 -18.053  0.00  0.00    +0.184 C 
BRANCH  21  23
ATOM     22  N   UNL     1      31.656 -22.832 -16.053  0.00  0.00    +0.388 N 
ATOM     23  C   UNL     1      32.840 -23.337 -16.764  0.00  0.00    -0.017 C 
ATOM     24  C   UNL     1      33.953 -23.175 -15.741  0.00  0.00    -0.020 C 
ATOM     25  C   UNL     1      33.275 -23.457 -14.410  0.00  0.00    -0.025 C 
ATOM     26  C   UNL     1      31.782 -23.371 -14.695  0.00  0.00    -0.082 C 
ATOM     27  H   UNL     1      30.801 -23.167 -16.496  0.00  0.00    -0.084 HD
ATOM     28  H   UNL     1      31.607 -21.813 -16.062  0.00  0.00    -0.084 HD
ENDBRANCH  21  23
ENDBRANCH  20  21
ENDBRANCH   1  20
TORSDOF 6
ENDMDL
MODEL 9
REMARK VINA RESULT:     -10.1      4.762     10.414
REMARK  Name = 44129624
REMARK  6 active torsions:
REMARK  status: ('A' for Active; 'I' for Inactive)
REMARK    1  A    between atoms: C_1  and  O_20
REMARK    2  A    between atoms: C_4  and  C_8
REMARK    3  A    between atoms: C_8  and  C_9
REMARK    4  A    between atoms: C_10  and  C_16
REMARK    5  A    between atoms: O_20  and  C_21
REMARK    6  A    between atoms: C_21  and  C_23
REMARK                            x       y       z     vdW  Elec       q    Type
REMARK                         _______ _______ _______ _____ _____    ______ ____
ROOT
ATOM      1  C   UNL     1      34.991 -20.065 -20.578  0.00  0.00    +0.138 C 
ATOM      2  C   UNL     1      35.766 -20.867 -19.742  0.00  0.00    +0.037 C 
ATOM      3  C   UNL     1      33.602 -20.055 -20.443  0.00  0.00    +0.037 C 
ATOM      4  C   UNL     1      33.767 -21.648 -18.635  0.00  0.00    +0.039 C 
ATOM      5  C   UNL     1      35.155 -21.658 -18.770  0.00  0.00    +0.006 C 
ATOM      6  C   UNL     1      32.991 -20.846 -19.471  0.00  0.00    +0.006 C 
ENDROOT
BRANCH   4   8
ATOM      7  O   UNL     1      31.962 -22.860 -17.773  0.00  0.00    -0.287 OA
ATOM      8  C   UNL     1      33.129 -22.472 -17.620  0.00  0.00    +0.196 C 
BRANCH   8   9
ATOM      9  C   UNL     1      33.831 -22.885 -16.367  0.00  0.00    +0.039 C 
ATOM     10  C   UNL     1      35.140 -23.657 -14.027  0.00  0.00    +0.001 C 
ATOM     11  C   UNL     1      33.096 -23.367 -15.284  0.00  0.00    +0.003 C 
ATOM     12  C   UNL     1      35.220 -22.787 -16.280  0.00  0.00    +0.003 C 
ATOM     13  C   UNL     1      33.751 -23.753 -14.114  0.00  0.00    +0.000 C 
ATOM     14  C   UNL     1      35.874 -23.173 -15.110  0.00  0.00    +0.000 C 
BRANCH  10  16
ATOM     15  S   UNL     1      37.717 -24.839 -11.287  0.00  0.00    -0.086 S 
ATOM     16  C   UNL     1      35.812 -24.055 -12.823  0.00  0.00    +0.007 C 
ATOM     17  C   UNL     1      35.252 -24.151 -11.517  0.00  0.00    +0.007 C 
ATOM     18  C   UNL     1      37.146 -24.402 -12.841  0.00  0.00    +0.035 C 
ATOM     19  C   UNL     1      36.179 -24.565 -10.585  0.00  0.00    +0.035 C 
ENDBRANCH  10  16
ENDBRANCH   8   9
ENDBRANCH   4   8
BRANCH   1  20
ATOM     20  O   UNL     1      35.592 -19.286 -21.535  0.00  0.00    -0.478 OA
BRANCH  20  21
ATOM     21  C   UNL     1      34.875 -19.086 -22.742  0.00  0.00    +0.184 C 
BRANCH  21  23
ATOM     22  N   UNL     1      35.054 -16.665 -22.230  0.00  0.00    +0.388 N 
ATOM     23  C   UNL     1      35.186 -17.695 -23.272  0.00  0.00    -0.017 C 
ATOM     24  C   UNL     1      34.207 -17.233 -24.340  0.00  0.00    -0.020 C 
ATOM     25  C   UNL     1      34.292 -15.715 -24.286  0.00  0.00    -0.025 C 
ATOM     26  C   UNL     1      34.984 -15.399 -22.968  0.00  0.00    -0.082 C 
ATOM     27  H   UNL     1      35.864 -16.676 -21.610  0.00  0.00    -0.084 HD
ATOM     28  H   UNL     1      34.236 -16.815 -21.640  0.00  0.00    -0.084 HD
ENDBRANCH  21  23
ENDBRANCH  20  21
ENDBRANCH   1  20
TORSDOF 6
ENDMDL
