MODEL 1
REMARK VINA RESULT:     -12.3      0.000      0.000
REMARK  Name = 657077
REMARK  7 active torsions:
REMARK  status: ('A' for Active; 'I' for Inactive)
REMARK    1  A    between atoms: C_3  and  C_23
REMARK    2  A    between atoms: C_8  and  C_10
REMARK    3  A    between atoms: C_12  and  C_15
REMARK    4  A    between atoms: C_15  and  C_16
REMARK    5  A    between atoms: C_16  and  C_17
REMARK    6  A    between atoms: C_26  and  C_29
REMARK    7  A    between atoms: C_29  and  N_30
REMARK                            x       y       z     vdW  Elec       q    Type
REMARK                         _______ _______ _______ _____ _____    ______ ____
ROOT
ATOM      1  O   UNL     1      33.462 -16.361 -25.058  0.00  0.00    -0.270 OA
ATOM      2  N   UNL     1      34.933 -17.036 -23.370  0.00  0.00    -0.276 N 
ATOM      3  C   UNL     1      35.485 -19.157 -21.480  0.00  0.00    +0.026 C 
ATOM      4  C   UNL     1      35.381 -17.684 -21.038  0.00  0.00    +0.026 C 
ATOM      5  C   UNL     1      34.656 -19.400 -22.756  0.00  0.00    +0.026 C 
ATOM      6  C   UNL     1      35.749 -16.743 -22.185  0.00  0.00    +0.094 C 
ATOM      7  C   UNL     1      35.038 -18.412 -23.858  0.00  0.00    +0.094 C 
ATOM      8  C   UNL     1      34.125 -16.121 -24.049  0.00  0.00    +0.251 C 
ENDROOT
BRANCH   8  10
ATOM      9  N   UNL     1      33.994 -13.282 -21.612  0.00  0.00    -0.242 NA
ATOM     10  C   UNL     1      34.035 -14.754 -23.523  0.00  0.00    +0.072 C 
ATOM     11  C   UNL     1      33.909 -13.670 -24.379  0.00  0.00    +0.003 C 
ATOM     12  C   UNL     1      33.825 -12.386 -23.852  0.00  0.00    -0.003 C 
ATOM     13  C   UNL     1      34.072 -14.515 -22.163  0.00  0.00    +0.103 C 
ATOM     14  C   UNL     1      33.873 -12.247 -22.473  0.00  0.00    +0.095 C 
BRANCH  12  15
ATOM     15  C   UNL     1      33.691 -11.199 -24.738  0.00  0.00    +0.033 C 
BRANCH  15  16
ATOM     16  C   UNL     1      34.700 -10.070 -24.438  0.00  0.00    +0.031 C 
BRANCH  16  17
ATOM     17  C   UNL     1      34.096  -8.928 -23.655  0.00  0.00    -0.022 C 
ATOM     18  C   UNL     1      32.742  -8.948 -23.360  0.00  0.00    -0.004 C 
ATOM     19  C   UNL     1      34.907  -7.882 -23.247  0.00  0.00    -0.004 C 
ATOM     20  C   UNL     1      32.185  -7.894 -22.637  0.00  0.00    -0.000 C 
ATOM     21  C   UNL     1      34.350  -6.828 -22.523  0.00  0.00    -0.000 C 
ATOM     22  C   UNL     1      32.988  -6.833 -22.219  0.00  0.00    -0.000 C 
ENDBRANCH  16  17
ENDBRANCH  15  16
ENDBRANCH  12  15
ENDBRANCH   8  10
BRANCH   3  23
ATOM     23  C   UNL     1      35.108 -20.114 -20.365  0.00  0.00    -0.023 C 
ATOM     24  C   UNL     1      36.084 -20.571 -19.482  0.00  0.00    -0.011 C 
ATOM     25  C   UNL     1      33.785 -20.531 -20.226  0.00  0.00    -0.004 C 
ATOM     26  C   UNL     1      35.737 -21.449 -18.457  0.00  0.00    -0.045 C 
ATOM     27  C   UNL     1      33.438 -21.410 -19.199  0.00  0.00    -0.001 C 
ATOM     28  C   UNL     1      34.414 -21.869 -18.315  0.00  0.00    -0.006 C 
BRANCH  26  29
ATOM     29  C   UNL     1      36.780 -21.941 -17.509  0.00  0.00    -0.059 C 
BRANCH  29  30
ATOM     30  N   UNL     1      37.396 -20.853 -16.746  0.00  0.00    +0.383 N 
ATOM     31  H   UNL     1      38.159 -20.448 -17.288  0.00  0.00    -0.089 HD
ATOM     32  H   UNL     1      37.759 -21.218 -15.866  0.00  0.00    -0.089 HD
ATOM     33  H   UNL     1      36.697 -20.135 -16.554  0.00  0.00    -0.089 HD
ENDBRANCH  29  30
ENDBRANCH  26  29
ENDBRANCH   3  23
TORSDOF 7
ENDMDL
MODEL 2
REMARK VINA RESULT:     -11.4      1.701     10.476
REMARK  Name = 657077
REMARK  7 active torsions:
REMARK  status: ('A' for Active; 'I' for Inactive)
REMARK    1  A    between atoms: C_3  and  C_23
REMARK    2  A    between atoms: C_8  and  C_10
REMARK    3  A    between atoms: C_12  and  C_15
REMARK    4  A    between atoms: C_15  and  C_16
REMARK    5  A    between atoms: C_16  and  C_17
REMARK    6  A    between atoms: C_26  and  C_29
REMARK    7  A    between atoms: C_29  and  N_30
REMARK                            x       y       z     vdW  Elec       q    Type
REMARK                         _______ _______ _______ _____ _____    ______ ____
ROOT
ATOM      1  O   UNL     1      34.873 -15.420 -25.134  0.00  0.00    -0.270 OA
ATOM      2  N   UNL     1      33.585 -13.890 -23.922  0.00  0.00    -0.276 N 
ATOM      3  C   UNL     1      33.090 -11.066 -23.530  0.00  0.00    +0.026 C 
ATOM      4  C   UNL     1      33.395 -12.008 -22.348  0.00  0.00    +0.026 C 
ATOM      5  C   UNL     1      33.712 -11.610 -24.830  0.00  0.00    +0.026 C 
ATOM      6  C   UNL     1      32.969 -13.441 -22.668  0.00  0.00    +0.094 C 
ATOM      7  C   UNL     1      33.283 -13.054 -25.085  0.00  0.00    +0.094 C 
ATOM      8  C   UNL     1      34.378 -15.029 -24.078  0.00  0.00    +0.251 C 
ENDROOT
BRANCH   8  10
ATOM      9  N   UNL     1      34.986 -15.941 -20.498  0.00  0.00    -0.242 NA
ATOM     10  C   UNL     1      34.671 -15.836 -22.887  0.00  0.00    +0.072 C 
ATOM     11  C   UNL     1      34.903 -17.200 -22.992  0.00  0.00    +0.003 C 
ATOM     12  C   UNL     1      35.179 -17.939 -21.846  0.00  0.00    -0.003 C 
ATOM     13  C   UNL     1      34.722 -15.256 -21.634  0.00  0.00    +0.103 C 
ATOM     14  C   UNL     1      35.207 -17.267 -20.634  0.00  0.00    +0.095 C 
BRANCH  12  15
ATOM     15  C   UNL     1      35.432 -19.402 -21.919  0.00  0.00    +0.033 C 
BRANCH  15  16
ATOM     16  C   UNL     1      36.031 -20.004 -20.631  0.00  0.00    +0.031 C 
BRANCH  16  17
ATOM     17  C   UNL     1      35.012 -20.730 -19.785  0.00  0.00    -0.022 C 
ATOM     18  C   UNL     1      35.444 -21.624 -18.818  0.00  0.00    -0.004 C 
ATOM     19  C   UNL     1      33.664 -20.488 -19.992  0.00  0.00    -0.004 C 
ATOM     20  C   UNL     1      34.503 -22.294 -18.038  0.00  0.00    -0.000 C 
ATOM     21  C   UNL     1      32.722 -21.158 -19.210  0.00  0.00    -0.000 C 
ATOM     22  C   UNL     1      33.142 -22.062 -18.233  0.00  0.00    -0.000 C 
ENDBRANCH  16  17
ENDBRANCH  15  16
ENDBRANCH  12  15
ENDBRANCH   8  10
BRANCH   3  23
ATOM     23  C   UNL     1      33.520  -9.640 -23.245  0.00  0.00    -0.023 C 
ATOM     24  C   UNL     1      32.937  -8.935 -22.194  0.00  0.00    -0.011 C 
ATOM     25  C   UNL     1      34.498  -9.039 -24.035  0.00  0.00    -0.004 C 
ATOM     26  C   UNL     1      33.333  -7.624 -21.932  0.00  0.00    -0.045 C 
ATOM     27  C   UNL     1      34.894  -7.727 -23.773  0.00  0.00    -0.001 C 
ATOM     28  C   UNL     1      34.312  -7.020 -22.721  0.00  0.00    -0.006 C 
BRANCH  26  29
ATOM     29  C   UNL     1      32.711  -6.867 -20.806  0.00  0.00    -0.059 C 
BRANCH  29  30
ATOM     30  N   UNL     1      33.096  -7.399 -19.497  0.00  0.00    +0.383 N 
ATOM     31  H   UNL     1      34.110  -7.503 -19.458  0.00  0.00    -0.089 HD
ATOM     32  H   UNL     1      32.656  -8.308 -19.357  0.00  0.00    -0.089 HD
ATOM     33  H   UNL     1      32.792  -6.756 -18.766  0.00  0.00    -0.089 HD
ENDBRANCH  29  30
ENDBRANCH  26  29
ENDBRANCH   3  23
TORSDOF 7
ENDMDL
MODEL 3
REMARK VINA RESULT:     -11.3      1.366      2.028
REMARK  Name = 657077
REMARK  7 active torsions:
REMARK  status: ('A' for Active; 'I' for Inactive)
REMARK    1  A    between atoms: C_3  and  C_23
REMARK    2  A    between atoms: C_8  and  C_10
REMARK    3  A    between atoms: C_12  and  C_15
REMARK    4  A    between atoms: C_15  and  C_16
REMARK    5  A    between atoms: C_16  and  C_17
REMARK    6  A    between atoms: C_26  and  C_29
REMARK    7  A    between atoms: C_29  and  N_30
REMARK                            x       y       z     vdW  Elec       q    Type
REMARK                         _______ _______ _______ _____ _____    ______ ____
ROOT
ATOM      1  O   UNL     1      33.300 -14.615 -25.178  0.00  0.00    -0.270 OA
ATOM      2  N   UNL     1      34.604 -15.384 -23.396  0.00  0.00    -0.276 N 
ATOM      3  C   UNL     1      35.282 -17.741 -21.860  0.00  0.00    +0.026 C 
ATOM      4  C   UNL     1      34.816 -16.437 -21.182  0.00  0.00    +0.026 C 
ATOM      5  C   UNL     1      34.722 -17.837 -23.292  0.00  0.00    +0.026 C 
ATOM      6  C   UNL     1      35.154 -15.222 -22.044  0.00  0.00    +0.094 C 
ATOM      7  C   UNL     1      35.058 -16.584 -24.100  0.00  0.00    +0.094 C 
ATOM      8  C   UNL     1      33.740 -14.492 -24.036  0.00  0.00    +0.251 C 
ENDROOT
BRANCH   8  10
ATOM      9  N   UNL     1      31.985 -12.375 -21.495  0.00  0.00    -0.242 NA
ATOM     10  C   UNL     1      33.295 -13.307 -23.294  0.00  0.00    +0.072 C 
ATOM     11  C   UNL     1      33.731 -12.039 -23.652  0.00  0.00    +0.003 C 
ATOM     12  C   UNL     1      33.293 -10.934 -22.930  0.00  0.00    -0.003 C 
ATOM     13  C   UNL     1      32.433 -13.425 -22.221  0.00  0.00    +0.103 C 
ATOM     14  C   UNL     1      32.429 -11.154 -21.869  0.00  0.00    +0.095 C 
BRANCH  12  15
ATOM     15  C   UNL     1      33.739  -9.560 -23.284  0.00  0.00    +0.033 C 
BRANCH  15  16
ATOM     16  C   UNL     1      32.587  -8.588 -23.615  0.00  0.00    +0.031 C 
BRANCH  16  17
ATOM     17  C   UNL     1      32.314  -7.593 -22.512  0.00  0.00    -0.022 C 
ATOM     18  C   UNL     1      33.102  -7.611 -21.372  0.00  0.00    -0.004 C 
ATOM     19  C   UNL     1      31.282  -6.681 -22.661  0.00  0.00    -0.004 C 
ATOM     20  C   UNL     1      32.850  -6.692 -20.353  0.00  0.00    -0.000 C 
ATOM     21  C   UNL     1      31.031  -5.762 -21.642  0.00  0.00    -0.000 C 
ATOM     22  C   UNL     1      31.815  -5.768 -20.488  0.00  0.00    -0.000 C 
ENDBRANCH  16  17
ENDBRANCH  15  16
ENDBRANCH  12  15
ENDBRANCH   8  10
BRANCH   3  23
ATOM     23  C   UNL     1      34.942 -18.965 -21.032  0.00  0.00    -0.023 C 
ATOM     24  C   UNL     1      35.937 -19.601 -20.291  0.00  0.00    -0.011 C 
ATOM     25  C   UNL     1      33.636 -19.450 -21.013  0.00  0.00    -0.004 C 
ATOM     26  C   UNL     1      35.624 -20.726 -19.529  0.00  0.00    -0.045 C 
ATOM     27  C   UNL     1      33.323 -20.576 -20.251  0.00  0.00    -0.001 C 
ATOM     28  C   UNL     1      34.317 -21.214 -19.509  0.00  0.00    -0.006 C 
BRANCH  26  29
ATOM     29  C   UNL     1      36.687 -21.409 -18.734  0.00  0.00    -0.059 C 
BRANCH  29  30
ATOM     30  N   UNL     1      36.190 -21.899 -17.447  0.00  0.00    +0.383 N 
ATOM     31  H   UNL     1      36.086 -21.116 -16.802  0.00  0.00    -0.089 HD
ATOM     32  H   UNL     1      36.852 -22.572 -17.061  0.00  0.00    -0.089 HD
ATOM     33  H   UNL     1      35.285 -22.350 -17.582  0.00  0.00    -0.089 HD
ENDBRANCH  29  30
ENDBRANCH  26  29
ENDBRANCH   3  23
TORSDOF 7
ENDMDL
MODEL 4
REMARK VINA RESULT:     -11.0      3.617     12.376
REMARK  Name = 657077
REMARK  7 active torsions:
REMARK  status: ('A' for Active; 'I' for Inactive)
REMARK    1  A    between atoms: C_3  and  C_23
REMARK    2  A    between atoms: C_8  and  C_10
REMARK    3  A    between atoms: C_12  and  C_15
REMARK    4  A    between atoms: C_15  and  C_16
REMARK    5  A    between atoms: C_16  and  C_17
REMARK    6  A    between atoms: C_26  and  C_29
REMARK    7  A    between atoms: C_29  and  N_30
REMARK                            x       y       z     vdW  Elec       q    Type
REMARK                         _______ _______ _______ _____ _____    ______ ____
ROOT
ATOM      1  O   UNL     1      31.541  -9.964 -21.818  0.00  0.00    -0.270 OA
ATOM      2  N   UNL     1      33.364  -8.667 -22.498  0.00  0.00    -0.276 N 
ATOM      3  C   UNL     1      34.110  -6.070 -23.535  0.00  0.00    +0.026 C 
ATOM      4  C   UNL     1      34.565  -7.377 -24.216  0.00  0.00    +0.026 C 
ATOM      5  C   UNL     1      32.794  -6.291 -22.765  0.00  0.00    +0.026 C 
ATOM      6  C   UNL     1      34.642  -8.521 -23.205  0.00  0.00    +0.094 C 
ATOM      7  C   UNL     1      32.914  -7.465 -21.795  0.00  0.00    +0.094 C 
ATOM      8  C   UNL     1      32.599  -9.834 -22.431  0.00  0.00    +0.251 C 
ENDROOT
BRANCH   8  10
ATOM      9  N   UNL     1      33.626 -12.049 -25.270  0.00  0.00    -0.242 NA
ATOM     10  C   UNL     1      33.075 -11.015 -23.161  0.00  0.00    +0.072 C 
ATOM     11  C   UNL     1      33.415 -12.178 -22.485  0.00  0.00    +0.003 C 
ATOM     12  C   UNL     1      33.863 -13.282 -23.203  0.00  0.00    -0.003 C 
ATOM     13  C   UNL     1      33.195 -10.997 -24.537  0.00  0.00    +0.103 C 
ATOM     14  C   UNL     1      33.950 -13.166 -24.582  0.00  0.00    +0.095 C 
BRANCH  12  15
ATOM     15  C   UNL     1      34.238 -14.545 -22.514  0.00  0.00    +0.033 C 
BRANCH  15  16
ATOM     16  C   UNL     1      34.993 -15.552 -23.408  0.00  0.00    +0.031 C 
BRANCH  16  17
ATOM     17  C   UNL     1      35.001 -16.954 -22.846  0.00  0.00    -0.022 C 
ATOM     18  C   UNL     1      35.381 -17.155 -21.528  0.00  0.00    -0.004 C 
ATOM     19  C   UNL     1      34.629 -18.013 -23.658  0.00  0.00    -0.004 C 
ATOM     20  C   UNL     1      35.389 -18.449 -21.009  0.00  0.00    -0.000 C 
ATOM     21  C   UNL     1      34.636 -19.308 -23.138  0.00  0.00    -0.000 C 
ATOM     22  C   UNL     1      35.017 -19.526 -21.814  0.00  0.00    -0.000 C 
ENDBRANCH  16  17
ENDBRANCH  15  16
ENDBRANCH  12  15
ENDBRANCH   8  10
BRANCH   3  23
ATOM     23  C   UNL     1      34.008  -4.922 -24.521  0.00  0.00    -0.023 C 
ATOM     24  C   UNL     1      32.945  -4.025 -24.434  0.00  0.00    -0.011 C 
ATOM     25  C   UNL     1      34.978  -4.767 -25.510  0.00  0.00    -0.004 C 
ATOM     26  C   UNL     1      32.851  -2.968 -25.339  0.00  0.00    -0.045 C 
ATOM     27  C   UNL     1      34.883  -3.710 -26.416  0.00  0.00    -0.001 C 
ATOM     28  C   UNL     1      33.821  -2.811 -26.330  0.00  0.00    -0.006 C 
BRANCH  26  29
ATOM     29  C   UNL     1      31.716  -2.005 -25.247  0.00  0.00    -0.059 C 
BRANCH  29  30
ATOM     30  N   UNL     1      30.545  -2.585 -24.586  0.00  0.00    +0.383 N 
ATOM     31  H   UNL     1      29.765  -1.930 -24.640  0.00  0.00    -0.089 HD
ATOM     32  H   UNL     1      30.765  -2.772 -23.608  0.00  0.00    -0.089 HD
ATOM     33  H   UNL     1      30.290  -3.457 -25.050  0.00  0.00    -0.089 HD
ENDBRANCH  29  30
ENDBRANCH  26  29
ENDBRANCH   3  23
TORSDOF 7
ENDMDL
MODEL 5
REMARK VINA RESULT:     -10.9      4.688      7.933
REMARK  Name = 657077
REMARK  7 active torsions:
REMARK  status: ('A' for Active; 'I' for Inactive)
REMARK    1  A    between atoms: C_3  and  C_23
REMARK    2  A    between atoms: C_8  and  C_10
REMARK    3  A    between atoms: C_12  and  C_15
REMARK    4  A    between atoms: C_15  and  C_16
REMARK    5  A    between atoms: C_16  and  C_17
REMARK    6  A    between atoms: C_26  and  C_29
REMARK    7  A    between atoms: C_29  and  N_30
REMARK                            x       y       z     vdW  Elec       q    Type
REMARK                         _______ _______ _______ _____ _____    ______ ____
ROOT
ATOM      1  O   UNL     1      32.244  -7.461 -18.826  0.00  0.00    -0.270 OA
ATOM      2  N   UNL     1      31.660  -9.093 -20.395  0.00  0.00    -0.276 N 
ATOM      3  C   UNL     1      32.091 -11.854 -21.147  0.00  0.00    +0.026 C 
ATOM      4  C   UNL     1      32.270 -10.702 -22.155  0.00  0.00    +0.026 C 
ATOM      5  C   UNL     1      32.328 -11.356 -19.709  0.00  0.00    +0.026 C 
ATOM      6  C   UNL     1      31.394  -9.506 -21.779  0.00  0.00    +0.094 C 
ATOM      7  C   UNL     1      31.456 -10.141 -19.395  0.00  0.00    +0.094 C 
ATOM      8  C   UNL     1      32.047  -7.814 -19.988  0.00  0.00    +0.251 C 
ENDROOT
BRANCH   8  10
ATOM      9  N   UNL     1      31.507  -4.762 -22.087  0.00  0.00    -0.242 NA
ATOM     10  C   UNL     1      32.255  -6.792 -21.020  0.00  0.00    +0.072 C 
ATOM     11  C   UNL     1      33.340  -6.862 -21.881  0.00  0.00    +0.003 C 
ATOM     12  C   UNL     1      33.512  -5.879 -22.849  0.00  0.00    -0.003 C 
ATOM     13  C   UNL     1      31.375  -5.737 -21.159  0.00  0.00    +0.103 C 
ATOM     14  C   UNL     1      32.576  -4.859 -22.910  0.00  0.00    +0.095 C 
BRANCH  12  15
ATOM     15  C   UNL     1      34.664  -5.920 -23.789  0.00  0.00    +0.033 C 
BRANCH  15  16
ATOM     16  C   UNL     1      34.280  -5.703 -25.268  0.00  0.00    +0.031 C 
BRANCH  16  17
ATOM     17  C   UNL     1      34.875  -4.447 -25.857  0.00  0.00    -0.022 C 
ATOM     18  C   UNL     1      34.135  -3.275 -25.849  0.00  0.00    -0.004 C 
ATOM     19  C   UNL     1      36.151  -4.489 -26.396  0.00  0.00    -0.004 C 
ATOM     20  C   UNL     1      34.685  -2.115 -26.394  0.00  0.00    -0.000 C 
ATOM     21  C   UNL     1      36.702  -3.328 -26.939  0.00  0.00    -0.000 C 
ATOM     22  C   UNL     1      35.968  -2.141 -26.939  0.00  0.00    -0.000 C 
ENDBRANCH  16  17
ENDBRANCH  15  16
ENDBRANCH  12  15
ENDBRANCH   8  10
BRANCH   3  23
ATOM     23  C   UNL     1      32.963 -13.048 -21.488  0.00  0.00    -0.023 C 
ATOM     24  C   UNL     1      33.072 -13.473 -22.810  0.00  0.00    -0.011 C 
ATOM     25  C   UNL     1      33.655 -13.713 -20.477  0.00  0.00    -0.004 C 
ATOM     26  C   UNL     1      33.874 -14.570 -23.124  0.00  0.00    -0.045 C 
ATOM     27  C   UNL     1      34.457 -14.810 -20.791  0.00  0.00    -0.001 C 
ATOM     28  C   UNL     1      34.567 -15.238 -22.114  0.00  0.00    -0.006 C 
BRANCH  26  29
ATOM     29  C   UNL     1      33.994 -15.028 -24.539  0.00  0.00    -0.059 C 
BRANCH  29  30
ATOM     30  N   UNL     1      34.569 -16.371 -24.642  0.00  0.00    +0.383 N 
ATOM     31  H   UNL     1      35.539 -16.350 -24.329  0.00  0.00    -0.089 HD
ATOM     32  H   UNL     1      34.531 -16.683 -25.612  0.00  0.00    -0.089 HD
ATOM     33  H   UNL     1      34.036 -17.014 -24.056  0.00  0.00    -0.089 HD
ENDBRANCH  29  30
ENDBRANCH  26  29
ENDBRANCH   3  23
TORSDOF 7
ENDMDL
MODEL 6
REMARK VINA RESULT:     -10.6      3.784     11.514
REMARK  Name = 657077
REMARK  7 active torsions:
REMARK  status: ('A' for Active; 'I' for Inactive)
REMARK    1  A    between atoms: C_3  and  C_23
REMARK    2  A    between atoms: C_8  and  C_10
REMARK    3  A    between atoms: C_12  and  C_15
REMARK    4  A    between atoms: C_15  and  C_16
REMARK    5  A    between atoms: C_16  and  C_17
REMARK    6  A    between atoms: C_26  and  C_29
REMARK    7  A    between atoms: C_29  and  N_30
REMARK                            x       y       z     vdW  Elec       q    Type
REMARK                         _______ _______ _______ _____ _____    ______ ____
ROOT
ATOM      1  O   UNL     1      37.048 -20.832 -17.827  0.00  0.00    -0.270 OA
ATOM      2  N   UNL     1      36.088 -20.536 -19.939  0.00  0.00    -0.276 N 
ATOM      3  C   UNL     1      35.612 -18.585 -22.022  0.00  0.00    +0.026 C 
ATOM      4  C   UNL     1      34.470 -19.436 -21.432  0.00  0.00    +0.026 C 
ATOM      5  C   UNL     1      36.749 -18.418 -20.995  0.00  0.00    +0.026 C 
ATOM      6  C   UNL     1      35.001 -20.766 -20.898  0.00  0.00    +0.094 C 
ATOM      7  C   UNL     1      37.219 -19.773 -20.468  0.00  0.00    +0.094 C 
ATOM      8  C   UNL     1      36.125 -21.003 -18.623  0.00  0.00    +0.251 C 
ENDROOT
BRANCH   8  10
ATOM      9  N   UNL     1      32.714 -22.539 -18.475  0.00  0.00    -0.242 NA
ATOM     10  C   UNL     1      34.967 -21.753 -18.122  0.00  0.00    +0.072 C 
ATOM     11  C   UNL     1      35.003 -22.369 -16.880  0.00  0.00    +0.003 C 
ATOM     12  C   UNL     1      33.890 -23.073 -16.431  0.00  0.00    -0.003 C 
ATOM     13  C   UNL     1      33.815 -21.863 -18.876  0.00  0.00    +0.103 C 
ATOM     14  C   UNL     1      32.781 -23.128 -17.260  0.00  0.00    +0.095 C 
BRANCH  12  15
ATOM     15  C   UNL     1      33.891 -23.747 -15.106  0.00  0.00    +0.033 C 
BRANCH  15  16
ATOM     16  C   UNL     1      32.881 -23.160 -14.098  0.00  0.00    +0.031 C 
BRANCH  16  17
ATOM     17  C   UNL     1      31.473 -23.664 -14.308  0.00  0.00    -0.022 C 
ATOM     18  C   UNL     1      30.492 -22.783 -14.733  0.00  0.00    -0.004 C 
ATOM     19  C   UNL     1      31.188 -24.999 -14.071  0.00  0.00    -0.004 C 
ATOM     20  C   UNL     1      29.191 -23.249 -14.926  0.00  0.00    -0.000 C 
ATOM     21  C   UNL     1      29.887 -25.465 -14.266  0.00  0.00    -0.000 C 
ATOM     22  C   UNL     1      28.889 -24.589 -14.693  0.00  0.00    -0.000 C 
ENDBRANCH  16  17
ENDBRANCH  15  16
ENDBRANCH  12  15
ENDBRANCH   8  10
BRANCH   3  23
ATOM     23  C   UNL     1      35.115 -17.250 -22.543  0.00  0.00    -0.023 C 
ATOM     24  C   UNL     1      34.964 -16.175 -21.668  0.00  0.00    -0.011 C 
ATOM     25  C   UNL     1      34.812 -17.101 -23.895  0.00  0.00    -0.004 C 
ATOM     26  C   UNL     1      34.508 -14.948 -22.147  0.00  0.00    -0.045 C 
ATOM     27  C   UNL     1      34.356 -15.872 -24.374  0.00  0.00    -0.001 C 
ATOM     28  C   UNL     1      34.204 -14.796 -23.500  0.00  0.00    -0.006 C 
BRANCH  26  29
ATOM     29  C   UNL     1      34.346 -13.795 -21.213  0.00  0.00    -0.059 C 
BRANCH  29  30
ATOM     30  N   UNL     1      32.940 -13.453 -20.990  0.00  0.00    +0.383 N 
ATOM     31  H   UNL     1      32.871 -12.481 -20.688  0.00  0.00    -0.089 HD
ATOM     32  H   UNL     1      32.552 -14.062 -20.270  0.00  0.00    -0.089 HD
ATOM     33  H   UNL     1      32.419 -13.576 -21.858  0.00  0.00    -0.089 HD
ENDBRANCH  29  30
ENDBRANCH  26  29
ENDBRANCH   3  23
TORSDOF 7
ENDMDL
MODEL 7
REMARK VINA RESULT:     -10.5      5.748     10.433
REMARK  Name = 657077
REMARK  7 active torsions:
REMARK  status: ('A' for Active; 'I' for Inactive)
REMARK    1  A    between atoms: C_3  and  C_23
REMARK    2  A    between atoms: C_8  and  C_10
REMARK    3  A    between atoms: C_12  and  C_15
REMARK    4  A    between atoms: C_15  and  C_16
REMARK    5  A    between atoms: C_16  and  C_17
REMARK    6  A    between atoms: C_26  and  C_29
REMARK    7  A    between atoms: C_29  and  N_30
REMARK                            x       y       z     vdW  Elec       q    Type
REMARK                         _______ _______ _______ _____ _____    ______ ____
ROOT
ATOM      1  O   UNL     1      37.473 -21.419 -15.697  0.00  0.00    -0.270 OA
ATOM      2  N   UNL     1      36.526 -23.326 -14.731  0.00  0.00    -0.276 N 
ATOM      3  C   UNL     1      37.158 -25.901 -13.572  0.00  0.00    +0.026 C 
ATOM      4  C   UNL     1      36.127 -25.754 -14.708  0.00  0.00    +0.026 C 
ATOM      5  C   UNL     1      38.190 -24.759 -13.627  0.00  0.00    +0.026 C 
ATOM      6  C   UNL     1      35.490 -24.365 -14.691  0.00  0.00    +0.094 C 
ATOM      7  C   UNL     1      37.502 -23.394 -13.642  0.00  0.00    +0.094 C 
ATOM      8  C   UNL     1      36.619 -22.304 -15.679  0.00  0.00    +0.251 C 
ENDROOT
BRANCH   8  10
ATOM      9  N   UNL     1      33.416 -22.824 -17.546  0.00  0.00    -0.242 NA
ATOM     10  C   UNL     1      35.631 -22.275 -16.764  0.00  0.00    +0.072 C 
ATOM     11  C   UNL     1      35.938 -21.703 -17.990  0.00  0.00    +0.003 C 
ATOM     12  C   UNL     1      34.981 -21.690 -18.999  0.00  0.00    -0.003 C 
ATOM     13  C   UNL     1      34.373 -22.817 -16.589  0.00  0.00    +0.103 C 
ATOM     14  C   UNL     1      33.747 -22.258 -18.728  0.00  0.00    +0.095 C 
BRANCH  12  15
ATOM     15  C   UNL     1      35.273 -21.085 -20.326  0.00  0.00    +0.033 C 
BRANCH  15  16
ATOM     16  C   UNL     1      35.648 -19.589 -20.268  0.00  0.00    +0.031 C 
BRANCH  16  17
ATOM     17  C   UNL     1      35.274 -18.835 -21.522  0.00  0.00    -0.022 C 
ATOM     18  C   UNL     1      34.646 -19.509 -22.557  0.00  0.00    -0.004 C 
ATOM     19  C   UNL     1      35.565 -17.484 -21.613  0.00  0.00    -0.004 C 
ATOM     20  C   UNL     1      34.300 -18.812 -23.715  0.00  0.00    -0.000 C 
ATOM     21  C   UNL     1      35.218 -16.787 -22.771  0.00  0.00    -0.000 C 
ATOM     22  C   UNL     1      34.586 -17.452 -23.823  0.00  0.00    -0.000 C 
ENDBRANCH  16  17
ENDBRANCH  15  16
ENDBRANCH  12  15
ENDBRANCH   8  10
BRANCH   3  23
ATOM     23  C   UNL     1      37.819 -27.266 -13.577  0.00  0.00    -0.023 C 
ATOM     24  C   UNL     1      38.544 -27.683 -14.692  0.00  0.00    -0.011 C 
ATOM     25  C   UNL     1      37.701 -28.100 -12.466  0.00  0.00    -0.004 C 
ATOM     26  C   UNL     1      39.152 -28.937 -14.697  0.00  0.00    -0.045 C 
ATOM     27  C   UNL     1      38.310 -29.355 -12.472  0.00  0.00    -0.001 C 
ATOM     28  C   UNL     1      39.035 -29.773 -13.587  0.00  0.00    -0.006 C 
BRANCH  26  29
ATOM     29  C   UNL     1      39.930 -29.386 -15.889  0.00  0.00    -0.059 C 
BRANCH  29  30
ATOM     30  N   UNL     1      39.158 -29.281 -17.129  0.00  0.00    +0.383 N 
ATOM     31  H   UNL     1      39.080 -30.203 -17.560  0.00  0.00    -0.089 HD
ATOM     32  H   UNL     1      39.630 -28.645 -17.771  0.00  0.00    -0.089 HD
ATOM     33  H   UNL     1      38.225 -28.924 -16.920  0.00  0.00    -0.089 HD
ENDBRANCH  29  30
ENDBRANCH  26  29
ENDBRANCH   3  23
TORSDOF 7
ENDMDL
MODEL 8
REMARK VINA RESULT:     -10.4      2.433     10.845
REMARK  Name = 657077
REMARK  7 active torsions:
REMARK  status: ('A' for Active; 'I' for Inactive)
REMARK    1  A    between atoms: C_3  and  C_23
REMARK    2  A    between atoms: C_8  and  C_10
REMARK    3  A    between atoms: C_12  and  C_15
REMARK    4  A    between atoms: C_15  and  C_16
REMARK    5  A    between atoms: C_16  and  C_17
REMARK    6  A    between atoms: C_26  and  C_29
REMARK    7  A    between atoms: C_29  and  N_30
REMARK                            x       y       z     vdW  Elec       q    Type
REMARK                         _______ _______ _______ _____ _____    ______ ____
ROOT
ATOM      1  O   UNL     1      34.673 -13.251 -24.395  0.00  0.00    -0.270 OA
ATOM      2  N   UNL     1      32.999 -12.356 -23.030  0.00  0.00    -0.276 N 
ATOM      3  C   UNL     1      31.942  -9.879 -21.970  0.00  0.00    +0.026 C 
ATOM      4  C   UNL     1      32.293 -11.068 -21.055  0.00  0.00    +0.026 C 
ATOM      5  C   UNL     1      32.790  -9.917 -23.256  0.00  0.00    +0.026 C 
ATOM      6  C   UNL     1      32.180 -12.391 -21.812  0.00  0.00    +0.094 C 
ATOM      7  C   UNL     1      32.670 -11.271 -23.955  0.00  0.00    +0.094 C 
ATOM      8  C   UNL     1      34.005 -13.266 -23.362  0.00  0.00    +0.251 C 
ENDROOT
BRANCH   8  10
ATOM      9  N   UNL     1      34.529 -15.039 -20.107  0.00  0.00    -0.242 NA
ATOM     10  C   UNL     1      34.317 -14.333 -22.404  0.00  0.00    +0.072 C 
ATOM     11  C   UNL     1      34.680 -15.598 -22.842  0.00  0.00    +0.003 C 
ATOM     12  C   UNL     1      34.970 -16.589 -21.910  0.00  0.00    -0.003 C 
ATOM     13  C   UNL     1      34.255 -14.102 -21.043  0.00  0.00    +0.103 C 
ATOM     14  C   UNL     1      34.880 -16.261 -20.566  0.00  0.00    +0.095 C 
BRANCH  12  15
ATOM     15  C   UNL     1      35.363 -17.957 -22.341  0.00  0.00    +0.033 C 
BRANCH  15  16
ATOM     16  C   UNL     1      36.205 -18.728 -21.303  0.00  0.00    +0.031 C 
BRANCH  16  17
ATOM     17  C   UNL     1      35.403 -19.744 -20.526  0.00  0.00    -0.022 C 
ATOM     18  C   UNL     1      34.025 -19.777 -20.671  0.00  0.00    -0.004 C 
ATOM     19  C   UNL     1      36.060 -20.625 -19.682  0.00  0.00    -0.004 C 
ATOM     20  C   UNL     1      33.284 -20.715 -19.952  0.00  0.00    -0.000 C 
ATOM     21  C   UNL     1      35.318 -21.564 -18.964  0.00  0.00    -0.000 C 
ATOM     22  C   UNL     1      33.930 -21.609 -19.099  0.00  0.00    -0.000 C 
ENDBRANCH  16  17
ENDBRANCH  15  16
ENDBRANCH  12  15
ENDBRANCH   8  10
BRANCH   3  23
ATOM     23  C   UNL     1      32.063  -8.550 -21.248  0.00  0.00    -0.023 C 
ATOM     24  C   UNL     1      31.964  -7.359 -21.963  0.00  0.00    -0.011 C 
ATOM     25  C   UNL     1      32.272  -8.525 -19.870  0.00  0.00    -0.004 C 
ATOM     26  C   UNL     1      32.075  -6.138 -21.300  0.00  0.00    -0.045 C 
ATOM     27  C   UNL     1      32.382  -7.303 -19.206  0.00  0.00    -0.001 C 
ATOM     28  C   UNL     1      32.283  -6.110 -19.920  0.00  0.00    -0.006 C 
BRANCH  26  29
ATOM     29  C   UNL     1      31.968  -4.860 -22.063  0.00  0.00    -0.059 C 
BRANCH  29  30
ATOM     30  N   UNL     1      30.779  -4.089 -21.695  0.00  0.00    +0.383 N 
ATOM     31  H   UNL     1      29.996  -4.725 -21.542  0.00  0.00    -0.089 HD
ATOM     32  H   UNL     1      30.548  -3.440 -22.446  0.00  0.00    -0.089 HD
ATOM     33  H   UNL     1      30.964  -3.567 -20.838  0.00  0.00    -0.089 HD
ENDBRANCH  29  30
ENDBRANCH  26  29
ENDBRANCH   3  23
TORSDOF 7
ENDMDL
MODEL 9
REMARK VINA RESULT:     -10.4      2.992     11.532
REMARK  Name = 657077
REMARK  7 active torsions:
REMARK  status: ('A' for Active; 'I' for Inactive)
REMARK    1  A    between atoms: C_3  and  C_23
REMARK    2  A    between atoms: C_8  and  C_10
REMARK    3  A    between atoms: C_12  and  C_15
REMARK    4  A    between atoms: C_15  and  C_16
REMARK    5  A    between atoms: C_16  and  C_17
REMARK    6  A    between atoms: C_26  and  C_29
REMARK    7  A    between atoms: C_29  and  N_30
REMARK                            x       y       z     vdW  Elec       q    Type
REMARK                         _______ _______ _______ _____ _____    ______ ____
ROOT
ATOM      1  O   UNL     1      31.358 -12.355 -21.643  0.00  0.00    -0.270 OA
ATOM      2  N   UNL     1      33.010 -10.786 -22.168  0.00  0.00    -0.276 N 
ATOM      3  C   UNL     1      33.434  -8.043 -22.987  0.00  0.00    +0.026 C 
ATOM      4  C   UNL     1      34.071  -9.223 -23.746  0.00  0.00    +0.026 C 
ATOM      5  C   UNL     1      32.141  -8.489 -22.278  0.00  0.00    +0.026 C 
ATOM      6  C   UNL     1      34.275 -10.422 -22.820  0.00  0.00    +0.094 C 
ATOM      7  C   UNL     1      32.392  -9.710 -21.393  0.00  0.00    +0.094 C 
ATOM      8  C   UNL     1      32.404 -12.043 -22.211  0.00  0.00    +0.251 C 
ENDROOT
BRANCH   8  10
ATOM      9  N   UNL     1      33.432 -14.090 -25.172  0.00  0.00    -0.242 NA
ATOM     10  C   UNL     1      33.046 -13.094 -23.009  0.00  0.00    +0.072 C 
ATOM     11  C   UNL     1      33.845 -14.055 -22.408  0.00  0.00    +0.003 C 
ATOM     12  C   UNL     1      34.441 -15.039 -23.190  0.00  0.00    -0.003 C 
ATOM     13  C   UNL     1      32.870 -13.150 -24.378  0.00  0.00    +0.103 C 
ATOM     14  C   UNL     1      34.205 -15.011 -24.556  0.00  0.00    +0.095 C 
BRANCH  12  15
ATOM     15  C   UNL     1      35.305 -16.085 -22.581  0.00  0.00    +0.033 C 
BRANCH  15  16
ATOM     16  C   UNL     1      34.905 -17.528 -22.952  0.00  0.00    +0.031 C 
BRANCH  16  17
ATOM     17  C   UNL     1      35.248 -18.533 -21.878  0.00  0.00    -0.022 C 
ATOM     18  C   UNL     1      36.530 -18.553 -21.351  0.00  0.00    -0.004 C 
ATOM     19  C   UNL     1      34.275 -19.416 -21.439  0.00  0.00    -0.004 C 
ATOM     20  C   UNL     1      36.846 -19.481 -20.359  0.00  0.00    -0.000 C 
ATOM     21  C   UNL     1      34.592 -20.344 -20.446  0.00  0.00    -0.000 C 
ATOM     22  C   UNL     1      35.878 -20.376 -19.907  0.00  0.00    -0.000 C 
ENDBRANCH  16  17
ENDBRANCH  15  16
ENDBRANCH  12  15
ENDBRANCH   8  10
BRANCH   3  23
ATOM     23  C   UNL     1      33.204  -6.845 -23.889  0.00  0.00    -0.023 C 
ATOM     24  C   UNL     1      34.284  -6.243 -24.533  0.00  0.00    -0.011 C 
ATOM     25  C   UNL     1      31.914  -6.350 -24.072  0.00  0.00    -0.004 C 
ATOM     26  C   UNL     1      34.073  -5.143 -25.363  0.00  0.00    -0.045 C 
ATOM     27  C   UNL     1      31.703  -5.249 -24.902  0.00  0.00    -0.001 C 
ATOM     28  C   UNL     1      32.782  -4.646 -25.547  0.00  0.00    -0.006 C 
BRANCH  26  29
ATOM     29  C   UNL     1      35.226  -4.497 -26.055  0.00  0.00    -0.059 C 
BRANCH  29  30
ATOM     30  N   UNL     1      34.859  -3.963 -27.368  0.00  0.00    +0.383 N 
ATOM     31  H   UNL     1      35.530  -3.246 -27.643  0.00  0.00    -0.089 HD
ATOM     32  H   UNL     1      33.926  -3.555 -27.321  0.00  0.00    -0.089 HD
ATOM     33  H   UNL     1      34.866  -4.716 -28.056  0.00  0.00    -0.089 HD
ENDBRANCH  29  30
ENDBRANCH  26  29
ENDBRANCH   3  23
TORSDOF 7
ENDMDL
