MODEL 1
REMARK VINA RESULT:     -12.1      0.000      0.000
REMARK  Name = 46937081
REMARK  6 active torsions:
REMARK  status: ('A' for Active; 'I' for Inactive)
REMARK    1  A    between atoms: N_1  and  C_10
REMARK    2  A    between atoms: C_4  and  C_16
REMARK    3  A    between atoms: C_9  and  C_31
REMARK    4  A    between atoms: C_16  and  C_17
REMARK    5  A    between atoms: C_18  and  N_23
REMARK    6  A    between atoms: C_31  and  N_32
REMARK                            x       y       z     vdW  Elec       q    Type
REMARK                         _______ _______ _______ _____ _____    ______ ____
ROOT
ATOM      1  N   UNL     1      34.126 -23.334 -15.090  0.00  0.00    -0.267 N 
ATOM      2  N   UNL     1      35.192 -23.486 -12.932  0.00  0.00    -0.341 NA
ATOM      3  N   UNL     1      37.559 -22.920 -13.000  0.00  0.00    -0.188 NA
ATOM      4  C   UNL     1      34.504 -23.005 -16.365  0.00  0.00    +0.035 C 
ATOM      5  C   UNL     1      35.206 -23.237 -14.253  0.00  0.00    +0.199 C 
ATOM      6  C   UNL     1      36.300 -22.838 -15.010  0.00  0.00    +0.066 C 
ATOM      7  C   UNL     1      35.847 -22.694 -16.347  0.00  0.00    +0.016 C 
ATOM      8  C   UNL     1      37.508 -22.683 -14.332  0.00  0.00    +0.114 C 
ATOM      9  C   UNL     1      36.414 -23.302 -12.391  0.00  0.00    +0.042 C 
ENDROOT
BRANCH   1  10
ATOM     10  C   UNL     1      32.728 -23.742 -14.662  0.00  0.00    +0.079 C 
ATOM     11  C   UNL     1      32.755 -24.775 -13.522  0.00  0.00    +0.020 C 
ATOM     12  C   UNL     1      31.866 -22.525 -14.283  0.00  0.00    +0.020 C 
ATOM     13  C   UNL     1      31.343 -25.187 -13.107  0.00  0.00    +0.002 C 
ATOM     14  C   UNL     1      30.458 -22.946 -13.865  0.00  0.00    +0.002 C 
ATOM     15  C   UNL     1      30.489 -23.977 -12.739  0.00  0.00    +0.000 C 
ENDBRANCH   1  10
BRANCH   4  16
ATOM     16  C   UNL     1      33.528 -23.016 -17.525  0.00  0.00    +0.068 C 
BRANCH  16  17
ATOM     17  C   UNL     1      33.796 -21.968 -18.551  0.00  0.00    -0.016 C 
ATOM     18  C   UNL     1      34.297 -20.008 -20.473  0.00  0.00    +0.048 C 
ATOM     19  C   UNL     1      35.107 -21.689 -18.938  0.00  0.00    -0.003 C 
ATOM     20  C   UNL     1      32.736 -21.267 -19.126  0.00  0.00    -0.003 C 
ATOM     21  C   UNL     1      35.358 -20.710 -19.899  0.00  0.00    +0.014 C 
ATOM     22  C   UNL     1      32.986 -20.287 -20.086  0.00  0.00    +0.014 C 
BRANCH  18  23
ATOM     23  N   UNL     1      34.549 -19.026 -21.436  0.00  0.00    -0.312 N 
ATOM     24  N   UNL     1      35.305 -17.107 -23.413  0.00  0.00    +0.388 N 
ATOM     25  C   UNL     1      34.452 -19.361 -22.860  0.00  0.00    +0.068 C 
ATOM     26  C   UNL     1      35.495 -17.955 -21.099  0.00  0.00    +0.068 C 
ATOM     27  C   UNL     1      35.266 -16.735 -21.994  0.00  0.00    -0.056 C 
ATOM     28  C   UNL     1      34.258 -18.096 -23.699  0.00  0.00    -0.056 C 
ATOM     29  C   UNL     1      35.140 -15.926 -24.259  0.00  0.00    -0.101 C 
ATOM     30  H   UNL     1      36.213 -17.522 -23.620  0.00  0.00    -0.080 HD
ENDBRANCH  18  23
ENDBRANCH  16  17
ENDBRANCH   4  16
BRANCH   9  31
ATOM     31  C   UNL     1      36.516 -23.552 -10.923  0.00  0.00    +0.030 C 
BRANCH  31  32
ATOM     32  N   UNL     1      37.573 -24.510 -10.595  0.00  0.00    +0.390 N 
ATOM     33  H   UNL     1      37.653 -24.594  -9.581  0.00  0.00    -0.088 HD
ATOM     34  H   UNL     1      38.459 -24.184 -10.980  0.00  0.00    -0.088 HD
ATOM     35  H   UNL     1      37.343 -25.420 -10.995  0.00  0.00    -0.088 HD
ENDBRANCH  31  32
ENDBRANCH   9  31
TORSDOF 6
ENDMDL
MODEL 2
REMARK VINA RESULT:     -11.1      1.939      4.068
REMARK  Name = 46937081
REMARK  6 active torsions:
REMARK  status: ('A' for Active; 'I' for Inactive)
REMARK    1  A    between atoms: N_1  and  C_10
REMARK    2  A    between atoms: C_4  and  C_16
REMARK    3  A    between atoms: C_9  and  C_31
REMARK    4  A    between atoms: C_16  and  C_17
REMARK    5  A    between atoms: C_18  and  N_23
REMARK    6  A    between atoms: C_31  and  N_32
REMARK                            x       y       z     vdW  Elec       q    Type
REMARK                         _______ _______ _______ _____ _____    ______ ____
ROOT
ATOM      1  N   UNL     1      33.901 -23.000 -15.831  0.00  0.00    -0.267 N 
ATOM      2  N   UNL     1      32.278 -23.351 -14.081  0.00  0.00    -0.341 NA
ATOM      3  N   UNL     1      29.981 -23.128 -14.858  0.00  0.00    -0.188 NA
ATOM      4  C   UNL     1      33.873 -22.705 -17.169  0.00  0.00    +0.035 C 
ATOM      5  C   UNL     1      32.619 -23.077 -15.353  0.00  0.00    +0.199 C 
ATOM      6  C   UNL     1      31.753 -22.826 -16.409  0.00  0.00    +0.066 C 
ATOM      7  C   UNL     1      32.555 -22.592 -17.555  0.00  0.00    +0.016 C 
ATOM      8  C   UNL     1      30.389 -22.859 -16.121  0.00  0.00    +0.114 C 
ATOM      9  C   UNL     1      30.937 -23.354 -13.930  0.00  0.00    +0.042 C 
ENDROOT
BRANCH   1  10
ATOM     10  C   UNL     1      35.154 -23.209 -15.000  0.00  0.00    +0.079 C 
ATOM     11  C   UNL     1      35.535 -24.696 -14.901  0.00  0.00    +0.020 C 
ATOM     12  C   UNL     1      36.334 -22.371 -15.522  0.00  0.00    +0.020 C 
ATOM     13  C   UNL     1      36.791 -24.896 -14.054  0.00  0.00    +0.002 C 
ATOM     14  C   UNL     1      37.587 -22.581 -14.673  0.00  0.00    +0.002 C 
ATOM     15  C   UNL     1      37.957 -24.058 -14.570  0.00  0.00    +0.000 C 
ENDBRANCH   1  10
BRANCH   4  16
ATOM     16  C   UNL     1      35.140 -22.553 -17.989  0.00  0.00    +0.068 C 
BRANCH  16  17
ATOM     17  C   UNL     1      35.070 -21.475 -19.016  0.00  0.00    -0.016 C 
ATOM     18  C   UNL     1      34.937 -19.457 -20.938  0.00  0.00    +0.048 C 
ATOM     19  C   UNL     1      33.834 -21.082 -19.531  0.00  0.00    -0.003 C 
ATOM     20  C   UNL     1      36.238 -20.859 -19.461  0.00  0.00    -0.003 C 
ATOM     21  C   UNL     1      33.768 -20.073 -20.492  0.00  0.00    +0.014 C 
ATOM     22  C   UNL     1      36.173 -19.850 -20.423  0.00  0.00    +0.014 C 
BRANCH  18  23
ATOM     23  N   UNL     1      34.871 -18.445 -21.901  0.00  0.00    -0.312 N 
ATOM     24  N   UNL     1      34.991 -16.412 -23.904  0.00  0.00    +0.388 N 
ATOM     25  C   UNL     1      34.706 -18.796 -23.316  0.00  0.00    +0.068 C 
ATOM     26  C   UNL     1      35.592 -17.194 -21.638  0.00  0.00    +0.068 C 
ATOM     27  C   UNL     1      35.015 -16.054 -22.481  0.00  0.00    -0.056 C 
ATOM     28  C   UNL     1      34.159 -17.605 -24.105  0.00  0.00    -0.056 C 
ATOM     29  C   UNL     1      34.490 -15.296 -24.705  0.00  0.00    -0.101 C 
ATOM     30  H   UNL     1      35.942 -16.619 -24.208  0.00  0.00    -0.080 HD
ENDBRANCH  18  23
ENDBRANCH  16  17
ENDBRANCH   4  16
BRANCH   9  31
ATOM     31  C   UNL     1      30.443 -23.647 -12.552  0.00  0.00    +0.030 C 
BRANCH  31  32
ATOM     32  N   UNL     1      30.499 -25.074 -12.234  0.00  0.00    +0.390 N 
ATOM     33  H   UNL     1      31.393 -25.457 -12.546  0.00  0.00    -0.088 HD
ATOM     34  H   UNL     1      29.738 -25.559 -12.708  0.00  0.00    -0.088 HD
ATOM     35  H   UNL     1      30.408 -25.202 -11.226  0.00  0.00    -0.088 HD
ENDBRANCH  31  32
ENDBRANCH   9  31
TORSDOF 6
ENDMDL
