MODEL 1
REMARK VINA RESULT:     -11.3      0.000      0.000
REMARK  Name = 5288527
REMARK  4 active torsions:
REMARK  status: ('A' for Active; 'I' for Inactive)
REMARK    1  A    between atoms: N_1  and  C_18
REMARK    2  A    between atoms: C_4  and  C_11
REMARK    3  A    between atoms: C_19  and  S_24
REMARK    4  A    between atoms: S_24  and  N_27
REMARK                            x       y       z     vdW  Elec       q    Type
REMARK                         _______ _______ _______ _____ _____    ______ ____
ROOT
ATOM      1  N   UNL     1      32.626 -24.414 -12.722  0.00  0.00    -0.247 N 
ATOM      2  N   UNL     1      34.410 -23.569 -13.990  0.00  0.00    -0.336 NA
ATOM      3  N   UNL     1      34.795 -24.600 -11.846  0.00  0.00    -0.170 NA
ATOM      4  C   UNL     1      35.740 -23.368 -14.085  0.00  0.00    +0.161 C 
ATOM      5  C   UNL     1      34.012 -24.183 -12.860  0.00  0.00    +0.149 C 
ATOM      6  C   UNL     1      36.648 -23.745 -13.122  0.00  0.00    +0.056 C 
ATOM      7  C   UNL     1      36.113 -24.364 -12.011  0.00  0.00    +0.114 C 
ATOM      8  H   UNL     1      32.381 -24.864 -11.881  0.00  0.00    +0.165 HD
ENDROOT
BRANCH   4  11
ATOM      9  N   UNL     1      35.384 -22.547 -16.417  0.00  0.00    -0.246 N 
ATOM     10  N   UNL     1      37.360 -21.604 -16.876  0.00  0.00    -0.227 NA
ATOM     11  C   UNL     1      36.162 -22.709 -15.298  0.00  0.00    +0.107 C 
ATOM     12  C   UNL     1      36.161 -21.867 -17.352  0.00  0.00    +0.139 C 
ATOM     13  C   UNL     1      37.366 -22.122 -15.606  0.00  0.00    +0.118 C 
ATOM     14  C   UNL     1      34.073 -22.952 -16.651  0.00  0.00    +0.071 C 
ATOM     15  C   UNL     1      35.555 -21.582 -18.611  0.00  0.00    +0.035 C 
ATOM     16  C   UNL     1      33.510 -22.680 -17.839  0.00  0.00    +0.017 C 
ATOM     17  C   UNL     1      34.287 -21.972 -18.845  0.00  0.00    +0.004 C 
ENDBRANCH   4  11
BRANCH   1  18
ATOM     18  C   UNL     1      31.526 -24.127 -13.552  0.00  0.00    +0.058 C 
ATOM     19  C   UNL     1      29.343 -23.557 -15.198  0.00  0.00    +0.122 C 
ATOM     20  C   UNL     1      30.637 -25.142 -13.912  0.00  0.00    +0.017 C 
ATOM     21  C   UNL     1      31.319 -22.826 -14.017  0.00  0.00    +0.017 C 
ATOM     22  C   UNL     1      29.547 -24.857 -14.734  0.00  0.00    +0.021 C 
ATOM     23  C   UNL     1      30.230 -22.542 -14.839  0.00  0.00    +0.021 C 
BRANCH  19  24
ATOM     24  S   UNL     1      27.979 -23.201 -16.228  0.00  0.00    +0.057 S 
ATOM     25  O   UNL     1      28.293 -22.013 -17.010  0.00  0.00    -0.153 OA
ATOM     26  O   UNL     1      27.575 -24.426 -16.903  0.00  0.00    -0.153 OA
BRANCH  24  27
ATOM     27  N   UNL     1      26.791 -22.798 -15.067  0.00  0.00    -0.203 NA
ATOM     28  H   UNL     1      26.034 -23.480 -15.106  0.00  0.00    +0.144 HD
ATOM     29  H   UNL     1      26.422 -21.867 -15.267  0.00  0.00    +0.144 HD
ENDBRANCH  24  27
ENDBRANCH  19  24
ENDBRANCH   1  18
TORSDOF 4
ENDMDL
MODEL 2
REMARK VINA RESULT:     -10.4      4.260      6.678
REMARK  Name = 5288527
REMARK  4 active torsions:
REMARK  status: ('A' for Active; 'I' for Inactive)
REMARK    1  A    between atoms: N_1  and  C_18
REMARK    2  A    between atoms: C_4  and  C_11
REMARK    3  A    between atoms: C_19  and  S_24
REMARK    4  A    between atoms: S_24  and  N_27
REMARK                            x       y       z     vdW  Elec       q    Type
REMARK                         _______ _______ _______ _____ _____    ______ ____
ROOT
ATOM      1  N   UNL     1      32.539 -22.186 -17.981  0.00  0.00    -0.247 N 
ATOM      2  N   UNL     1      34.064 -22.871 -16.336  0.00  0.00    -0.336 NA
ATOM      3  N   UNL     1      31.745 -23.515 -16.218  0.00  0.00    -0.170 NA
ATOM      4  C   UNL     1      34.269 -23.556 -15.193  0.00  0.00    +0.161 C 
ATOM      5  C   UNL     1      32.796 -22.892 -16.786  0.00  0.00    +0.149 C 
ATOM      6  C   UNL     1      33.284 -24.236 -14.513  0.00  0.00    +0.056 C 
ATOM      7  C   UNL     1      32.026 -24.180 -15.078  0.00  0.00    +0.114 C 
ATOM      8  H   UNL     1      31.599 -22.229 -18.273  0.00  0.00    +0.165 HD
ENDROOT
BRANCH   4  11
ATOM      9  N   UNL     1      36.433 -24.632 -14.562  0.00  0.00    -0.246 N 
ATOM     10  N   UNL     1      37.654 -22.868 -13.929  0.00  0.00    -0.227 NA
ATOM     11  C   UNL     1      35.631 -23.530 -14.714  0.00  0.00    +0.107 C 
ATOM     12  C   UNL     1      37.658 -24.176 -14.081  0.00  0.00    +0.139 C 
ATOM     13  C   UNL     1      36.403 -22.462 -14.320  0.00  0.00    +0.118 C 
ATOM     14  C   UNL     1      36.155 -25.972 -14.816  0.00  0.00    +0.071 C 
ATOM     15  C   UNL     1      38.665 -25.157 -13.843  0.00  0.00    +0.035 C 
ATOM     16  C   UNL     1      37.108 -26.890 -14.589  0.00  0.00    +0.017 C 
ATOM     17  C   UNL     1      38.402 -26.456 -14.086  0.00  0.00    +0.004 C 
ENDBRANCH   4  11
BRANCH   1  18
ATOM     18  C   UNL     1      33.363 -21.434 -18.839  0.00  0.00    +0.058 C 
ATOM     19  C   UNL     1      34.996 -19.940 -20.541  0.00  0.00    +0.122 C 
ATOM     20  C   UNL     1      34.751 -21.576 -18.781  0.00  0.00    +0.017 C 
ATOM     21  C   UNL     1      32.795 -20.541 -19.751  0.00  0.00    +0.017 C 
ATOM     22  C   UNL     1      35.566 -20.830 -19.631  0.00  0.00    +0.021 C 
ATOM     23  C   UNL     1      33.610 -19.795 -20.601  0.00  0.00    +0.021 C 
BRANCH  19  24
ATOM     24  S   UNL     1      36.017 -19.005 -21.605  0.00  0.00    +0.057 S 
ATOM     25  O   UNL     1      37.398 -19.157 -21.167  0.00  0.00    -0.153 OA
ATOM     26  O   UNL     1      35.657 -19.313 -22.982  0.00  0.00    -0.153 OA
BRANCH  24  27
ATOM     27  N   UNL     1      35.497 -17.417 -21.245  0.00  0.00    -0.203 NA
ATOM     28  H   UNL     1      35.921 -17.111 -20.370  0.00  0.00    +0.144 HD
ATOM     29  H   UNL     1      34.481 -17.405 -21.153  0.00  0.00    +0.144 HD
ENDBRANCH  24  27
ENDBRANCH  19  24
ENDBRANCH   1  18
TORSDOF 4
ENDMDL
MODEL 3
REMARK VINA RESULT:     -10.2      3.719      5.292
REMARK  Name = 5288527
REMARK  4 active torsions:
REMARK  status: ('A' for Active; 'I' for Inactive)
REMARK    1  A    between atoms: N_1  and  C_18
REMARK    2  A    between atoms: C_4  and  C_11
REMARK    3  A    between atoms: C_19  and  S_24
REMARK    4  A    between atoms: S_24  and  N_27
REMARK                            x       y       z     vdW  Elec       q    Type
REMARK                         _______ _______ _______ _____ _____    ______ ____
ROOT
ATOM      1  N   UNL     1      34.511 -23.530 -13.148  0.00  0.00    -0.247 N 
ATOM      2  N   UNL     1      36.618 -24.562 -13.170  0.00  0.00    -0.336 NA
ATOM      3  N   UNL     1      35.419 -24.241 -11.105  0.00  0.00    -0.170 NA
ATOM      4  C   UNL     1      37.605 -25.141 -12.459  0.00  0.00    +0.161 C 
ATOM      5  C   UNL     1      35.568 -24.141 -12.440  0.00  0.00    +0.149 C 
ATOM      6  C   UNL     1      37.578 -25.305 -11.092  0.00  0.00    +0.056 C 
ATOM      7  C   UNL     1      36.446 -24.831 -10.460  0.00  0.00    +0.114 C 
ATOM      8  H   UNL     1      33.766 -23.238 -12.574  0.00  0.00    +0.165 HD
ENDROOT
BRANCH   4  11
ATOM      9  N   UNL     1      38.673 -26.559 -14.215  0.00  0.00    -0.246 N 
ATOM     10  N   UNL     1      40.798 -25.864 -14.135  0.00  0.00    -0.227 NA
ATOM     11  C   UNL     1      38.729 -25.590 -13.246  0.00  0.00    +0.107 C 
ATOM     12  C   UNL     1      39.961 -26.690 -14.728  0.00  0.00    +0.139 C 
ATOM     13  C   UNL     1      40.041 -25.180 -13.218  0.00  0.00    +0.118 C 
ATOM     14  C   UNL     1      37.587 -27.309 -14.657  0.00  0.00    +0.071 C 
ATOM     15  C   UNL     1      40.150 -27.653 -15.763  0.00  0.00    +0.035 C 
ATOM     16  C   UNL     1      37.773 -28.214 -15.631  0.00  0.00    +0.017 C 
ATOM     17  C   UNL     1      39.104 -28.383 -16.195  0.00  0.00    +0.004 C 
ENDBRANCH   4  11
BRANCH   1  18
ATOM     18  C   UNL     1      34.313 -23.256 -14.515  0.00  0.00    +0.058 C 
ATOM     19  C   UNL     1      33.922 -22.712 -17.226  0.00  0.00    +0.122 C 
ATOM     20  C   UNL     1      33.055 -23.441 -15.092  0.00  0.00    +0.017 C 
ATOM     21  C   UNL     1      35.375 -22.797 -15.298  0.00  0.00    +0.017 C 
ATOM     22  C   UNL     1      32.860 -23.170 -16.445  0.00  0.00    +0.021 C 
ATOM     23  C   UNL     1      35.180 -22.525 -16.651  0.00  0.00    +0.021 C 
BRANCH  19  24
ATOM     24  S   UNL     1      33.679 -22.372 -18.921  0.00  0.00    +0.057 S 
ATOM     25  O   UNL     1      33.851 -23.611 -19.666  0.00  0.00    -0.153 OA
ATOM     26  O   UNL     1      32.450 -21.605 -19.067  0.00  0.00    -0.153 OA
BRANCH  24  27
ATOM     27  N   UNL     1      35.007 -21.346 -19.242  0.00  0.00    -0.203 NA
ATOM     28  H   UNL     1      34.979 -21.050 -20.217  0.00  0.00    +0.144 HD
ATOM     29  H   UNL     1      35.877 -21.850 -19.065  0.00  0.00    +0.144 HD
ENDBRANCH  24  27
ENDBRANCH  19  24
ENDBRANCH   1  18
TORSDOF 4
ENDMDL
MODEL 4
REMARK VINA RESULT:     -10.2      5.014      6.917
REMARK  Name = 5288527
REMARK  4 active torsions:
REMARK  status: ('A' for Active; 'I' for Inactive)
REMARK    1  A    between atoms: N_1  and  C_18
REMARK    2  A    between atoms: C_4  and  C_11
REMARK    3  A    between atoms: C_19  and  S_24
REMARK    4  A    between atoms: S_24  and  N_27
REMARK                            x       y       z     vdW  Elec       q    Type
REMARK                         _______ _______ _______ _____ _____    ______ ____
ROOT
ATOM      1  N   UNL     1      35.035 -25.004 -12.639  0.00  0.00    -0.247 N 
ATOM      2  N   UNL     1      34.190 -23.927 -14.544  0.00  0.00    -0.336 NA
ATOM      3  N   UNL     1      32.939 -23.961 -12.485  0.00  0.00    -0.170 NA
ATOM      4  C   UNL     1      33.185 -23.217 -15.095  0.00  0.00    +0.161 C 
ATOM      5  C   UNL     1      34.004 -24.261 -13.254  0.00  0.00    +0.149 C 
ATOM      6  C   UNL     1      32.042 -22.846 -14.421  0.00  0.00    +0.056 C 
ATOM      7  C   UNL     1      31.973 -23.250 -13.104  0.00  0.00    +0.114 C 
ATOM      8  H   UNL     1      34.856 -25.225 -11.696  0.00  0.00    +0.165 HD
ENDROOT
BRANCH   4  11
ATOM      9  N   UNL     1      34.568 -22.405 -17.008  0.00  0.00    -0.246 N 
ATOM     10  N   UNL     1      33.101 -22.474 -18.696  0.00  0.00    -0.227 NA
ATOM     11  C   UNL     1      33.388 -22.862 -16.479  0.00  0.00    +0.107 C 
ATOM     12  C   UNL     1      34.342 -22.182 -18.365  0.00  0.00    +0.139 C 
ATOM     13  C   UNL     1      32.507 -22.896 -17.534  0.00  0.00    +0.118 C 
ATOM     14  C   UNL     1      35.792 -22.180 -16.384  0.00  0.00    +0.071 C 
ATOM     15  C   UNL     1      35.441 -21.697 -19.132  0.00  0.00    +0.035 C 
ATOM     16  C   UNL     1      36.822 -21.723 -17.114  0.00  0.00    +0.017 C 
ATOM     17  C   UNL     1      36.628 -21.477 -18.534  0.00  0.00    +0.004 C 
ENDBRANCH   4  11
BRANCH   1  18
ATOM     18  C   UNL     1      36.269 -25.489 -13.110  0.00  0.00    +0.058 C 
ATOM     19  C   UNL     1      38.719 -26.453 -14.042  0.00  0.00    +0.122 C 
ATOM     20  C   UNL     1      36.309 -26.372 -14.191  0.00  0.00    +0.017 C 
ATOM     21  C   UNL     1      37.459 -25.090 -12.497  0.00  0.00    +0.017 C 
ATOM     22  C   UNL     1      37.532 -26.853 -14.657  0.00  0.00    +0.021 C 
ATOM     23  C   UNL     1      38.682 -25.571 -12.962  0.00  0.00    +0.021 C 
BRANCH  19  24
ATOM     24  S   UNL     1      40.251 -27.055 -14.625  0.00  0.00    +0.057 S 
ATOM     25  O   UNL     1      41.296 -26.131 -14.207  0.00  0.00    -0.153 OA
ATOM     26  O   UNL     1      40.354 -28.466 -14.282  0.00  0.00    -0.153 OA
BRANCH  24  27
ATOM     27  N   UNL     1      40.035 -26.916 -16.314  0.00  0.00    -0.203 NA
ATOM     28  H   UNL     1      40.333 -27.780 -16.767  0.00  0.00    +0.144 HD
ATOM     29  H   UNL     1      40.593 -26.137 -16.665  0.00  0.00    +0.144 HD
ENDBRANCH  24  27
ENDBRANCH  19  24
ENDBRANCH   1  18
TORSDOF 4
ENDMDL
MODEL 5
REMARK VINA RESULT:      -9.9      1.406      1.839
REMARK  Name = 5288527
REMARK  4 active torsions:
REMARK  status: ('A' for Active; 'I' for Inactive)
REMARK    1  A    between atoms: N_1  and  C_18
REMARK    2  A    between atoms: C_4  and  C_11
REMARK    3  A    between atoms: C_19  and  S_24
REMARK    4  A    between atoms: S_24  and  N_27
REMARK                            x       y       z     vdW  Elec       q    Type
REMARK                         _______ _______ _______ _____ _____    ______ ____
ROOT
ATOM      1  N   UNL     1      33.163 -23.964 -13.855  0.00  0.00    -0.247 N 
ATOM      2  N   UNL     1      34.546 -22.997 -15.484  0.00  0.00    -0.336 NA
ATOM      3  N   UNL     1      35.486 -24.085 -13.551  0.00  0.00    -0.170 NA
ATOM      4  C   UNL     1      35.802 -22.734 -15.895  0.00  0.00    +0.161 C 
ATOM      5  C   UNL     1      34.462 -23.667 -14.320  0.00  0.00    +0.149 C 
ATOM      6  C   UNL     1      36.934 -23.105 -15.204  0.00  0.00    +0.056 C 
ATOM      7  C   UNL     1      36.713 -23.786 -14.025  0.00  0.00    +0.114 C 
ATOM      8  H   UNL     1      33.149 -24.454 -13.001  0.00  0.00    +0.165 HD
ENDROOT
BRANCH   4  11
ATOM      9  N   UNL     1      34.825 -21.739 -17.967  0.00  0.00    -0.246 N 
ATOM     10  N   UNL     1      36.633 -20.862 -18.950  0.00  0.00    -0.227 NA
ATOM     11  C   UNL     1      35.887 -22.014 -17.144  0.00  0.00    +0.107 C 
ATOM     12  C   UNL     1      35.331 -21.034 -19.056  0.00  0.00    +0.139 C 
ATOM     13  C   UNL     1      36.982 -21.466 -17.769  0.00  0.00    +0.118 C 
ATOM     14  C   UNL     1      33.480 -22.064 -17.817  0.00  0.00    +0.071 C 
ATOM     15  C   UNL     1      34.399 -20.635 -20.058  0.00  0.00    +0.035 C 
ATOM     16  C   UNL     1      32.608 -21.685 -18.765  0.00  0.00    +0.017 C 
ATOM     17  C   UNL     1      33.095 -20.947 -19.920  0.00  0.00    +0.004 C 
ENDBRANCH   4  11
BRANCH   1  18
ATOM     18  C   UNL     1      31.881 -23.697 -14.373  0.00  0.00    +0.058 C 
ATOM     19  C   UNL     1      29.339 -23.165 -15.400  0.00  0.00    +0.122 C 
ATOM     20  C   UNL     1      31.365 -24.482 -15.406  0.00  0.00    +0.017 C 
ATOM     21  C   UNL     1      31.122 -22.645 -13.855  0.00  0.00    +0.017 C 
ATOM     22  C   UNL     1      30.096 -24.217 -15.919  0.00  0.00    +0.021 C 
ATOM     23  C   UNL     1      29.853 -22.380 -14.368  0.00  0.00    +0.021 C 
BRANCH  19  24
ATOM     24  S   UNL     1      27.751 -22.832 -16.043  0.00  0.00    +0.057 S 
ATOM     25  O   UNL     1      26.793 -22.883 -14.947  0.00  0.00    -0.153 OA
ATOM     26  O   UNL     1      27.829 -21.644 -16.880  0.00  0.00    -0.153 OA
BRANCH  24  27
ATOM     27  N   UNL     1      27.512 -24.195 -17.046  0.00  0.00    -0.203 NA
ATOM     28  H   UNL     1      27.377 -23.889 -18.009  0.00  0.00    +0.144 HD
ATOM     29  H   UNL     1      26.687 -24.708 -16.733  0.00  0.00    +0.144 HD
ENDBRANCH  24  27
ENDBRANCH  19  24
ENDBRANCH   1  18
TORSDOF 4
ENDMDL
MODEL 6
REMARK VINA RESULT:      -9.7      3.956      6.693
REMARK  Name = 5288527
REMARK  4 active torsions:
REMARK  status: ('A' for Active; 'I' for Inactive)
REMARK    1  A    between atoms: N_1  and  C_18
REMARK    2  A    between atoms: C_4  and  C_11
REMARK    3  A    between atoms: C_19  and  S_24
REMARK    4  A    between atoms: S_24  and  N_27
REMARK                            x       y       z     vdW  Elec       q    Type
REMARK                         _______ _______ _______ _____ _____    ______ ____
ROOT
ATOM      1  N   UNL     1      32.382 -22.371 -17.680  0.00  0.00    -0.247 N 
ATOM      2  N   UNL     1      33.915 -22.880 -15.978  0.00  0.00    -0.336 NA
ATOM      3  N   UNL     1      31.648 -23.690 -15.884  0.00  0.00    -0.170 NA
ATOM      4  C   UNL     1      34.143 -23.506 -14.807  0.00  0.00    +0.161 C 
ATOM      5  C   UNL     1      32.662 -23.012 -16.453  0.00  0.00    +0.149 C 
ATOM      6  C   UNL     1      33.195 -24.232 -14.121  0.00  0.00    +0.056 C 
ATOM      7  C   UNL     1      31.950 -24.290 -14.714  0.00  0.00    +0.114 C 
ATOM      8  H   UNL     1      31.455 -22.494 -17.989  0.00  0.00    +0.165 HD
ENDROOT
BRANCH   4  11
ATOM      9  N   UNL     1      35.896 -23.714 -13.039  0.00  0.00    -0.246 N 
ATOM     10  N   UNL     1      37.699 -22.902 -14.085  0.00  0.00    -0.227 NA
ATOM     11  C   UNL     1      35.487 -23.361 -14.301  0.00  0.00    +0.107 C 
ATOM     12  C   UNL     1      37.253 -23.414 -12.957  0.00  0.00    +0.139 C 
ATOM     13  C   UNL     1      36.611 -22.867 -14.920  0.00  0.00    +0.118 C 
ATOM     14  C   UNL     1      35.163 -24.266 -11.993  0.00  0.00    +0.071 C 
ATOM     15  C   UNL     1      37.904 -23.699 -11.721  0.00  0.00    +0.035 C 
ATOM     16  C   UNL     1      35.783 -24.531 -10.832  0.00  0.00    +0.017 C 
ATOM     17  C   UNL     1      37.201 -24.233 -10.703  0.00  0.00    +0.004 C 
ENDBRANCH   4  11
BRANCH   1  18
ATOM     18  C   UNL     1      33.168 -21.591 -18.548  0.00  0.00    +0.058 C 
ATOM     19  C   UNL     1      34.730 -20.044 -20.271  0.00  0.00    +0.122 C 
ATOM     20  C   UNL     1      32.558 -20.767 -19.496  0.00  0.00    +0.017 C 
ATOM     21  C   UNL     1      34.562 -21.639 -18.465  0.00  0.00    +0.017 C 
ATOM     22  C   UNL     1      33.338 -19.995 -20.356  0.00  0.00    +0.021 C 
ATOM     23  C   UNL     1      35.341 -20.867 -19.325  0.00  0.00    +0.021 C 
BRANCH  19  24
ATOM     24  S   UNL     1      35.706 -19.078 -21.348  0.00  0.00    +0.057 S 
ATOM     25  O   UNL     1      35.456 -19.518 -22.714  0.00  0.00    -0.153 OA
ATOM     26  O   UNL     1      35.533 -17.676 -20.998  0.00  0.00    -0.153 OA
BRANCH  24  27
ATOM     27  N   UNL     1      37.279 -19.567 -20.891  0.00  0.00    -0.203 NA
ATOM     28  H   UNL     1      37.894 -19.535 -21.703  0.00  0.00    +0.144 HD
ATOM     29  H   UNL     1      37.245 -20.520 -20.526  0.00  0.00    +0.144 HD
ENDBRANCH  24  27
ENDBRANCH  19  24
ENDBRANCH   1  18
TORSDOF 4
ENDMDL
MODEL 7
REMARK VINA RESULT:      -9.6      2.663      4.320
REMARK  Name = 5288527
REMARK  4 active torsions:
REMARK  status: ('A' for Active; 'I' for Inactive)
REMARK    1  A    between atoms: N_1  and  C_18
REMARK    2  A    between atoms: C_4  and  C_11
REMARK    3  A    between atoms: C_19  and  S_24
REMARK    4  A    between atoms: S_24  and  N_27
REMARK                            x       y       z     vdW  Elec       q    Type
REMARK                         _______ _______ _______ _____ _____    ______ ____
ROOT
ATOM      1  N   UNL     1      34.239 -23.157 -15.492  0.00  0.00    -0.247 N 
ATOM      2  N   UNL     1      34.551 -21.970 -17.491  0.00  0.00    -0.336 NA
ATOM      3  N   UNL     1      36.433 -22.651 -16.150  0.00  0.00    -0.170 NA
ATOM      4  C   UNL     1      35.422 -21.416 -18.358  0.00  0.00    +0.161 C 
ATOM      5  C   UNL     1      35.118 -22.563 -16.424  0.00  0.00    +0.149 C 
ATOM      6  C   UNL     1      36.790 -21.435 -18.196  0.00  0.00    +0.056 C 
ATOM      7  C   UNL     1      37.244 -22.074 -17.061  0.00  0.00    +0.114 C 
ATOM      8  H   UNL     1      34.696 -23.579 -14.729  0.00  0.00    +0.165 HD
ENDROOT
BRANCH   4  11
ATOM      9  N   UNL     1      35.454 -19.936 -20.369  0.00  0.00    -0.246 N 
ATOM     10  N   UNL     1      33.342 -20.098 -21.089  0.00  0.00    -0.227 NA
ATOM     11  C   UNL     1      34.810 -20.780 -19.500  0.00  0.00    +0.107 C 
ATOM     12  C   UNL     1      34.515 -19.546 -21.322  0.00  0.00    +0.139 C 
ATOM     13  C   UNL     1      33.519 -20.863 -19.964  0.00  0.00    +0.118 C 
ATOM     14  C   UNL     1      36.777 -19.505 -20.370  0.00  0.00    +0.071 C 
ATOM     15  C   UNL     1      34.961 -18.656 -22.342  0.00  0.00    +0.035 C 
ATOM     16  C   UNL     1      37.189 -18.666 -21.334  0.00  0.00    +0.017 C 
ATOM     17  C   UNL     1      36.240 -18.234 -22.348  0.00  0.00    +0.004 C 
ENDBRANCH   4  11
BRANCH   1  18
ATOM     18  C   UNL     1      32.836 -23.266 -15.441  0.00  0.00    +0.058 C 
ATOM     19  C   UNL     1      30.054 -23.482 -15.338  0.00  0.00    +0.122 C 
ATOM     20  C   UNL     1      32.060 -22.842 -16.522  0.00  0.00    +0.017 C 
ATOM     21  C   UNL     1      32.216 -23.799 -14.309  0.00  0.00    +0.017 C 
ATOM     22  C   UNL     1      30.671 -22.950 -16.470  0.00  0.00    +0.021 C 
ATOM     23  C   UNL     1      30.827 -23.907 -14.257  0.00  0.00    +0.021 C 
BRANCH  19  24
ATOM     24  S   UNL     1      28.315 -23.617 -15.273  0.00  0.00    +0.057 S 
ATOM     25  O   UNL     1      27.975 -24.790 -14.479  0.00  0.00    -0.153 OA
ATOM     26  O   UNL     1      27.763 -22.318 -14.916  0.00  0.00    -0.153 OA
BRANCH  24  27
ATOM     27  N   UNL     1      27.950 -23.935 -16.912  0.00  0.00    -0.203 NA
ATOM     28  H   UNL     1      27.629 -23.078 -17.361  0.00  0.00    +0.144 HD
ATOM     29  H   UNL     1      27.218 -24.644 -16.966  0.00  0.00    +0.144 HD
ENDBRANCH  24  27
ENDBRANCH  19  24
ENDBRANCH   1  18
TORSDOF 4
ENDMDL
MODEL 8
REMARK VINA RESULT:      -9.3      4.023      5.970
REMARK  Name = 5288527
REMARK  4 active torsions:
REMARK  status: ('A' for Active; 'I' for Inactive)
REMARK    1  A    between atoms: N_1  and  C_18
REMARK    2  A    between atoms: C_4  and  C_11
REMARK    3  A    between atoms: C_19  and  S_24
REMARK    4  A    between atoms: S_24  and  N_27
REMARK                            x       y       z     vdW  Elec       q    Type
REMARK                         _______ _______ _______ _____ _____    ______ ____
ROOT
ATOM      1  N   UNL     1      35.651 -23.129 -13.288  0.00  0.00    -0.247 N 
ATOM      2  N   UNL     1      36.575 -25.283 -13.367  0.00  0.00    -0.336 NA
ATOM      3  N   UNL     1      36.595 -24.002 -11.326  0.00  0.00    -0.170 NA
ATOM      4  C   UNL     1      37.200 -26.275 -12.701  0.00  0.00    +0.161 C 
ATOM      5  C   UNL     1      36.306 -24.191 -12.628  0.00  0.00    +0.149 C 
ATOM      6  C   UNL     1      37.551 -26.210 -11.371  0.00  0.00    +0.056 C 
ATOM      7  C   UNL     1      37.220 -25.037 -10.726  0.00  0.00    +0.114 C 
ATOM      8  H   UNL     1      35.474 -22.351 -12.710  0.00  0.00    +0.165 HD
ENDROOT
BRANCH   4  11
ATOM      9  N   UNL     1      38.549 -27.569 -14.357  0.00  0.00    -0.246 N 
ATOM     10  N   UNL     1      37.418 -29.496 -14.463  0.00  0.00    -0.227 NA
ATOM     11  C   UNL     1      37.487 -27.444 -13.497  0.00  0.00    +0.107 C 
ATOM     12  C   UNL     1      38.463 -28.839 -14.922  0.00  0.00    +0.139 C 
ATOM     13  C   UNL     1      36.811 -28.638 -13.581  0.00  0.00    +0.118 C 
ATOM     14  C   UNL     1      39.556 -26.657 -14.660  0.00  0.00    +0.071 C 
ATOM     15  C   UNL     1      39.474 -29.199 -15.860  0.00  0.00    +0.035 C 
ATOM     16  C   UNL     1      40.504 -27.003 -15.545  0.00  0.00    +0.017 C 
ATOM     17  C   UNL     1      40.451 -28.321 -16.159  0.00  0.00    +0.004 C 
ENDBRANCH   4  11
BRANCH   1  18
ATOM     18  C   UNL     1      35.199 -22.963 -14.611  0.00  0.00    +0.058 C 
ATOM     19  C   UNL     1      34.306 -22.635 -17.236  0.00  0.00    +0.122 C 
ATOM     20  C   UNL     1      33.890 -23.308 -14.953  0.00  0.00    +0.017 C 
ATOM     21  C   UNL     1      36.060 -22.453 -15.586  0.00  0.00    +0.017 C 
ATOM     22  C   UNL     1      33.444 -23.145 -16.264  0.00  0.00    +0.021 C 
ATOM     23  C   UNL     1      35.614 -22.289 -16.896  0.00  0.00    +0.021 C 
BRANCH  19  24
ATOM     24  S   UNL     1      33.747 -22.430 -18.878  0.00  0.00    +0.057 S 
ATOM     25  O   UNL     1      33.860 -23.710 -19.563  0.00  0.00    -0.153 OA
ATOM     26  O   UNL     1      32.469 -21.735 -18.849  0.00  0.00    -0.153 OA
BRANCH  24  27
ATOM     27  N   UNL     1      34.935 -21.367 -19.496  0.00  0.00    -0.203 NA
ATOM     28  H   UNL     1      35.082 -20.603 -18.838  0.00  0.00    +0.144 HD
ATOM     29  H   UNL     1      34.621 -20.991 -20.391  0.00  0.00    +0.144 HD
ENDBRANCH  24  27
ENDBRANCH  19  24
ENDBRANCH   1  18
TORSDOF 4
ENDMDL
MODEL 9
REMARK VINA RESULT:      -9.1      9.230     12.299
REMARK  Name = 5288527
REMARK  4 active torsions:
REMARK  status: ('A' for Active; 'I' for Inactive)
REMARK    1  A    between atoms: N_1  and  C_18
REMARK    2  A    between atoms: C_4  and  C_11
REMARK    3  A    between atoms: C_19  and  S_24
REMARK    4  A    between atoms: S_24  and  N_27
REMARK                            x       y       z     vdW  Elec       q    Type
REMARK                         _______ _______ _______ _____ _____    ______ ____
ROOT
ATOM      1  N   UNL     1      34.655 -16.714 -24.232  0.00  0.00    -0.247 N 
ATOM      2  N   UNL     1      33.744 -14.906 -23.047  0.00  0.00    -0.336 NA
ATOM      3  N   UNL     1      34.080 -14.780 -25.430  0.00  0.00    -0.170 NA
ATOM      4  C   UNL     1      33.252 -13.652 -23.092  0.00  0.00    +0.161 C 
ATOM      5  C   UNL     1      34.134 -15.402 -24.236  0.00  0.00    +0.149 C 
ATOM      6  C   UNL     1      33.142 -12.907 -24.245  0.00  0.00    +0.056 C 
ATOM      7  C   UNL     1      33.577 -13.529 -25.397  0.00  0.00    +0.114 C 
ATOM      8  H   UNL     1      34.927 -17.036 -25.122  0.00  0.00    +0.165 HD
ENDROOT
BRANCH   4  11
ATOM      9  N   UNL     1      32.457 -11.826 -21.585  0.00  0.00    -0.246 N 
ATOM     10  N   UNL     1      32.292 -12.890 -19.624  0.00  0.00    -0.227 NA
ATOM     11  C   UNL     1      32.836 -13.124 -21.814  0.00  0.00    +0.107 C 
ATOM     12  C   UNL     1      32.134 -11.733 -20.234  0.00  0.00    +0.139 C 
ATOM     13  C   UNL     1      32.726 -13.754 -20.597  0.00  0.00    +0.118 C 
ATOM     14  C   UNL     1      32.382 -10.755 -22.472  0.00  0.00    +0.071 C 
ATOM     15  C   UNL     1      31.707 -10.459 -19.758  0.00  0.00    +0.035 C 
ATOM     16  C   UNL     1      31.979  -9.559 -22.015  0.00  0.00    +0.017 C 
ATOM     17  C   UNL     1      31.632  -9.418 -20.609  0.00  0.00    +0.004 C 
ENDBRANCH   4  11
BRANCH   1  18
ATOM     18  C   UNL     1      34.861 -17.654 -23.205  0.00  0.00    +0.058 C 
ATOM     19  C   UNL     1      35.268 -19.520 -21.167  0.00  0.00    +0.122 C 
ATOM     20  C   UNL     1      35.758 -17.378 -22.171  0.00  0.00    +0.017 C 
ATOM     21  C   UNL     1      34.168 -18.867 -23.216  0.00  0.00    +0.017 C 
ATOM     22  C   UNL     1      35.961 -18.309 -21.154  0.00  0.00    +0.021 C 
ATOM     23  C   UNL     1      34.372 -19.799 -22.199  0.00  0.00    +0.021 C 
BRANCH  19  24
ATOM     24  S   UNL     1      35.524 -20.687 -19.894  0.00  0.00    +0.057 S 
ATOM     25  O   UNL     1      35.791 -21.982 -20.505  0.00  0.00    -0.153 OA
ATOM     26  O   UNL     1      36.469 -20.130 -18.938  0.00  0.00    -0.153 OA
BRANCH  24  27
ATOM     27  N   UNL     1      33.975 -20.727 -19.173  0.00  0.00    -0.203 NA
ATOM     28  H   UNL     1      34.056 -21.058 -18.212  0.00  0.00    +0.144 HD
ATOM     29  H   UNL     1      33.370 -21.358 -19.701  0.00  0.00    +0.144 HD
ENDBRANCH  24  27
ENDBRANCH  19  24
ENDBRANCH   1  18
TORSDOF 4
ENDMDL
