MODEL 1
REMARK VINA RESULT:     -11.9      0.000      0.000
REMARK  Name = 445480
REMARK  5 active torsions:
REMARK  status: ('A' for Active; 'I' for Inactive)
REMARK    1  A    between atoms: N_2  and  C_21
REMARK    2  A    between atoms: C_3  and  N_7
REMARK    3  A    between atoms: N_7  and  S_9
REMARK    4  A    between atoms: S_9  and  C_14
REMARK    5  A    between atoms: C_21  and  C_24
REMARK                            x       y       z     vdW  Elec       q    Type
REMARK                         _______ _______ _______ _____ _____    ______ ____
ROOT
ATOM      1  O   UNL     1      36.466 -20.694 -19.173  0.00  0.00    -0.273 OA
ATOM      2  N   UNL     1      35.192 -19.623 -20.834  0.00  0.00    -0.274 N 
ATOM      3  C   UNL     1      34.140 -21.274 -19.571  0.00  0.00    +0.153 C 
ATOM      4  C   UNL     1      33.088 -20.396 -20.237  0.00  0.00    +0.048 C 
ATOM      5  C   UNL     1      33.850 -19.719 -21.361  0.00  0.00    +0.096 C 
ATOM      6  C   UNL     1      35.425 -20.515 -19.788  0.00  0.00    +0.242 C 
ENDROOT
BRANCH   3   7
ATOM      7  N   UNL     1      33.887 -21.401 -18.131  0.00  0.00    -0.171 NA
ATOM      8  H   UNL     1      34.782 -21.288 -17.654  0.00  0.00    +0.149 HD
BRANCH   7   9
ATOM      9  S   UNL     1      33.186 -22.858 -17.560  0.00  0.00    +0.066 S 
ATOM     10  O   UNL     1      33.636 -23.962 -18.388  0.00  0.00    -0.152 OA
ATOM     11  O   UNL     1      31.777 -22.638 -17.300  0.00  0.00    -0.152 OA
BRANCH   9  14
ATOM     12  S   UNL     1      35.508 -22.757 -15.793  0.00  0.00    -0.066 S 
ATOM     13  N   UNL     1      34.044 -24.192 -12.487  0.00  0.00    -0.243 NA
ATOM     14  C   UNL     1      33.872 -23.171 -15.933  0.00  0.00    +0.153 C 
ATOM     15  C   UNL     1      33.327 -23.675 -14.803  0.00  0.00    +0.046 C 
ATOM     16  C   UNL     1      34.284 -23.734 -13.747  0.00  0.00    +0.089 C 
ATOM     17  C   UNL     1      35.534 -23.260 -14.150  0.00  0.00    +0.048 C 
ATOM     18  C   UNL     1      36.603 -23.241 -13.243  0.00  0.00    +0.010 C 
ATOM     19  C   UNL     1      36.364 -23.708 -11.958  0.00  0.00    +0.021 C 
ATOM     20  C   UNL     1      35.095 -24.160 -11.644  0.00  0.00    +0.099 C 
ENDBRANCH   9  14
ENDBRANCH   7   9
ENDBRANCH   3   7
BRANCH   2  21
ATOM     21  C   UNL     1      36.185 -18.767 -21.445  0.00  0.00    +0.120 C 
BRANCH  21  24
ATOM     22  N   UNL     1      33.624 -13.229 -22.514  0.00  0.00    -0.230 NA
ATOM     23  N   UNL     1      34.491 -13.986 -20.460  0.00  0.00    -0.343 N 
ATOM     24  C   UNL     1      35.525 -17.683 -22.250  0.00  0.00    -0.002 C 
ATOM     25  C   UNL     1      35.196 -16.480 -21.639  0.00  0.00    +0.000 C 
ATOM     26  C   UNL     1      35.250 -17.899 -23.592  0.00  0.00    -0.003 C 
ATOM     27  C   UNL     1      34.576 -15.463 -22.384  0.00  0.00    +0.031 C 
ATOM     28  C   UNL     1      34.291 -15.669 -23.750  0.00  0.00    +0.004 C 
ATOM     29  C   UNL     1      34.634 -16.896 -24.342  0.00  0.00    -0.000 C 
ATOM     30  C   UNL     1      34.220 -14.232 -21.831  0.00  0.00    +0.125 C 
ATOM     31  C   UNL     1      33.673 -14.643 -24.476  0.00  0.00    +0.021 C 
ATOM     32  C   UNL     1      33.366 -13.462 -23.819  0.00  0.00    +0.100 C 
ATOM     33  H   UNL     1      34.245 -13.123 -20.056  0.00  0.00    +0.144 HD
ATOM     34  H   UNL     1      34.924 -14.680 -19.912  0.00  0.00    +0.144 HD
ENDBRANCH  21  24
ENDBRANCH   2  21
TORSDOF 5
ENDMDL
MODEL 2
REMARK VINA RESULT:     -11.6      2.890     10.378
REMARK  Name = 445480
REMARK  5 active torsions:
REMARK  status: ('A' for Active; 'I' for Inactive)
REMARK    1  A    between atoms: N_2  and  C_21
REMARK    2  A    between atoms: C_3  and  N_7
REMARK    3  A    between atoms: N_7  and  S_9
REMARK    4  A    between atoms: S_9  and  C_14
REMARK    5  A    between atoms: C_21  and  C_24
REMARK                            x       y       z     vdW  Elec       q    Type
REMARK                         _______ _______ _______ _____ _____    ______ ____
ROOT
ATOM      1  O   UNL     1      36.070 -21.251 -19.827  0.00  0.00    -0.273 OA
ATOM      2  N   UNL     1      33.906 -21.893 -19.166  0.00  0.00    -0.274 N 
ATOM      3  C   UNL     1      34.141 -19.820 -20.203  0.00  0.00    +0.153 C 
ATOM      4  C   UNL     1      32.685 -20.263 -20.274  0.00  0.00    +0.048 C 
ATOM      5  C   UNL     1      32.581 -21.319 -19.190  0.00  0.00    +0.096 C 
ATOM      6  C   UNL     1      34.866 -21.059 -19.738  0.00  0.00    +0.242 C 
ENDROOT
BRANCH   3   7
ATOM      7  N   UNL     1      34.641 -19.432 -21.527  0.00  0.00    -0.171 NA
ATOM      8  H   UNL     1      35.018 -20.272 -21.967  0.00  0.00    +0.149 HD
BRANCH   7   9
ATOM      9  S   UNL     1      35.855 -18.224 -21.610  0.00  0.00    +0.066 S 
ATOM     10  O   UNL     1      36.951 -18.703 -22.431  0.00  0.00    -0.152 OA
ATOM     11  O   UNL     1      36.086 -17.692 -20.282  0.00  0.00    -0.152 OA
BRANCH   9  14
ATOM     12  S   UNL     1      34.913 -15.461 -21.548  0.00  0.00    -0.066 S 
ATOM     13  N   UNL     1      33.832 -14.917 -25.246  0.00  0.00    -0.243 NA
ATOM     14  C   UNL     1      35.158 -16.836 -22.507  0.00  0.00    +0.153 C 
ATOM     15  C   UNL     1      34.794 -16.686 -23.800  0.00  0.00    +0.046 C 
ATOM     16  C   UNL     1      34.281 -15.377 -24.046  0.00  0.00    +0.089 C 
ATOM     17  C   UNL     1      34.287 -14.591 -22.892  0.00  0.00    +0.048 C 
ATOM     18  C   UNL     1      33.819 -13.270 -22.941  0.00  0.00    +0.010 C 
ATOM     19  C   UNL     1      33.360 -12.796 -24.162  0.00  0.00    +0.021 C 
ATOM     20  C   UNL     1      33.389 -13.644 -25.254  0.00  0.00    +0.099 C 
ENDBRANCH   9  14
ENDBRANCH   7   9
ENDBRANCH   3   7
BRANCH   2  21
ATOM     21  C   UNL     1      34.176 -23.146 -18.495  0.00  0.00    +0.120 C 
BRANCH  21  24
ATOM     22  N   UNL     1      29.752 -22.984 -14.161  0.00  0.00    -0.230 NA
ATOM     23  N   UNL     1      29.417 -22.950 -16.491  0.00  0.00    -0.343 N 
ATOM     24  C   UNL     1      33.603 -23.134 -17.105  0.00  0.00    -0.002 C 
ATOM     25  C   UNL     1      32.227 -23.073 -16.931  0.00  0.00    +0.000 C 
ATOM     26  C   UNL     1      34.458 -23.181 -16.013  0.00  0.00    -0.003 C 
ATOM     27  C   UNL     1      31.685 -23.060 -15.635  0.00  0.00    +0.031 C 
ATOM     28  C   UNL     1      32.543 -23.107 -14.516  0.00  0.00    +0.004 C 
ATOM     29  C   UNL     1      33.931 -23.168 -14.721  0.00  0.00    -0.000 C 
ATOM     30  C   UNL     1      30.312 -23.000 -15.392  0.00  0.00    +0.125 C 
ATOM     31  C   UNL     1      31.983 -23.092 -13.233  0.00  0.00    +0.021 C 
ATOM     32  C   UNL     1      30.604 -23.032 -13.114  0.00  0.00    +0.100 C 
ATOM     33  H   UNL     1      28.446 -22.907 -16.334  0.00  0.00    +0.144 HD
ATOM     34  H   UNL     1      29.767 -22.959 -17.411  0.00  0.00    +0.144 HD
ENDBRANCH  21  24
ENDBRANCH   2  21
TORSDOF 5
ENDMDL
MODEL 3
REMARK VINA RESULT:     -11.4      5.785     11.613
REMARK  Name = 445480
REMARK  5 active torsions:
REMARK  status: ('A' for Active; 'I' for Inactive)
REMARK    1  A    between atoms: N_2  and  C_21
REMARK    2  A    between atoms: C_3  and  N_7
REMARK    3  A    between atoms: N_7  and  S_9
REMARK    4  A    between atoms: S_9  and  C_14
REMARK    5  A    between atoms: C_21  and  C_24
REMARK                            x       y       z     vdW  Elec       q    Type
REMARK                         _______ _______ _______ _____ _____    ______ ____
ROOT
ATOM      1  O   UNL     1      33.924 -15.407 -25.315  0.00  0.00    -0.273 OA
ATOM      2  N   UNL     1      34.560 -16.350 -23.257  0.00  0.00    -0.274 N 
ATOM      3  C   UNL     1      34.417 -14.027 -23.376  0.00  0.00    +0.153 C 
ATOM      4  C   UNL     1      34.373 -14.467 -21.917  0.00  0.00    +0.048 C 
ATOM      5  C   UNL     1      34.948 -15.870 -21.951  0.00  0.00    +0.096 C 
ATOM      6  C   UNL     1      34.246 -15.317 -24.139  0.00  0.00    +0.242 C 
ENDROOT
BRANCH   3   7
ATOM      7  N   UNL     1      33.304 -13.124 -23.689  0.00  0.00    -0.171 NA
ATOM      8  H   UNL     1      32.613 -13.663 -24.211  0.00  0.00    +0.149 HD
BRANCH   7   9
ATOM      9  S   UNL     1      33.642 -11.712 -24.600  0.00  0.00    +0.066 S 
ATOM     10  O   UNL     1      32.684 -11.602 -25.685  0.00  0.00    -0.152 OA
ATOM     11  O   UNL     1      35.069 -11.636 -24.846  0.00  0.00    -0.152 OA
BRANCH   9  14
ATOM     12  S   UNL     1      34.350  -8.991 -23.815  0.00  0.00    -0.066 S 
ATOM     13  N   UNL     1      31.782  -8.299 -20.976  0.00  0.00    -0.243 NA
ATOM     14  C   UNL     1      33.321 -10.306 -23.535  0.00  0.00    +0.153 C 
ATOM     15  C   UNL     1      32.413 -10.104 -22.554  0.00  0.00    +0.046 C 
ATOM     16  C   UNL     1      32.548  -8.803 -21.983  0.00  0.00    +0.089 C 
ATOM     17  C   UNL     1      33.578  -8.076 -22.581  0.00  0.00    +0.048 C 
ATOM     18  C   UNL     1      33.859  -6.772 -22.150  0.00  0.00    +0.010 C 
ATOM     19  C   UNL     1      33.082  -6.253 -21.123  0.00  0.00    +0.021 C 
ATOM     20  C   UNL     1      32.082  -7.043 -20.587  0.00  0.00    +0.099 C 
ENDBRANCH   9  14
ENDBRANCH   7   9
ENDBRANCH   3   7
BRANCH   2  21
ATOM     21  C   UNL     1      34.631 -17.754 -23.599  0.00  0.00    +0.120 C 
BRANCH  21  24
ATOM     22  N   UNL     1      34.176 -21.566 -18.737  0.00  0.00    -0.230 NA
ATOM     23  N   UNL     1      32.406 -20.858 -20.119  0.00  0.00    -0.343 N 
ATOM     24  C   UNL     1      35.114 -18.560 -22.425  0.00  0.00    -0.002 C 
ATOM     25  C   UNL     1      34.206 -19.305 -21.685  0.00  0.00    +0.000 C 
ATOM     26  C   UNL     1      36.461 -18.546 -22.094  0.00  0.00    -0.003 C 
ATOM     27  C   UNL     1      34.649 -20.058 -20.586  0.00  0.00    +0.031 C 
ATOM     28  C   UNL     1      36.016 -20.054 -20.238  0.00  0.00    +0.004 C 
ATOM     29  C   UNL     1      36.913 -19.290 -21.004  0.00  0.00    -0.000 C 
ATOM     30  C   UNL     1      33.788 -20.828 -19.802  0.00  0.00    +0.125 C 
ATOM     31  C   UNL     1      36.438 -20.811 -19.139  0.00  0.00    +0.021 C 
ATOM     32  C   UNL     1      35.491 -21.537 -18.435  0.00  0.00    +0.100 C 
ATOM     33  H   UNL     1      31.787 -21.397 -19.574  0.00  0.00    +0.144 HD
ATOM     34  H   UNL     1      32.065 -20.341 -20.884  0.00  0.00    +0.144 HD
ENDBRANCH  21  24
ENDBRANCH   2  21
TORSDOF 5
ENDMDL
MODEL 4
REMARK VINA RESULT:     -11.3      2.752     10.447
REMARK  Name = 445480
REMARK  5 active torsions:
REMARK  status: ('A' for Active; 'I' for Inactive)
REMARK    1  A    between atoms: N_2  and  C_21
REMARK    2  A    between atoms: C_3  and  N_7
REMARK    3  A    between atoms: N_7  and  S_9
REMARK    4  A    between atoms: S_9  and  C_14
REMARK    5  A    between atoms: C_21  and  C_24
REMARK                            x       y       z     vdW  Elec       q    Type
REMARK                         _______ _______ _______ _____ _____    ______ ____
ROOT
ATOM      1  O   UNL     1      32.405 -20.508 -19.985  0.00  0.00    -0.273 OA
ATOM      2  N   UNL     1      33.873 -21.771 -18.652  0.00  0.00    -0.274 N 
ATOM      3  C   UNL     1      34.792 -20.582 -20.433  0.00  0.00    +0.153 C 
ATOM      4  C   UNL     1      35.890 -20.938 -19.437  0.00  0.00    +0.048 C 
ATOM      5  C   UNL     1      35.286 -22.073 -18.632  0.00  0.00    +0.096 C 
ATOM      6  C   UNL     1      33.521 -20.909 -19.690  0.00  0.00    +0.242 C 
ENDROOT
BRANCH   3   7
ATOM      7  N   UNL     1      34.814 -19.150 -20.754  0.00  0.00    -0.171 NA
ATOM      8  H   UNL     1      33.845 -18.838 -20.816  0.00  0.00    +0.149 HD
BRANCH   7   9
ATOM      9  S   UNL     1      35.600 -18.659 -22.196  0.00  0.00    +0.066 S 
ATOM     10  O   UNL     1      35.120 -19.466 -23.302  0.00  0.00    -0.152 OA
ATOM     11  O   UNL     1      37.018 -18.506 -21.936  0.00  0.00    -0.152 OA
BRANCH   9  14
ATOM     12  S   UNL     1      34.484 -16.782 -24.134  0.00  0.00    -0.066 S 
ATOM     13  N   UNL     1      34.320 -13.503 -22.047  0.00  0.00    -0.243 NA
ATOM     14  C   UNL     1      35.053 -16.989 -22.552  0.00  0.00    +0.153 C 
ATOM     15  C   UNL     1      35.012 -15.870 -21.794  0.00  0.00    +0.046 C 
ATOM     16  C   UNL     1      34.488 -14.765 -22.530  0.00  0.00    +0.089 C 
ATOM     17  C   UNL     1      34.153 -15.121 -23.837  0.00  0.00    +0.048 C 
ATOM     18  C   UNL     1      33.620 -14.163 -24.711  0.00  0.00    +0.010 C 
ATOM     19  C   UNL     1      33.447 -12.874 -24.224  0.00  0.00    +0.021 C 
ATOM     20  C   UNL     1      33.806 -12.609 -22.915  0.00  0.00    +0.099 C 
ENDBRANCH   9  14
ENDBRANCH   7   9
ENDBRANCH   3   7
BRANCH   2  21
ATOM     21  C   UNL     1      32.948 -22.421 -17.749  0.00  0.00    +0.120 C 
BRANCH  21  24
ATOM     22  N   UNL     1      37.710 -23.248 -13.874  0.00  0.00    -0.230 NA
ATOM     23  N   UNL     1      37.843 -22.475 -16.094  0.00  0.00    -0.343 N 
ATOM     24  C   UNL     1      33.635 -22.787 -16.463  0.00  0.00    -0.002 C 
ATOM     25  C   UNL     1      35.016 -22.676 -16.368  0.00  0.00    +0.000 C 
ATOM     26  C   UNL     1      32.881 -23.234 -15.388  0.00  0.00    -0.003 C 
ATOM     27  C   UNL     1      35.665 -23.018 -15.170  0.00  0.00    +0.031 C 
ATOM     28  C   UNL     1      34.910 -23.473 -14.069  0.00  0.00    +0.004 C 
ATOM     29  C   UNL     1      33.515 -23.577 -14.193  0.00  0.00    -0.000 C 
ATOM     30  C   UNL     1      37.049 -22.929 -15.009  0.00  0.00    +0.125 C 
ATOM     31  C   UNL     1      35.576 -23.810 -12.884  0.00  0.00    +0.021 C 
ATOM     32  C   UNL     1      36.955 -23.680 -12.842  0.00  0.00    +0.100 C 
ATOM     33  H   UNL     1      38.820 -22.407 -15.995  0.00  0.00    +0.144 HD
ATOM     34  H   UNL     1      37.416 -22.227 -16.946  0.00  0.00    +0.144 HD
ENDBRANCH  21  24
ENDBRANCH   2  21
TORSDOF 5
ENDMDL
MODEL 5
REMARK VINA RESULT:     -11.3      3.317     10.814
REMARK  Name = 445480
REMARK  5 active torsions:
REMARK  status: ('A' for Active; 'I' for Inactive)
REMARK    1  A    between atoms: N_2  and  C_21
REMARK    2  A    between atoms: C_3  and  N_7
REMARK    3  A    between atoms: N_7  and  S_9
REMARK    4  A    between atoms: S_9  and  C_14
REMARK    5  A    between atoms: C_21  and  C_24
REMARK                            x       y       z     vdW  Elec       q    Type
REMARK                         _______ _______ _______ _____ _____    ______ ____
ROOT
ATOM      1  O   UNL     1      36.845 -22.589 -14.920  0.00  0.00    -0.273 OA
ATOM      2  N   UNL     1      35.331 -24.004 -13.808  0.00  0.00    -0.274 N 
ATOM      3  C   UNL     1      34.538 -22.818 -15.651  0.00  0.00    +0.153 C 
ATOM      4  C   UNL     1      33.608 -23.990 -15.360  0.00  0.00    +0.048 C 
ATOM      5  C   UNL     1      33.935 -24.356 -13.925  0.00  0.00    +0.096 C 
ATOM      6  C   UNL     1      35.742 -23.098 -14.786  0.00  0.00    +0.242 C 
ENDROOT
BRANCH   3   7
ATOM      7  N   UNL     1      34.944 -22.802 -17.060  0.00  0.00    -0.171 NA
ATOM      8  H   UNL     1      35.633 -22.058 -17.170  0.00  0.00    +0.149 HD
BRANCH   7   9
ATOM      9  S   UNL     1      33.732 -22.552 -18.247  0.00  0.00    +0.066 S 
ATOM     10  O   UNL     1      32.563 -21.965 -17.620  0.00  0.00    -0.152 OA
ATOM     11  O   UNL     1      33.626 -23.738 -19.074  0.00  0.00    -0.152 OA
BRANCH   9  14
ATOM     12  S   UNL     1      36.013 -21.026 -19.242  0.00  0.00    -0.066 S 
ATOM     13  N   UNL     1      34.341 -18.792 -21.952  0.00  0.00    -0.243 NA
ATOM     14  C   UNL     1      34.347 -21.303 -19.375  0.00  0.00    +0.153 C 
ATOM     15  C   UNL     1      33.730 -20.543 -20.308  0.00  0.00    +0.046 C 
ATOM     16  C   UNL     1      34.654 -19.677 -20.966  0.00  0.00    +0.089 C 
ATOM     17  C   UNL     1      35.952 -19.835 -20.479  0.00  0.00    +0.048 C 
ATOM     18  C   UNL     1      36.998 -19.065 -21.008  0.00  0.00    +0.010 C 
ATOM     19  C   UNL     1      36.686 -18.160 -22.013  0.00  0.00    +0.021 C 
ATOM     20  C   UNL     1      35.372 -18.069 -22.436  0.00  0.00    +0.099 C 
ENDBRANCH   9  14
ENDBRANCH   7   9
ENDBRANCH   3   7
BRANCH   2  21
ATOM     21  C   UNL     1      36.138 -24.468 -12.701  0.00  0.00    +0.120 C 
BRANCH  21  24
ATOM     22  N   UNL     1      39.334 -28.591 -16.043  0.00  0.00    -0.230 NA
ATOM     23  N   UNL     1      36.999 -28.288 -16.073  0.00  0.00    -0.343 N 
ATOM     24  C   UNL     1      37.356 -25.192 -13.204  0.00  0.00    -0.002 C 
ATOM     25  C   UNL     1      37.212 -26.203 -14.145  0.00  0.00    +0.000 C 
ATOM     26  C   UNL     1      38.608 -24.843 -12.721  0.00  0.00    -0.003 C 
ATOM     27  C   UNL     1      38.344 -26.886 -14.618  0.00  0.00    +0.031 C 
ATOM     28  C   UNL     1      39.624 -26.540 -14.135  0.00  0.00    +0.004 C 
ATOM     29  C   UNL     1      39.741 -25.514 -13.183  0.00  0.00    -0.000 C 
ATOM     30  C   UNL     1      38.269 -27.911 -15.563  0.00  0.00    +0.125 C 
ATOM     31  C   UNL     1      40.741 -27.232 -14.619  0.00  0.00    +0.021 C 
ATOM     32  C   UNL     1      40.542 -28.233 -15.558  0.00  0.00    +0.100 C 
ATOM     33  H   UNL     1      36.931 -29.010 -16.739  0.00  0.00    +0.144 HD
ATOM     34  H   UNL     1      36.187 -27.828 -15.760  0.00  0.00    +0.144 HD
ENDBRANCH  21  24
ENDBRANCH   2  21
TORSDOF 5
ENDMDL
MODEL 6
REMARK VINA RESULT:     -11.3      3.812      6.559
REMARK  Name = 445480
REMARK  5 active torsions:
REMARK  status: ('A' for Active; 'I' for Inactive)
REMARK    1  A    between atoms: N_2  and  C_21
REMARK    2  A    between atoms: C_3  and  N_7
REMARK    3  A    between atoms: N_7  and  S_9
REMARK    4  A    between atoms: S_9  and  C_14
REMARK    5  A    between atoms: C_21  and  C_24
REMARK                            x       y       z     vdW  Elec       q    Type
REMARK                         _______ _______ _______ _____ _____    ______ ____
ROOT
ATOM      1  O   UNL     1      34.139 -14.111 -20.822  0.00  0.00    -0.273 OA
ATOM      2  N   UNL     1      33.358 -14.008 -23.038  0.00  0.00    -0.274 N 
ATOM      3  C   UNL     1      35.082 -15.506 -22.575  0.00  0.00    +0.153 C 
ATOM      4  C   UNL     1      34.406 -15.896 -23.884  0.00  0.00    +0.048 C 
ATOM      5  C   UNL     1      33.681 -14.630 -24.301  0.00  0.00    +0.096 C 
ATOM      6  C   UNL     1      34.150 -14.474 -21.989  0.00  0.00    +0.242 C 
ENDROOT
BRANCH   3   7
ATOM      7  N   UNL     1      35.172 -16.654 -21.665  0.00  0.00    -0.171 NA
ATOM      8  H   UNL     1      35.982 -16.502 -21.064  0.00  0.00    +0.149 HD
BRANCH   7   9
ATOM      9  S   UNL     1      35.332 -18.217 -22.350  0.00  0.00    +0.066 S 
ATOM     10  O   UNL     1      36.736 -18.492 -22.592  0.00  0.00    -0.152 OA
ATOM     11  O   UNL     1      34.342 -18.380 -23.397  0.00  0.00    -0.152 OA
BRANCH   9  14
ATOM     12  S   UNL     1      36.111 -20.044 -20.211  0.00  0.00    -0.066 S 
ATOM     13  N   UNL     1      32.663 -21.451 -19.084  0.00  0.00    -0.243 NA
ATOM     14  C   UNL     1      34.823 -19.396 -21.099  0.00  0.00    +0.153 C 
ATOM     15  C   UNL     1      33.606 -19.861 -20.736  0.00  0.00    +0.046 C 
ATOM     16  C   UNL     1      33.709 -20.805 -19.670  0.00  0.00    +0.089 C 
ATOM     17  C   UNL     1      35.033 -21.005 -19.278  0.00  0.00    +0.048 C 
ATOM     18  C   UNL     1      35.330 -21.900 -18.240  0.00  0.00    +0.010 C 
ATOM     19  C   UNL     1      34.268 -22.561 -17.638  0.00  0.00    +0.021 C 
ATOM     20  C   UNL     1      32.987 -22.303 -18.091  0.00  0.00    +0.099 C 
ENDBRANCH   9  14
ENDBRANCH   7   9
ENDBRANCH   3   7
BRANCH   2  21
ATOM     21  C   UNL     1      32.394 -12.932 -22.948  0.00  0.00    +0.120 C 
BRANCH  21  24
ATOM     22  N   UNL     1      33.571  -6.925 -21.994  0.00  0.00    -0.230 NA
ATOM     23  N   UNL     1      32.000  -8.236 -20.829  0.00  0.00    -0.343 N 
ATOM     24  C   UNL     1      33.066 -11.605 -23.164  0.00  0.00    -0.002 C 
ATOM     25  C   UNL     1      32.698 -10.516 -22.385  0.00  0.00    +0.000 C 
ATOM     26  C   UNL     1      34.043 -11.484 -24.141  0.00  0.00    -0.003 C 
ATOM     27  C   UNL     1      33.320  -9.272 -22.583  0.00  0.00    +0.031 C 
ATOM     28  C   UNL     1      34.315  -9.135 -23.573  0.00  0.00    +0.004 C 
ATOM     29  C   UNL     1      34.667 -10.253 -24.347  0.00  0.00    -0.000 C 
ATOM     30  C   UNL     1      32.996  -8.139 -21.834  0.00  0.00    +0.125 C 
ATOM     31  C   UNL     1      34.923  -7.887 -23.755  0.00  0.00    +0.021 C 
ATOM     32  C   UNL     1      34.519  -6.832 -22.950  0.00  0.00    +0.100 C 
ATOM     33  H   UNL     1      31.762  -7.445 -20.293  0.00  0.00    +0.144 HD
ATOM     34  H   UNL     1      31.547  -9.095 -20.667  0.00  0.00    +0.144 HD
ENDBRANCH  21  24
ENDBRANCH   2  21
TORSDOF 5
ENDMDL
MODEL 7
REMARK VINA RESULT:     -10.9      2.589     10.705
REMARK  Name = 445480
REMARK  5 active torsions:
REMARK  status: ('A' for Active; 'I' for Inactive)
REMARK    1  A    between atoms: N_2  and  C_21
REMARK    2  A    between atoms: C_3  and  N_7
REMARK    3  A    between atoms: N_7  and  S_9
REMARK    4  A    between atoms: S_9  and  C_14
REMARK    5  A    between atoms: C_21  and  C_24
REMARK                            x       y       z     vdW  Elec       q    Type
REMARK                         _______ _______ _______ _____ _____    ______ ____
ROOT
ATOM      1  O   UNL     1      32.361 -20.534 -19.960  0.00  0.00    -0.273 OA
ATOM      2  N   UNL     1      33.956 -21.766 -18.747  0.00  0.00    -0.274 N 
ATOM      3  C   UNL     1      34.706 -20.568 -20.600  0.00  0.00    +0.153 C 
ATOM      4  C   UNL     1      35.887 -20.900 -19.695  0.00  0.00    +0.048 C 
ATOM      5  C   UNL     1      35.370 -22.042 -18.841  0.00  0.00    +0.096 C 
ATOM      6  C   UNL     1      33.505 -20.915 -19.755  0.00  0.00    +0.242 C 
ENDROOT
BRANCH   3   7
ATOM      7  N   UNL     1      34.676 -19.138 -20.926  0.00  0.00    -0.171 NA
ATOM      8  H   UNL     1      33.697 -18.869 -21.025  0.00  0.00    +0.149 HD
BRANCH   7   9
ATOM      9  S   UNL     1      35.492 -18.616 -22.341  0.00  0.00    +0.066 S 
ATOM     10  O   UNL     1      35.017 -19.383 -23.477  0.00  0.00    -0.152 OA
ATOM     11  O   UNL     1      36.908 -18.493 -22.054  0.00  0.00    -0.152 OA
BRANCH   9  14
ATOM     12  S   UNL     1      34.414 -16.671 -24.232  0.00  0.00    -0.066 S 
ATOM     13  N   UNL     1      34.303 -13.444 -22.062  0.00  0.00    -0.243 NA
ATOM     14  C   UNL     1      34.976 -16.928 -22.655  0.00  0.00    +0.153 C 
ATOM     15  C   UNL     1      34.952 -15.828 -21.869  0.00  0.00    +0.046 C 
ATOM     16  C   UNL     1      34.449 -14.696 -22.576  0.00  0.00    +0.089 C 
ATOM     17  C   UNL     1      34.112 -15.012 -23.893  0.00  0.00    +0.048 C 
ATOM     18  C   UNL     1      33.598 -14.023 -24.744  0.00  0.00    +0.010 C 
ATOM     19  C   UNL     1      33.447 -12.744 -24.224  0.00  0.00    +0.021 C 
ATOM     20  C   UNL     1      33.807 -12.519 -22.908  0.00  0.00    +0.099 C 
ENDBRANCH   9  14
ENDBRANCH   7   9
ENDBRANCH   3   7
BRANCH   2  21
ATOM     21  C   UNL     1      33.118 -22.427 -17.770  0.00  0.00    +0.120 C 
BRANCH  21  24
ATOM     22  N   UNL     1      34.053 -24.417 -11.978  0.00  0.00    -0.230 NA
ATOM     23  N   UNL     1      32.008 -24.450 -13.146  0.00  0.00    -0.343 N 
ATOM     24  C   UNL     1      33.899 -22.723 -16.520  0.00  0.00    -0.002 C 
ATOM     25  C   UNL     1      33.256 -23.289 -15.428  0.00  0.00    +0.000 C 
ATOM     26  C   UNL     1      35.253 -22.425 -16.473  0.00  0.00    -0.003 C 
ATOM     27  C   UNL     1      33.978 -23.567 -14.256  0.00  0.00    +0.031 C 
ATOM     28  C   UNL     1      35.356 -23.269 -14.194  0.00  0.00    +0.004 C 
ATOM     29  C   UNL     1      35.981 -22.696 -15.314  0.00  0.00    -0.000 C 
ATOM     30  C   UNL     1      33.392 -24.135 -13.124  0.00  0.00    +0.125 C 
ATOM     31  C   UNL     1      36.059 -23.553 -13.017  0.00  0.00    +0.021 C 
ATOM     32  C   UNL     1      35.369 -24.118 -11.956  0.00  0.00    +0.100 C 
ATOM     33  H   UNL     1      31.582 -24.850 -12.355  0.00  0.00    +0.144 HD
ATOM     34  H   UNL     1      31.475 -24.267 -13.954  0.00  0.00    +0.144 HD
ENDBRANCH  21  24
ENDBRANCH   2  21
TORSDOF 5
ENDMDL
MODEL 8
REMARK VINA RESULT:     -10.8      2.586     10.472
REMARK  Name = 445480
REMARK  5 active torsions:
REMARK  status: ('A' for Active; 'I' for Inactive)
REMARK    1  A    between atoms: N_2  and  C_21
REMARK    2  A    between atoms: C_3  and  N_7
REMARK    3  A    between atoms: N_7  and  S_9
REMARK    4  A    between atoms: S_9  and  C_14
REMARK    5  A    between atoms: C_21  and  C_24
REMARK                            x       y       z     vdW  Elec       q    Type
REMARK                         _______ _______ _______ _____ _____    ______ ____
ROOT
ATOM      1  O   UNL     1      36.112 -21.203 -19.646  0.00  0.00    -0.273 OA
ATOM      2  N   UNL     1      33.914 -21.791 -19.053  0.00  0.00    -0.274 N 
ATOM      3  C   UNL     1      34.213 -19.804 -20.233  0.00  0.00    +0.153 C 
ATOM      4  C   UNL     1      32.760 -20.251 -20.347  0.00  0.00    +0.048 C 
ATOM      5  C   UNL     1      32.595 -21.220 -19.192  0.00  0.00    +0.096 C 
ATOM      6  C   UNL     1      34.906 -21.004 -19.636  0.00  0.00    +0.242 C 
ENDROOT
BRANCH   3   7
ATOM      7  N   UNL     1      34.783 -19.520 -21.555  0.00  0.00    -0.171 NA
ATOM      8  H   UNL     1      35.154 -20.398 -21.920  0.00  0.00    +0.149 HD
BRANCH   7   9
ATOM      9  S   UNL     1      36.036 -18.355 -21.660  0.00  0.00    +0.066 S 
ATOM     10  O   UNL     1      36.980 -18.758 -22.686  0.00  0.00    -0.152 OA
ATOM     11  O   UNL     1      36.479 -18.012 -20.322  0.00  0.00    -0.152 OA
BRANCH   9  14
ATOM     12  S   UNL     1      34.831 -16.905 -23.888  0.00  0.00    -0.066 S 
ATOM     13  N   UNL     1      34.054 -13.460 -22.256  0.00  0.00    -0.243 NA
ATOM     14  C   UNL     1      35.296 -16.837 -22.261  0.00  0.00    +0.153 C 
ATOM     15  C   UNL     1      35.042 -15.653 -21.658  0.00  0.00    +0.046 C 
ATOM     16  C   UNL     1      34.431 -14.732 -22.561  0.00  0.00    +0.089 C 
ATOM     17  C   UNL     1      34.253 -15.287 -23.829  0.00  0.00    +0.048 C 
ATOM     18  C   UNL     1      33.665 -14.528 -24.851  0.00  0.00    +0.010 C 
ATOM     19  C   UNL     1      33.279 -13.229 -24.547  0.00  0.00    +0.021 C 
ATOM     20  C   UNL     1      33.493 -12.760 -23.263  0.00  0.00    +0.099 C 
ENDBRANCH   9  14
ENDBRANCH   7   9
ENDBRANCH   3   7
BRANCH   2  21
ATOM     21  C   UNL     1      34.142 -22.989 -18.274  0.00  0.00    +0.120 C 
BRANCH  21  24
ATOM     22  N   UNL     1      32.350 -24.165 -12.462  0.00  0.00    -0.230 NA
ATOM     23  N   UNL     1      34.488 -24.563 -13.364  0.00  0.00    -0.343 N 
ATOM     24  C   UNL     1      33.202 -23.043 -17.102  0.00  0.00    -0.002 C 
ATOM     25  C   UNL     1      33.648 -23.546 -15.888  0.00  0.00    +0.000 C 
ATOM     26  C   UNL     1      31.899 -22.592 -17.250  0.00  0.00    -0.003 C 
ATOM     27  C   UNL     1      32.775 -23.602 -14.789  0.00  0.00    +0.031 C 
ATOM     28  C   UNL     1      31.446 -23.146 -14.926  0.00  0.00    +0.004 C 
ATOM     29  C   UNL     1      31.021 -22.642 -16.166  0.00  0.00    -0.000 C 
ATOM     30  C   UNL     1      33.160 -24.095 -13.542  0.00  0.00    +0.125 C 
ATOM     31  C   UNL     1      30.591 -23.209 -13.819  0.00  0.00    +0.021 C 
ATOM     32  C   UNL     1      31.087 -23.720 -12.630  0.00  0.00    +0.100 C 
ATOM     33  H   UNL     1      34.774 -24.915 -12.490  0.00  0.00    +0.144 HD
ATOM     34  H   UNL     1      35.123 -24.537 -14.116  0.00  0.00    +0.144 HD
ENDBRANCH  21  24
ENDBRANCH   2  21
TORSDOF 5
ENDMDL
MODEL 9
REMARK VINA RESULT:     -10.6      7.475     11.449
REMARK  Name = 445480
REMARK  5 active torsions:
REMARK  status: ('A' for Active; 'I' for Inactive)
REMARK    1  A    between atoms: N_2  and  C_21
REMARK    2  A    between atoms: C_3  and  N_7
REMARK    3  A    between atoms: N_7  and  S_9
REMARK    4  A    between atoms: S_9  and  C_14
REMARK    5  A    between atoms: C_21  and  C_24
REMARK                            x       y       z     vdW  Elec       q    Type
REMARK                         _______ _______ _______ _____ _____    ______ ____
ROOT
ATOM      1  O   UNL     1      35.687  -9.501 -24.311  0.00  0.00    -0.273 OA
ATOM      2  N   UNL     1      34.203  -8.389 -22.865  0.00  0.00    -0.274 N 
ATOM      3  C   UNL     1      33.569 -10.490 -23.649  0.00  0.00    +0.153 C 
ATOM      4  C   UNL     1      32.755 -10.142 -22.408  0.00  0.00    +0.048 C 
ATOM      5  C   UNL     1      32.896  -8.635 -22.301  0.00  0.00    +0.096 C 
ATOM      6  C   UNL     1      34.648  -9.436 -23.672  0.00  0.00    +0.242 C 
ENDROOT
BRANCH   3   7
ATOM      7  N   UNL     1      34.184 -11.816 -23.522  0.00  0.00    -0.171 NA
ATOM      8  H   UNL     1      35.036 -11.810 -24.085  0.00  0.00    +0.149 HD
BRANCH   7   9
ATOM      9  S   UNL     1      33.266 -13.182 -24.002  0.00  0.00    +0.066 S 
ATOM     10  O   UNL     1      33.406 -13.374 -25.433  0.00  0.00    -0.152 OA
ATOM     11  O   UNL     1      31.960 -13.119 -23.375  0.00  0.00    -0.152 OA
BRANCH   9  14
ATOM     12  S   UNL     1      34.289 -15.896 -24.333  0.00  0.00    -0.066 S 
ATOM     13  N   UNL     1      35.481 -16.731 -20.725  0.00  0.00    -0.243 NA
ATOM     14  C   UNL     1      34.027 -14.620 -23.250  0.00  0.00    +0.153 C 
ATOM     15  C   UNL     1      34.429 -14.873 -21.984  0.00  0.00    +0.046 C 
ATOM     16  C   UNL     1      34.987 -16.181 -21.869  0.00  0.00    +0.089 C 
ATOM     17  C   UNL     1      34.975 -16.861 -23.087  0.00  0.00    +0.048 C 
ATOM     18  C   UNL     1      35.486 -18.165 -23.169  0.00  0.00    +0.010 C 
ATOM     19  C   UNL     1      35.990 -18.731 -22.006  0.00  0.00    +0.021 C 
ATOM     20  C   UNL     1      35.963 -17.985 -20.841  0.00  0.00    +0.099 C 
ENDBRANCH   9  14
ENDBRANCH   7   9
ENDBRANCH   3   7
BRANCH   2  21
ATOM     21  C   UNL     1      34.879  -7.123 -22.685  0.00  0.00    +0.120 C 
BRANCH  21  24
ATOM     22  N   UNL     1      30.794  -2.600 -23.796  0.00  0.00    -0.230 NA
ATOM     23  N   UNL     1      30.987  -3.839 -21.804  0.00  0.00    -0.343 N 
ATOM     24  C   UNL     1      34.195  -6.043 -23.476  0.00  0.00    -0.002 C 
ATOM     25  C   UNL     1      33.146  -5.335 -22.905  0.00  0.00    +0.000 C 
ATOM     26  C   UNL     1      34.619  -5.768 -24.768  0.00  0.00    -0.003 C 
ATOM     27  C   UNL     1      32.500  -4.326 -23.638  0.00  0.00    +0.031 C 
ATOM     28  C   UNL     1      32.921  -4.036 -24.953  0.00  0.00    +0.004 C 
ATOM     29  C   UNL     1      33.985  -4.768 -25.506  0.00  0.00    -0.000 C 
ATOM     30  C   UNL     1      31.440  -3.578 -23.123  0.00  0.00    +0.125 C 
ATOM     31  C   UNL     1      32.265  -3.027 -25.668  0.00  0.00    +0.021 C 
ATOM     32  C   UNL     1      31.225  -2.350 -25.051  0.00  0.00    +0.100 C 
ATOM     33  H   UNL     1      30.240  -3.320 -21.427  0.00  0.00    +0.144 HD
ATOM     34  H   UNL     1      31.420  -4.541 -21.265  0.00  0.00    +0.144 HD
ENDBRANCH  21  24
ENDBRANCH   2  21
TORSDOF 5
ENDMDL
