MODEL 1
REMARK VINA RESULT:     -11.7      0.000      0.000
REMARK  Name = 10138993
REMARK  4 active torsions:
REMARK  status: ('A' for Active; 'I' for Inactive)
REMARK    1  A    between atoms: C_5  and  N_18
REMARK    2  A    between atoms: C_12  and  C_22
REMARK    3  A    between atoms: C_22  and  C_26
REMARK    4  A    between atoms: C_23  and  N_29
REMARK                            x       y       z     vdW  Elec       q    Type
REMARK                         _______ _______ _______ _____ _____    ______ ____
ROOT
ATOM      1  O   UNL     1      33.141 -22.423 -14.619  0.00  0.00    -0.274 OA
ATOM      2  N   UNL     1      36.112 -24.062 -12.139  0.00  0.00    -0.275 N 
ATOM      3  N   UNL     1      34.544 -24.216 -15.195  0.00  0.00    -0.268 N 
ATOM      4  N   UNL     1      35.182 -23.590 -12.985  0.00  0.00    -0.157 NA
ATOM      5  C   UNL     1      37.932 -27.127 -14.161  0.00  0.00    +0.069 C 
ATOM      6  C   UNL     1      36.891 -26.359 -14.697  0.00  0.00    +0.020 C 
ATOM      7  C   UNL     1      38.418 -26.880 -12.875  0.00  0.00    +0.018 C 
ATOM      8  C   UNL     1      36.341 -25.332 -13.912  0.00  0.00    +0.052 A 
ATOM      9  C   UNL     1      36.843 -25.109 -12.635  0.00  0.00    +0.077 A 
ATOM     10  C   UNL     1      37.880 -25.862 -12.081  0.00  0.00    +0.020 C 
ATOM     11  C   UNL     1      35.334 -24.367 -14.048  0.00  0.00    +0.155 A 
ATOM     12  C   UNL     1      33.531 -23.284 -15.400  0.00  0.00    +0.232 C 
ATOM     13  H   UNL     1      36.256 -23.689 -11.239  0.00  0.00    +0.189 HD
ATOM     14  H   UNL     1      34.725 -24.837 -15.936  0.00  0.00    +0.156 HD
ENDROOT
BRANCH   5  18
ATOM     15  S   UNL     1      40.188 -28.059 -15.415  0.00  0.00    +0.057 S 
ATOM     16  O   UNL     1      40.503 -26.696 -15.796  0.00  0.00    -0.154 OA
ATOM     17  O   UNL     1      41.003 -28.806 -14.480  0.00  0.00    -0.154 OA
ATOM     18  N   UNL     1      38.515 -28.194 -14.956  0.00  0.00    -0.194 N 
ATOM     19  C   UNL     1      39.991 -29.017 -16.911  0.00  0.00    +0.174 C 
ATOM     20  C   UNL     1      38.709 -29.808 -16.711  0.00  0.00    +0.051 C 
ATOM     21  C   UNL     1      37.727 -28.855 -16.034  0.00  0.00    +0.117 C 
ENDBRANCH   5  18
BRANCH  12  22
ATOM     22  C   UNL     1      32.914 -23.450 -16.787  0.00  0.00    +0.112 C 
BRANCH  22  26
ATOM     23  C   UNL     1      34.518 -20.767 -19.750  0.00  0.00    +0.048 C 
ATOM     24  C   UNL     1      33.127 -20.905 -19.576  0.00  0.00    +0.014 C 
ATOM     25  C   UNL     1      35.369 -21.530 -18.928  0.00  0.00    +0.014 C 
ATOM     26  C   UNL     1      33.470 -22.521 -17.813  0.00  0.00    -0.013 C 
ATOM     27  C   UNL     1      32.608 -21.774 -18.617  0.00  0.00    -0.003 C 
ATOM     28  C   UNL     1      34.850 -22.399 -17.969  0.00  0.00    -0.003 C 
BRANCH  23  29
ATOM     29  N   UNL     1      35.040 -19.893 -20.713  0.00  0.00    -0.307 N 
ATOM     30  C   UNL     1      36.092 -17.982 -22.602  0.00  0.00    +0.004 C 
ATOM     31  C   UNL     1      34.999 -18.968 -22.995  0.00  0.00    +0.021 C 
ATOM     32  C   UNL     1      36.966 -18.576 -21.504  0.00  0.00    +0.021 C 
ATOM     33  C   UNL     1      34.169 -19.401 -21.787  0.00  0.00    +0.091 C 
ATOM     34  C   UNL     1      36.133 -19.002 -20.298  0.00  0.00    +0.091 C 
ENDBRANCH  23  29
ENDBRANCH  22  26
ENDBRANCH  12  22
TORSDOF 4
ENDMDL
MODEL 2
REMARK VINA RESULT:     -11.6      1.869      2.498
REMARK  Name = 10138993
REMARK  4 active torsions:
REMARK  status: ('A' for Active; 'I' for Inactive)
REMARK    1  A    between atoms: C_5  and  N_18
REMARK    2  A    between atoms: C_12  and  C_22
REMARK    3  A    between atoms: C_22  and  C_26
REMARK    4  A    between atoms: C_23  and  N_29
REMARK                            x       y       z     vdW  Elec       q    Type
REMARK                         _______ _______ _______ _____ _____    ______ ____
ROOT
ATOM      1  O   UNL     1      32.170 -22.553 -16.624  0.00  0.00    -0.274 OA
ATOM      2  N   UNL     1      33.637 -23.348 -12.765  0.00  0.00    -0.275 N 
ATOM      3  N   UNL     1      34.149 -23.725 -16.144  0.00  0.00    -0.268 N 
ATOM      4  N   UNL     1      33.229 -23.131 -14.027  0.00  0.00    -0.157 NA
ATOM      5  C   UNL     1      37.140 -25.443 -13.126  0.00  0.00    +0.069 C 
ATOM      6  C   UNL     1      36.381 -25.013 -14.221  0.00  0.00    +0.020 C 
ATOM      7  C   UNL     1      36.732 -25.171 -11.818  0.00  0.00    +0.018 C 
ATOM      8  C   UNL     1      35.195 -24.301 -13.979  0.00  0.00    +0.052 A 
ATOM      9  C   UNL     1      34.811 -24.045 -12.667  0.00  0.00    +0.077 A 
ATOM     10  C   UNL     1      35.553 -24.464 -11.560  0.00  0.00    +0.020 C 
ATOM     11  C   UNL     1      34.179 -23.713 -14.744  0.00  0.00    +0.155 A 
ATOM     12  C   UNL     1      33.177 -23.163 -16.968  0.00  0.00    +0.232 C 
ATOM     13  H   UNL     1      33.135 -23.033 -11.979  0.00  0.00    +0.189 HD
ATOM     14  H   UNL     1      34.895 -24.180 -16.595  0.00  0.00    +0.156 HD
ENDROOT
BRANCH   5  18
ATOM     15  S   UNL     1      39.744 -25.318 -13.984  0.00  0.00    +0.057 S 
ATOM     16  O   UNL     1      39.329 -24.381 -15.009  0.00  0.00    -0.154 OA
ATOM     17  O   UNL     1      40.609 -24.929 -12.890  0.00  0.00    -0.154 OA
ATOM     18  N   UNL     1      38.371 -26.181 -13.354  0.00  0.00    -0.194 N 
ATOM     19  C   UNL     1      40.438 -26.750 -14.795  0.00  0.00    +0.174 C 
ATOM     20  C   UNL     1      39.798 -27.945 -14.110  0.00  0.00    +0.051 C 
ATOM     21  C   UNL     1      38.334 -27.571 -13.889  0.00  0.00    +0.117 C 
ENDBRANCH   5  18
BRANCH  12  22
ATOM     22  C   UNL     1      33.513 -23.393 -18.439  0.00  0.00    +0.112 C 
BRANCH  22  26
ATOM     23  C   UNL     1      34.413 -19.785 -20.613  0.00  0.00    +0.048 C 
ATOM     24  C   UNL     1      35.443 -20.586 -20.082  0.00  0.00    +0.014 C 
ATOM     25  C   UNL     1      33.082 -20.196 -20.414  0.00  0.00    +0.014 C 
ATOM     26  C   UNL     1      33.824 -22.143 -19.192  0.00  0.00    -0.013 C 
ATOM     27  C   UNL     1      35.152 -21.754 -19.378  0.00  0.00    -0.003 C 
ATOM     28  C   UNL     1      32.790 -21.365 -19.710  0.00  0.00    -0.003 C 
BRANCH  23  29
ATOM     29  N   UNL     1      34.706 -18.612 -21.321  0.00  0.00    -0.307 N 
ATOM     30  C   UNL     1      35.429 -16.263 -22.834  0.00  0.00    +0.004 C 
ATOM     31  C   UNL     1      35.140 -16.187 -21.340  0.00  0.00    +0.021 C 
ATOM     32  C   UNL     1      34.638 -17.402 -23.466  0.00  0.00    +0.021 C 
ATOM     33  C   UNL     1      35.416 -17.520 -20.644  0.00  0.00    +0.091 C 
ATOM     34  C   UNL     1      34.921 -18.731 -22.770  0.00  0.00    +0.091 C 
ENDBRANCH  23  29
ENDBRANCH  22  26
ENDBRANCH  12  22
TORSDOF 4
ENDMDL
MODEL 3
REMARK VINA RESULT:     -11.4      3.328      5.823
REMARK  Name = 10138993
REMARK  4 active torsions:
REMARK  status: ('A' for Active; 'I' for Inactive)
REMARK    1  A    between atoms: C_5  and  N_18
REMARK    2  A    between atoms: C_12  and  C_22
REMARK    3  A    between atoms: C_22  and  C_26
REMARK    4  A    between atoms: C_23  and  N_29
REMARK                            x       y       z     vdW  Elec       q    Type
REMARK                         _______ _______ _______ _____ _____    ______ ____
ROOT
ATOM      1  O   UNL     1      33.490 -20.463 -20.785  0.00  0.00    -0.274 OA
ATOM      2  N   UNL     1      32.261 -22.931 -17.611  0.00  0.00    -0.275 N 
ATOM      3  N   UNL     1      34.811 -21.037 -18.929  0.00  0.00    -0.268 N 
ATOM      4  N   UNL     1      32.722 -22.135 -18.590  0.00  0.00    -0.157 NA
ATOM      5  C   UNL     1      35.359 -23.240 -14.946  0.00  0.00    +0.069 C 
ATOM      6  C   UNL     1      35.427 -22.488 -16.126  0.00  0.00    +0.020 C 
ATOM      7  C   UNL     1      34.199 -23.940 -14.607  0.00  0.00    +0.018 C 
ATOM      8  C   UNL     1      34.302 -22.454 -16.967  0.00  0.00    +0.052 A 
ATOM      9  C   UNL     1      33.161 -23.162 -16.606  0.00  0.00    +0.077 A 
ATOM     10  C   UNL     1      33.071 -23.917 -15.434  0.00  0.00    +0.020 C 
ATOM     11  C   UNL     1      33.953 -21.858 -18.186  0.00  0.00    +0.155 A 
ATOM     12  C   UNL     1      34.534 -20.413 -20.142  0.00  0.00    +0.232 C 
ATOM     13  H   UNL     1      31.355 -23.316 -17.617  0.00  0.00    +0.189 HD
ATOM     14  H   UNL     1      35.708 -20.886 -18.554  0.00  0.00    +0.156 HD
ENDROOT
BRANCH   5  18
ATOM     15  S   UNL     1      37.821 -24.356 -14.474  0.00  0.00    +0.057 S 
ATOM     16  O   UNL     1      37.312 -25.618 -14.974  0.00  0.00    -0.154 OA
ATOM     17  O   UNL     1      38.847 -23.609 -15.171  0.00  0.00    -0.154 OA
ATOM     18  N   UNL     1      36.510 -23.288 -14.062  0.00  0.00    -0.194 N 
ATOM     19  C   UNL     1      38.328 -24.601 -12.778  0.00  0.00    +0.174 C 
ATOM     20  C   UNL     1      37.735 -23.431 -12.012  0.00  0.00    +0.051 C 
ATOM     21  C   UNL     1      36.335 -23.218 -12.583  0.00  0.00    +0.117 C 
ENDBRANCH   5  18
BRANCH  12  22
ATOM     22  C   UNL     1      35.736 -19.604 -20.624  0.00  0.00    +0.112 C 
BRANCH  22  26
ATOM     23  C   UNL     1      34.688 -15.950 -22.649  0.00  0.00    +0.048 C 
ATOM     24  C   UNL     1      34.801 -17.162 -23.356  0.00  0.00    +0.014 C 
ATOM     25  C   UNL     1      34.926 -15.966 -21.261  0.00  0.00    +0.014 C 
ATOM     26  C   UNL     1      35.373 -18.339 -21.325  0.00  0.00    -0.013 C 
ATOM     27  C   UNL     1      35.141 -18.346 -22.701  0.00  0.00    -0.003 C 
ATOM     28  C   UNL     1      35.266 -17.149 -20.606  0.00  0.00    -0.003 C 
BRANCH  23  29
ATOM     29  N   UNL     1      34.346 -14.761 -23.307  0.00  0.00    -0.307 N 
ATOM     30  C   UNL     1      33.516 -12.310 -24.585  0.00  0.00    +0.004 C 
ATOM     31  C   UNL     1      33.950 -13.523 -25.399  0.00  0.00    +0.021 C 
ATOM     32  C   UNL     1      34.225 -12.301 -23.236  0.00  0.00    +0.021 C 
ATOM     33  C   UNL     1      33.722 -14.826 -24.634  0.00  0.00    +0.091 C 
ATOM     34  C   UNL     1      33.990 -13.604 -22.474  0.00  0.00    +0.091 C 
ENDBRANCH  23  29
ENDBRANCH  22  26
ENDBRANCH  12  22
TORSDOF 4
ENDMDL
MODEL 4
REMARK VINA RESULT:     -10.9      3.455      8.663
REMARK  Name = 10138993
REMARK  4 active torsions:
REMARK  status: ('A' for Active; 'I' for Inactive)
REMARK    1  A    between atoms: C_5  and  N_18
REMARK    2  A    between atoms: C_12  and  C_22
REMARK    3  A    between atoms: C_22  and  C_26
REMARK    4  A    between atoms: C_23  and  N_29
REMARK                            x       y       z     vdW  Elec       q    Type
REMARK                         _______ _______ _______ _____ _____    ______ ____
ROOT
ATOM      1  O   UNL     1      35.089 -25.120 -10.506  0.00  0.00    -0.274 OA
ATOM      2  N   UNL     1      31.977 -24.168 -13.167  0.00  0.00    -0.275 N 
ATOM      3  N   UNL     1      35.375 -24.185 -12.642  0.00  0.00    -0.268 N 
ATOM      4  N   UNL     1      33.021 -24.447 -12.369  0.00  0.00    -0.157 NA
ATOM      5  C   UNL     1      33.631 -22.605 -16.576  0.00  0.00    +0.069 C 
ATOM      6  C   UNL     1      34.386 -23.031 -15.476  0.00  0.00    +0.020 C 
ATOM      7  C   UNL     1      32.237 -22.695 -16.567  0.00  0.00    +0.018 C 
ATOM      8  C   UNL     1      33.712 -23.551 -14.359  0.00  0.00    +0.052 A 
ATOM      9  C   UNL     1      32.324 -23.628 -14.376  0.00  0.00    +0.077 A 
ATOM     10  C   UNL     1      31.551 -23.210 -15.462  0.00  0.00    +0.020 C 
ATOM     11  C   UNL     1      34.058 -24.068 -13.103  0.00  0.00    +0.155 A 
ATOM     12  C   UNL     1      35.793 -24.687 -11.412  0.00  0.00    +0.232 C 
ATOM     13  H   UNL     1      31.044 -24.336 -12.904  0.00  0.00    +0.189 HD
ATOM     14  H   UNL     1      36.083 -23.879 -13.253  0.00  0.00    +0.156 HD
ENDROOT
BRANCH   5  18
ATOM     15  S   UNL     1      33.858 -22.670 -19.310  0.00  0.00    +0.057 S 
ATOM     16  O   UNL     1      33.655 -24.104 -19.263  0.00  0.00    -0.154 OA
ATOM     17  O   UNL     1      32.891 -21.774 -19.909  0.00  0.00    -0.154 OA
ATOM     18  N   UNL     1      34.308 -22.065 -17.742  0.00  0.00    -0.194 N 
ATOM     19  C   UNL     1      35.463 -22.364 -20.033  0.00  0.00    +0.174 C 
ATOM     20  C   UNL     1      36.122 -21.342 -19.123  0.00  0.00    +0.051 C 
ATOM     21  C   UNL     1      35.765 -21.754 -17.697  0.00  0.00    +0.117 C 
ENDBRANCH   5  18
BRANCH  12  22
ATOM     22  C   UNL     1      37.315 -24.644 -11.297  0.00  0.00    +0.112 C 
BRANCH  22  26
ATOM     23  C   UNL     1      39.348 -27.322 -13.990  0.00  0.00    +0.048 C 
ATOM     24  C   UNL     1      38.229 -27.751 -13.251  0.00  0.00    +0.014 C 
ATOM     25  C   UNL     1      39.784 -25.993 -13.825  0.00  0.00    +0.014 C 
ATOM     26  C   UNL     1      38.019 -25.571 -12.230  0.00  0.00    -0.013 C 
ATOM     27  C   UNL     1      37.570 -26.884 -12.378  0.00  0.00    -0.003 C 
ATOM     28  C   UNL     1      39.125 -25.126 -12.952  0.00  0.00    -0.003 C 
BRANCH  23  29
ATOM     29  N   UNL     1      40.008 -28.192 -14.866  0.00  0.00    -0.307 N 
ATOM     30  C   UNL     1      41.473 -29.882 -16.691  0.00  0.00    +0.004 C 
ATOM     31  C   UNL     1      39.987 -29.608 -16.881  0.00  0.00    +0.021 C 
ATOM     32  C   UNL     1      41.837 -29.808 -15.213  0.00  0.00    +0.021 C 
ATOM     33  C   UNL     1      39.576 -28.271 -16.267  0.00  0.00    +0.091 C 
ATOM     34  C   UNL     1      41.429 -28.468 -14.605  0.00  0.00    +0.091 C 
ENDBRANCH  23  29
ENDBRANCH  22  26
ENDBRANCH  12  22
TORSDOF 4
ENDMDL
MODEL 5
REMARK VINA RESULT:     -10.6      3.238      4.605
REMARK  Name = 10138993
REMARK  4 active torsions:
REMARK  status: ('A' for Active; 'I' for Inactive)
REMARK    1  A    between atoms: C_5  and  N_18
REMARK    2  A    between atoms: C_12  and  C_22
REMARK    3  A    between atoms: C_22  and  C_26
REMARK    4  A    between atoms: C_23  and  N_29
REMARK                            x       y       z     vdW  Elec       q    Type
REMARK                         _______ _______ _______ _____ _____    ______ ____
ROOT
ATOM      1  O   UNL     1      32.892 -21.880 -18.988  0.00  0.00    -0.274 OA
ATOM      2  N   UNL     1      31.915 -23.419 -15.200  0.00  0.00    -0.275 N 
ATOM      3  N   UNL     1      34.444 -22.634 -17.394  0.00  0.00    -0.268 N 
ATOM      4  N   UNL     1      32.301 -22.938 -16.394  0.00  0.00    -0.157 NA
ATOM      5  C   UNL     1      35.394 -24.412 -13.277  0.00  0.00    +0.069 C 
ATOM      6  C   UNL     1      35.353 -23.868 -14.567  0.00  0.00    +0.020 C 
ATOM      7  C   UNL     1      34.220 -24.649 -12.560  0.00  0.00    +0.018 C 
ATOM      8  C   UNL     1      34.102 -23.565 -15.129  0.00  0.00    +0.052 A 
ATOM      9  C   UNL     1      32.948 -23.813 -14.393  0.00  0.00    +0.077 A 
ATOM     10  C   UNL     1      32.966 -24.354 -13.105  0.00  0.00    +0.020 C 
ATOM     11  C   UNL     1      33.621 -23.035 -16.333  0.00  0.00    +0.155 A 
ATOM     12  C   UNL     1      34.039 -22.100 -18.614  0.00  0.00    +0.232 C 
ATOM     13  H   UNL     1      30.970 -23.483 -14.930  0.00  0.00    +0.189 HD
ATOM     14  H   UNL     1      35.413 -22.742 -17.263  0.00  0.00    +0.156 HD
ENDROOT
BRANCH   5  18
ATOM     15  S   UNL     1      37.125 -23.918 -11.205  0.00  0.00    +0.057 S 
ATOM     16  O   UNL     1      36.746 -22.520 -11.261  0.00  0.00    -0.154 OA
ATOM     17  O   UNL     1      36.798 -24.760 -10.074  0.00  0.00    -0.154 OA
ATOM     18  N   UNL     1      36.678 -24.732 -12.677  0.00  0.00    -0.194 N 
ATOM     19  C   UNL     1      38.880 -24.025 -11.524  0.00  0.00    +0.174 C 
ATOM     20  C   UNL     1      39.031 -25.139 -12.546  0.00  0.00    +0.051 C 
ATOM     21  C   UNL     1      37.877 -24.969 -13.530  0.00  0.00    +0.117 C 
ENDBRANCH   5  18
BRANCH  12  22
ATOM     22  C   UNL     1      35.245 -21.793 -19.499  0.00  0.00    +0.112 C 
BRANCH  22  26
ATOM     23  C   UNL     1      34.876 -18.139 -21.750  0.00  0.00    +0.048 C 
ATOM     24  C   UNL     1      33.836 -19.088 -21.735  0.00  0.00    +0.014 C 
ATOM     25  C   UNL     1      36.040 -18.417 -21.008  0.00  0.00    +0.014 C 
ATOM     26  C   UNL     1      35.118 -20.527 -20.278  0.00  0.00    -0.013 C 
ATOM     27  C   UNL     1      33.955 -20.271 -21.006  0.00  0.00    -0.003 C 
ATOM     28  C   UNL     1      36.160 -19.601 -20.280  0.00  0.00    -0.003 C 
BRANCH  23  29
ATOM     29  N   UNL     1      34.756 -16.950 -22.481  0.00  0.00    -0.307 N 
ATOM     30  C   UNL     1      34.642 -14.526 -24.044  0.00  0.00    +0.004 C 
ATOM     31  C   UNL     1      34.360 -14.520 -22.547  0.00  0.00    +0.021 C 
ATOM     32  C   UNL     1      34.267 -15.876 -24.644  0.00  0.00    +0.021 C 
ATOM     33  C   UNL     1      35.070 -15.671 -21.835  0.00  0.00    +0.091 C 
ATOM     34  C   UNL     1      34.982 -17.022 -23.932  0.00  0.00    +0.091 C 
ENDBRANCH  23  29
ENDBRANCH  22  26
ENDBRANCH  12  22
TORSDOF 4
ENDMDL
MODEL 6
REMARK VINA RESULT:     -10.3     11.976     18.413
REMARK  Name = 10138993
REMARK  4 active torsions:
REMARK  status: ('A' for Active; 'I' for Inactive)
REMARK    1  A    between atoms: C_5  and  N_18
REMARK    2  A    between atoms: C_12  and  C_22
REMARK    3  A    between atoms: C_22  and  C_26
REMARK    4  A    between atoms: C_23  and  N_29
REMARK                            x       y       z     vdW  Elec       q    Type
REMARK                         _______ _______ _______ _____ _____    ______ ____
ROOT
ATOM      1  O   UNL     1      32.339 -11.492 -21.963  0.00  0.00    -0.274 OA
ATOM      2  N   UNL     1      31.674  -7.499 -20.829  0.00  0.00    -0.275 N 
ATOM      3  N   UNL     1      33.033  -9.607 -23.181  0.00  0.00    -0.268 N 
ATOM      4  N   UNL     1      31.923  -8.749 -21.254  0.00  0.00    -0.157 NA
ATOM      5  C   UNL     1      33.307  -5.059 -23.688  0.00  0.00    +0.069 C 
ATOM      6  C   UNL     1      33.348  -6.458 -23.751  0.00  0.00    +0.020 C 
ATOM      7  C   UNL     1      32.689  -4.406 -22.619  0.00  0.00    +0.018 C 
ATOM      8  C   UNL     1      32.754  -7.195 -22.713  0.00  0.00    +0.052 A 
ATOM      9  C   UNL     1      32.148  -6.519 -21.660  0.00  0.00    +0.077 A 
ATOM     10  C   UNL     1      32.095  -5.126 -21.577  0.00  0.00    +0.020 C 
ATOM     11  C   UNL     1      32.574  -8.546 -22.390  0.00  0.00    +0.155 A 
ATOM     12  C   UNL     1      32.890 -10.968 -22.925  0.00  0.00    +0.232 C 
ATOM     13  H   UNL     1      31.195  -7.304 -19.992  0.00  0.00    +0.189 HD
ATOM     14  H   UNL     1      33.508  -9.364 -24.008  0.00  0.00    +0.156 HD
ENDROOT
BRANCH   5  18
ATOM     15  S   UNL     1      32.919  -3.132 -25.604  0.00  0.00    +0.057 S 
ATOM     16  O   UNL     1      31.603  -3.687 -25.852  0.00  0.00    -0.154 OA
ATOM     17  O   UNL     1      33.104  -1.816 -25.028  0.00  0.00    -0.154 OA
ATOM     18  N   UNL     1      33.914  -4.278 -24.752  0.00  0.00    -0.194 N 
ATOM     19  C   UNL     1      33.859  -3.244 -27.119  0.00  0.00    +0.174 C 
ATOM     20  C   UNL     1      35.206  -3.815 -26.711  0.00  0.00    +0.051 C 
ATOM     21  C   UNL     1      34.910  -4.895 -25.673  0.00  0.00    +0.117 C 
ENDBRANCH   5  18
BRANCH  12  22
ATOM     22  C   UNL     1      33.530 -11.799 -24.035  0.00  0.00    +0.112 C 
BRANCH  22  26
ATOM     23  C   UNL     1      34.611 -15.790 -22.827  0.00  0.00    +0.048 C 
ATOM     24  C   UNL     1      34.686 -14.715 -21.921  0.00  0.00    +0.014 C 
ATOM     25  C   UNL     1      34.173 -15.525 -24.139  0.00  0.00    +0.014 C 
ATOM     26  C   UNL     1      33.904 -13.181 -23.617  0.00  0.00    -0.013 C 
ATOM     27  C   UNL     1      34.336 -13.422 -22.312  0.00  0.00    -0.003 C 
ATOM     28  C   UNL     1      33.823 -14.232 -24.529  0.00  0.00    -0.003 C 
BRANCH  23  29
ATOM     29  N   UNL     1      34.962 -17.088 -22.434  0.00  0.00    -0.307 N 
ATOM     30  C   UNL     1      35.541 -19.792 -21.605  0.00  0.00    +0.004 C 
ATOM     31  C   UNL     1      36.235 -18.598 -20.962  0.00  0.00    +0.021 C 
ATOM     32  C   UNL     1      35.162 -19.467 -23.045  0.00  0.00    +0.021 C 
ATOM     33  C   UNL     1      35.381 -17.334 -21.049  0.00  0.00    +0.091 C 
ATOM     34  C   UNL     1      34.304 -18.206 -23.126  0.00  0.00    +0.091 C 
ENDBRANCH  23  29
ENDBRANCH  22  26
ENDBRANCH  12  22
TORSDOF 4
ENDMDL
MODEL 7
REMARK VINA RESULT:     -10.3     12.172     18.599
REMARK  Name = 10138993
REMARK  4 active torsions:
REMARK  status: ('A' for Active; 'I' for Inactive)
REMARK    1  A    between atoms: C_5  and  N_18
REMARK    2  A    between atoms: C_12  and  C_22
REMARK    3  A    between atoms: C_22  and  C_26
REMARK    4  A    between atoms: C_23  and  N_29
REMARK                            x       y       z     vdW  Elec       q    Type
REMARK                         _______ _______ _______ _____ _____    ______ ____
ROOT
ATOM      1  O   UNL     1      32.574 -11.091 -21.846  0.00  0.00    -0.274 OA
ATOM      2  N   UNL     1      31.621  -7.197 -20.583  0.00  0.00    -0.275 N 
ATOM      3  N   UNL     1      32.808  -9.152 -23.150  0.00  0.00    -0.268 N 
ATOM      4  N   UNL     1      31.947  -8.412 -21.054  0.00  0.00    -0.157 NA
ATOM      5  C   UNL     1      32.422  -4.613 -23.662  0.00  0.00    +0.069 C 
ATOM      6  C   UNL     1      32.625  -5.996 -23.742  0.00  0.00    +0.020 C 
ATOM      7  C   UNL     1      31.921  -4.027 -22.497  0.00  0.00    +0.018 C 
ATOM      8  C   UNL     1      32.316  -6.787 -22.623  0.00  0.00    +0.052 A 
ATOM      9  C   UNL     1      31.819  -6.177 -21.476  0.00  0.00    +0.077 A 
ATOM     10  C   UNL     1      31.608  -4.800 -21.374  0.00  0.00    +0.020 C 
ATOM     11  C   UNL     1      32.363  -8.146 -22.284  0.00  0.00    +0.155 A 
ATOM     12  C   UNL     1      32.882 -10.517 -22.884  0.00  0.00    +0.232 C 
ATOM     13  H   UNL     1      31.272  -7.051 -19.674  0.00  0.00    +0.189 HD
ATOM     14  H   UNL     1      33.100  -8.864 -24.044  0.00  0.00    +0.156 HD
ENDROOT
BRANCH   5  18
ATOM     15  S   UNL     1      34.001  -4.294 -25.884  0.00  0.00    +0.057 S 
ATOM     16  O   UNL     1      35.114  -4.841 -25.135  0.00  0.00    -0.154 OA
ATOM     17  O   UNL     1      33.416  -4.989 -27.012  0.00  0.00    -0.154 OA
ATOM     18  N   UNL     1      32.735  -3.777 -24.808  0.00  0.00    -0.194 N 
ATOM     19  C   UNL     1      34.435  -2.635 -26.383  0.00  0.00    +0.174 C 
ATOM     20  C   UNL     1      33.222  -1.786 -26.040  0.00  0.00    +0.051 C 
ATOM     21  C   UNL     1      32.721  -2.291 -24.689  0.00  0.00    +0.117 C 
ENDBRANCH   5  18
BRANCH  12  22
ATOM     22  C   UNL     1      33.420 -11.277 -24.094  0.00  0.00    +0.112 C 
BRANCH  22  26
ATOM     23  C   UNL     1      34.294 -15.422 -23.308  0.00  0.00    +0.048 C 
ATOM     24  C   UNL     1      33.766 -15.016 -24.549  0.00  0.00    +0.014 C 
ATOM     25  C   UNL     1      34.528 -14.435 -22.331  0.00  0.00    +0.014 C 
ATOM     26  C   UNL     1      33.723 -12.712 -23.821  0.00  0.00    -0.013 C 
ATOM     27  C   UNL     1      33.483 -13.674 -24.804  0.00  0.00    -0.003 C 
ATOM     28  C   UNL     1      34.245 -13.093 -22.586  0.00  0.00    -0.003 C 
BRANCH  23  29
ATOM     29  N   UNL     1      34.578 -16.769 -23.053  0.00  0.00    -0.307 N 
ATOM     30  C   UNL     1      35.309 -19.514 -22.542  0.00  0.00    +0.004 C 
ATOM     31  C   UNL     1      34.272 -19.152 -23.597  0.00  0.00    +0.021 C 
ATOM     32  C   UNL     1      35.316 -18.471 -21.431  0.00  0.00    +0.021 C 
ATOM     33  C   UNL     1      34.495 -17.744 -24.147  0.00  0.00    +0.091 C 
ATOM     34  C   UNL     1      35.545 -17.067 -21.985  0.00  0.00    +0.091 C 
ENDBRANCH  23  29
ENDBRANCH  22  26
ENDBRANCH  12  22
TORSDOF 4
ENDMDL
MODEL 8
REMARK VINA RESULT:     -10.0     11.877     18.211
REMARK  Name = 10138993
REMARK  4 active torsions:
REMARK  status: ('A' for Active; 'I' for Inactive)
REMARK    1  A    between atoms: C_5  and  N_18
REMARK    2  A    between atoms: C_12  and  C_22
REMARK    3  A    between atoms: C_22  and  C_26
REMARK    4  A    between atoms: C_23  and  N_29
REMARK                            x       y       z     vdW  Elec       q    Type
REMARK                         _______ _______ _______ _____ _____    ______ ____
ROOT
ATOM      1  O   UNL     1      32.256 -11.724 -21.501  0.00  0.00    -0.274 OA
ATOM      2  N   UNL     1      31.596  -7.842 -20.030  0.00  0.00    -0.275 N 
ATOM      3  N   UNL     1      32.725  -9.739 -22.666  0.00  0.00    -0.268 N 
ATOM      4  N   UNL     1      31.834  -9.051 -20.565  0.00  0.00    -0.157 NA
ATOM      5  C   UNL     1      32.770  -5.161 -22.898  0.00  0.00    +0.069 C 
ATOM      6  C   UNL     1      32.853  -6.549 -23.059  0.00  0.00    +0.020 C 
ATOM      7  C   UNL     1      32.268  -4.603 -21.720  0.00  0.00    +0.018 C 
ATOM      8  C   UNL     1      32.421  -7.375 -22.008  0.00  0.00    +0.052 A 
ATOM      9  C   UNL     1      31.927  -6.793 -20.845  0.00  0.00    +0.077 A 
ATOM     10  C   UNL     1      31.835  -5.411 -20.664  0.00  0.00    +0.020 C 
ATOM     11  C   UNL     1      32.331  -8.750 -21.756  0.00  0.00    +0.155 A 
ATOM     12  C   UNL     1      32.664 -11.118 -22.486  0.00  0.00    +0.232 C 
ATOM     13  H   UNL     1      31.218  -7.720 -19.129  0.00  0.00    +0.189 HD
ATOM     14  H   UNL     1      33.084  -9.425 -23.527  0.00  0.00    +0.156 HD
ENDROOT
BRANCH   5  18
ATOM     15  S   UNL     1      32.139  -3.024 -24.501  0.00  0.00    +0.057 S 
ATOM     16  O   UNL     1      30.772  -3.503 -24.550  0.00  0.00    -0.154 OA
ATOM     17  O   UNL     1      32.499  -1.786 -23.841  0.00  0.00    -0.154 OA
ATOM     18  N   UNL     1      33.211  -4.289 -23.974  0.00  0.00    -0.194 N 
ATOM     19  C   UNL     1      32.774  -3.001 -26.170  0.00  0.00    +0.174 C 
ATOM     20  C   UNL     1      34.141  -3.660 -26.086  0.00  0.00    +0.051 C 
ATOM     21  C   UNL     1      33.984  -4.836 -25.125  0.00  0.00    +0.117 C 
ENDBRANCH   5  18
BRANCH  12  22
ATOM     22  C   UNL     1      33.189 -11.850 -23.719  0.00  0.00    +0.112 C 
BRANCH  22  26
ATOM     23  C   UNL     1      34.513 -15.873 -22.933  0.00  0.00    +0.048 C 
ATOM     24  C   UNL     1      33.823 -15.557 -24.119  0.00  0.00    +0.014 C 
ATOM     25  C   UNL     1      34.759 -14.837 -22.011  0.00  0.00    +0.014 C 
ATOM     26  C   UNL     1      33.648 -13.243 -23.446  0.00  0.00    -0.013 C 
ATOM     27  C   UNL     1      33.394 -14.254 -24.374  0.00  0.00    -0.003 C 
ATOM     28  C   UNL     1      34.330 -13.535 -22.266  0.00  0.00    -0.003 C 
BRANCH  23  29
ATOM     29  N   UNL     1      34.945 -17.181 -22.678  0.00  0.00    -0.307 N 
ATOM     30  C   UNL     1      35.693 -19.913 -22.123  0.00  0.00    +0.004 C 
ATOM     31  C   UNL     1      36.394 -18.744 -21.443  0.00  0.00    +0.021 C 
ATOM     32  C   UNL     1      35.182 -19.493 -23.497  0.00  0.00    +0.021 C 
ATOM     33  C   UNL     1      35.488 -17.516 -21.356  0.00  0.00    +0.091 C 
ATOM     34  C   UNL     1      34.274 -18.269 -23.403  0.00  0.00    +0.091 C 
ENDBRANCH  23  29
ENDBRANCH  22  26
ENDBRANCH  12  22
TORSDOF 4
ENDMDL
MODEL 9
REMARK VINA RESULT:      -9.3      4.703      6.867
REMARK  Name = 10138993
REMARK  4 active torsions:
REMARK  status: ('A' for Active; 'I' for Inactive)
REMARK    1  A    between atoms: C_5  and  N_18
REMARK    2  A    between atoms: C_12  and  C_22
REMARK    3  A    between atoms: C_22  and  C_26
REMARK    4  A    between atoms: C_23  and  N_29
REMARK                            x       y       z     vdW  Elec       q    Type
REMARK                         _______ _______ _______ _____ _____    ______ ____
ROOT
ATOM      1  O   UNL     1      37.108 -20.941 -19.473  0.00  0.00    -0.274 OA
ATOM      2  N   UNL     1      36.301 -22.252 -15.561  0.00  0.00    -0.275 N 
ATOM      3  N   UNL     1      35.060 -21.827 -18.740  0.00  0.00    -0.268 N 
ATOM      4  N   UNL     1      36.487 -21.852 -16.830  0.00  0.00    -0.157 NA
ATOM      5  C   UNL     1      32.433 -23.597 -15.426  0.00  0.00    +0.069 C 
ATOM      6  C   UNL     1      33.033 -23.087 -16.584  0.00  0.00    +0.020 C 
ATOM      7  C   UNL     1      33.142 -23.677 -14.226  0.00  0.00    +0.018 C 
ATOM      8  C   UNL     1      34.367 -22.654 -16.514  0.00  0.00    +0.052 A 
ATOM      9  C   UNL     1      35.049 -22.743 -15.306  0.00  0.00    +0.077 A 
ATOM     10  C   UNL     1      34.471 -23.249 -14.139  0.00  0.00    +0.020 C 
ATOM     11  C   UNL     1      35.312 -22.101 -17.389  0.00  0.00    +0.155 A 
ATOM     12  C   UNL     1      35.946 -21.282 -19.665  0.00  0.00    +0.232 C 
ATOM     13  H   UNL     1      37.004 -22.195 -14.874  0.00  0.00    +0.189 HD
ATOM     14  H   UNL     1      34.159 -22.043 -19.070  0.00  0.00    +0.156 HD
ENDROOT
BRANCH   5  18
ATOM     15  S   UNL     1      29.791 -22.854 -15.497  0.00  0.00    +0.057 S 
ATOM     16  O   UNL     1      30.103 -21.771 -14.585  0.00  0.00    -0.154 OA
ATOM     17  O   UNL     1      29.380 -22.615 -16.864  0.00  0.00    -0.154 OA
ATOM     18  N   UNL     1      31.054 -24.052 -15.477  0.00  0.00    -0.194 N 
ATOM     19  C   UNL     1      28.593 -23.914 -14.703  0.00  0.00    +0.174 C 
ATOM     20  C   UNL     1      29.111 -25.327 -14.910  0.00  0.00    +0.051 C 
ATOM     21  C   UNL     1      30.623 -25.255 -14.710  0.00  0.00    +0.117 C 
ENDBRANCH   5  18
BRANCH  12  22
ATOM     22  C   UNL     1      35.284 -21.143 -21.034  0.00  0.00    +0.112 C 
BRANCH  22  26
ATOM     23  C   UNL     1      34.646 -17.065 -22.265  0.00  0.00    +0.048 C 
ATOM     24  C   UNL     1      34.334 -18.137 -23.123  0.00  0.00    +0.014 C 
ATOM     25  C   UNL     1      35.172 -17.363 -20.993  0.00  0.00    +0.014 C 
ATOM     26  C   UNL     1      35.063 -19.731 -21.459  0.00  0.00    -0.013 C 
ATOM     27  C   UNL     1      34.541 -19.458 -22.724  0.00  0.00    -0.003 C 
ATOM     28  C   UNL     1      35.379 -18.684 -20.595  0.00  0.00    -0.003 C 
BRANCH  23  29
ATOM     29  N   UNL     1      34.438 -15.739 -22.665  0.00  0.00    -0.307 N 
ATOM     30  C   UNL     1      34.141 -13.010 -23.556  0.00  0.00    +0.004 C 
ATOM     31  C   UNL     1      33.947 -13.394 -22.094  0.00  0.00    +0.021 C 
ATOM     32  C   UNL     1      33.782 -14.183 -24.460  0.00  0.00    +0.021 C 
ATOM     33  C   UNL     1      34.740 -14.648 -21.731  0.00  0.00    +0.091 C 
ATOM     34  C   UNL     1      34.581 -15.432 -24.095  0.00  0.00    +0.091 C 
ENDBRANCH  23  29
ENDBRANCH  22  26
ENDBRANCH  12  22
TORSDOF 4
ENDMDL
