MODEL 1
REMARK VINA RESULT:     -11.9      0.000      0.000
REMARK  Name = 25151352
REMARK  5 active torsions:
REMARK  status: ('A' for Active; 'I' for Inactive)
REMARK    1  A    between atoms: N_1  and  C_21
REMARK    2  A    between atoms: C_3  and  C_9
REMARK    3  A    between atoms: C_9  and  C_13
REMARK    4  A    between atoms: C_21  and  C_23
REMARK    5  A    between atoms: C_27  and  C_31
REMARK                            x       y       z     vdW  Elec       q    Type
REMARK                         _______ _______ _______ _____ _____    ______ ____
ROOT
ATOM      1  N   UNL     1      34.211 -12.608 -22.922  0.00  0.00    -0.314 N 
ATOM      2  N   UNL     1      34.763 -14.648 -21.822  0.00  0.00    -0.230 NA
ATOM      3  C   UNL     1      34.678 -16.725 -23.055  0.00  0.00    +0.002 C 
ATOM      4  C   UNL     1      34.280 -16.039 -24.198  0.00  0.00    +0.000 C 
ATOM      5  C   UNL     1      34.905 -15.991 -21.903  0.00  0.00    +0.096 C 
ATOM      6  C   UNL     1      34.374 -14.016 -22.951  0.00  0.00    +0.129 C 
ATOM      7  C   UNL     1      34.123 -14.658 -24.153  0.00  0.00    +0.034 C 
ATOM      8  H   UNL     1      34.383 -12.130 -22.080  0.00  0.00    +0.149 HD
ENDROOT
BRANCH   3   9
ATOM      9  C   UNL     1      34.860 -18.236 -23.073  0.00  0.00    +0.056 C 
BRANCH   9  13
ATOM     10 CL   UNL     1      32.828 -21.831 -18.804  0.00  0.00    -0.081 Cl
ATOM     11  N   UNL     1      37.547 -19.155 -20.769  0.00  0.00    -0.297 N 
ATOM     12  N   UNL     1      36.624 -20.607 -19.084  0.00  0.00    -0.228 NA
ATOM     13  C   UNL     1      35.744 -18.757 -22.010  0.00  0.00    -0.000 C 
ATOM     14  C   UNL     1      35.370 -19.617 -20.945  0.00  0.00    +0.030 C 
ATOM     15  C   UNL     1      36.517 -19.847 -20.190  0.00  0.00    +0.132 C 
ATOM     16  C   UNL     1      37.090 -18.489 -21.876  0.00  0.00    +0.059 C 
ATOM     17  C   UNL     1      34.183 -20.238 -20.523  0.00  0.00    +0.015 C 
ATOM     18  C   UNL     1      34.238 -21.038 -19.382  0.00  0.00    +0.077 C 
ATOM     19  C   UNL     1      35.452 -21.179 -18.723  0.00  0.00    +0.112 C 
ATOM     20  H   UNL     1      38.475 -19.139 -20.441  0.00  0.00    +0.154 HD
ENDBRANCH   9  13
ENDBRANCH   3   9
BRANCH   1  21
ATOM     21  C   UNL     1      33.805 -11.857 -24.065  0.00  0.00    +0.117 C 
BRANCH  21  23
ATOM     22  N   UNL     1      32.558  -8.566 -22.675  0.00  0.00    -0.240 NA
ATOM     23  C   UNL     1      33.736 -10.392 -23.735  0.00  0.00    +0.017 C 
ATOM     24  C   UNL     1      34.732  -9.515 -24.153  0.00  0.00    +0.000 C 
ATOM     25  C   UNL     1      32.680  -9.872 -23.005  0.00  0.00    +0.096 C 
ATOM     26  C   UNL     1      34.641  -8.165 -23.833  0.00  0.00    +0.023 C 
ATOM     27  C   UNL     1      33.544  -7.745 -23.099  0.00  0.00    +0.153 C 
BRANCH  27  31
ATOM     28  F   UNL     1      33.423  -6.074 -21.391  0.00  0.00    -0.164 F 
ATOM     29  F   UNL     1      34.417  -5.522 -23.239  0.00  0.00    -0.164 F 
ATOM     30  F   UNL     1      32.255  -5.749 -23.196  0.00  0.00    -0.164 F 
ATOM     31  C   UNL     1      33.415  -6.303 -22.737  0.00  0.00    +0.435 C 
ENDBRANCH  27  31
ENDBRANCH  21  23
ENDBRANCH   1  21
TORSDOF 5
ENDMDL
MODEL 2
REMARK VINA RESULT:     -11.9      7.766     12.467
REMARK  Name = 25151352
REMARK  5 active torsions:
REMARK  status: ('A' for Active; 'I' for Inactive)
REMARK    1  A    between atoms: N_1  and  C_21
REMARK    2  A    between atoms: C_3  and  C_9
REMARK    3  A    between atoms: C_9  and  C_13
REMARK    4  A    between atoms: C_21  and  C_23
REMARK    5  A    between atoms: C_27  and  C_31
REMARK                            x       y       z     vdW  Elec       q    Type
REMARK                         _______ _______ _______ _____ _____    ______ ____
ROOT
ATOM      1  N   UNL     1      33.420 -22.178 -18.254  0.00  0.00    -0.314 N 
ATOM      2  N   UNL     1      33.405 -20.505 -19.952  0.00  0.00    -0.230 NA
ATOM      3  C   UNL     1      35.498 -19.574 -20.722  0.00  0.00    +0.002 C 
ATOM      4  C   UNL     1      36.195 -20.390 -19.837  0.00  0.00    +0.000 C 
ATOM      5  C   UNL     1      34.116 -19.669 -20.741  0.00  0.00    +0.096 C 
ATOM      6  C   UNL     1      34.116 -21.282 -19.104  0.00  0.00    +0.129 C 
ATOM      7  C   UNL     1      35.498 -21.262 -19.009  0.00  0.00    +0.034 C 
ATOM      8  H   UNL     1      32.438 -22.209 -18.304  0.00  0.00    +0.149 HD
ENDROOT
BRANCH   3   9
ATOM      9  C   UNL     1      36.232 -18.610 -21.642  0.00  0.00    +0.056 C 
BRANCH   9  13
ATOM     10 CL   UNL     1      34.359 -13.007 -22.252  0.00  0.00    -0.081 Cl
ATOM     11  N   UNL     1      34.367 -18.203 -24.761  0.00  0.00    -0.297 N 
ATOM     12  N   UNL     1      33.654 -15.907 -24.912  0.00  0.00    -0.228 NA
ATOM     13  C   UNL     1      35.452 -18.175 -22.819  0.00  0.00    -0.000 C 
ATOM     14  C   UNL     1      34.954 -16.870 -23.069  0.00  0.00    +0.030 C 
ATOM     15  C   UNL     1      34.283 -16.920 -24.287  0.00  0.00    +0.132 C 
ATOM     16  C   UNL     1      35.075 -18.975 -23.877  0.00  0.00    +0.059 C 
ATOM     17  C   UNL     1      34.992 -15.634 -22.402  0.00  0.00    +0.015 C 
ATOM     18  C   UNL     1      34.356 -14.550 -23.006  0.00  0.00    +0.077 C 
ATOM     19  C   UNL     1      33.721 -14.742 -24.225  0.00  0.00    +0.112 C 
ATOM     20  H   UNL     1      33.978 -18.522 -25.607  0.00  0.00    +0.154 HD
ENDBRANCH   9  13
ENDBRANCH   3   9
BRANCH   1  21
ATOM     21  C   UNL     1      34.086 -23.035 -17.330  0.00  0.00    +0.117 C 
BRANCH  21  23
ATOM     22  N   UNL     1      32.916 -24.252 -13.943  0.00  0.00    -0.240 NA
ATOM     23  C   UNL     1      33.176 -23.384 -16.185  0.00  0.00    +0.017 C 
ATOM     24  C   UNL     1      31.802 -23.182 -16.274  0.00  0.00    +0.000 C 
ATOM     25  C   UNL     1      33.678 -23.916 -15.008  0.00  0.00    +0.096 C 
ATOM     26  C   UNL     1      30.986 -23.516 -15.199  0.00  0.00    +0.023 C 
ATOM     27  C   UNL     1      31.586 -24.041 -14.066  0.00  0.00    +0.153 C 
BRANCH  27  31
ATOM     28  F   UNL     1      30.607 -23.405 -11.979  0.00  0.00    -0.164 F 
ATOM     29  F   UNL     1      29.462 -24.758 -13.229  0.00  0.00    -0.164 F 
ATOM     30  F   UNL     1      31.239 -25.474 -12.200  0.00  0.00    -0.164 F 
ATOM     31  C   UNL     1      30.740 -24.410 -12.894  0.00  0.00    +0.435 C 
ENDBRANCH  27  31
ENDBRANCH  21  23
ENDBRANCH   1  21
TORSDOF 5
ENDMDL
MODEL 3
REMARK VINA RESULT:     -11.8      6.454     11.113
REMARK  Name = 25151352
REMARK  5 active torsions:
REMARK  status: ('A' for Active; 'I' for Inactive)
REMARK    1  A    between atoms: N_1  and  C_21
REMARK    2  A    between atoms: C_3  and  C_9
REMARK    3  A    between atoms: C_9  and  C_13
REMARK    4  A    between atoms: C_21  and  C_23
REMARK    5  A    between atoms: C_27  and  C_31
REMARK                            x       y       z     vdW  Elec       q    Type
REMARK                         _______ _______ _______ _____ _____    ______ ____
ROOT
ATOM      1  N   UNL     1      35.314 -18.870 -22.448  0.00  0.00    -0.314 N 
ATOM      2  N   UNL     1      34.233 -17.454 -24.031  0.00  0.00    -0.230 NA
ATOM      3  C   UNL     1      34.246 -15.061 -23.689  0.00  0.00    +0.002 C 
ATOM      4  C   UNL     1      34.975 -15.226 -22.516  0.00  0.00    +0.000 C 
ATOM      5  C   UNL     1      33.903 -16.197 -24.404  0.00  0.00    +0.096 C 
ATOM      6  C   UNL     1      34.940 -17.574 -22.886  0.00  0.00    +0.129 C 
ATOM      7  C   UNL     1      35.333 -16.503 -22.100  0.00  0.00    +0.034 C 
ATOM      8  H   UNL     1      35.046 -19.646 -22.990  0.00  0.00    +0.149 HD
ENDROOT
BRANCH   3   9
ATOM      9  C   UNL     1      33.841 -13.676 -24.171  0.00  0.00    +0.056 C 
BRANCH   9  13
ATOM     10 CL   UNL     1      34.413  -7.769 -23.936  0.00  0.00    -0.081 Cl
ATOM     11  N   UNL     1      31.805 -12.287 -21.469  0.00  0.00    -0.297 N 
ATOM     12  N   UNL     1      32.106  -9.897 -21.459  0.00  0.00    -0.228 NA
ATOM     13  C   UNL     1      33.122 -12.865 -23.167  0.00  0.00    -0.000 C 
ATOM     14  C   UNL     1      33.183 -11.455 -23.017  0.00  0.00    +0.030 C 
ATOM     15  C   UNL     1      32.350 -11.127 -21.951  0.00  0.00    +0.132 C 
ATOM     16  C   UNL     1      32.267 -13.351 -22.201  0.00  0.00    +0.059 C 
ATOM     17  C   UNL     1      33.850 -10.403 -23.665  0.00  0.00    +0.015 C 
ATOM     18  C   UNL     1      33.632  -9.108 -23.195  0.00  0.00    +0.077 C 
ATOM     19  C   UNL     1      32.775  -8.923 -22.119  0.00  0.00    +0.112 C 
ATOM     20  H   UNL     1      31.177 -12.348 -20.714  0.00  0.00    +0.154 HD
ENDBRANCH   9  13
ENDBRANCH   3   9
BRANCH   1  21
ATOM     21  C   UNL     1      36.061 -19.093 -21.254  0.00  0.00    +0.117 C 
BRANCH  21  23
ATOM     22  N   UNL     1      35.395 -21.732 -18.625  0.00  0.00    -0.240 NA
ATOM     23  C   UNL     1      35.319 -20.025 -20.336  0.00  0.00    +0.017 C 
ATOM     24  C   UNL     1      33.929 -20.065 -20.324  0.00  0.00    +0.000 C 
ATOM     25  C   UNL     1      35.999 -20.871 -19.474  0.00  0.00    +0.096 C 
ATOM     26  C   UNL     1      33.271 -20.938 -19.464  0.00  0.00    +0.023 C 
ATOM     27  C   UNL     1      34.043 -21.742 -18.642  0.00  0.00    +0.153 C 
BRANCH  27  31
ATOM     28  F   UNL     1      32.059 -22.389 -17.472  0.00  0.00    -0.164 F 
ATOM     29  F   UNL     1      33.365 -23.983 -18.147  0.00  0.00    -0.164 F 
ATOM     30  F   UNL     1      33.963 -22.724 -16.477  0.00  0.00    -0.164 F 
ATOM     31  C   UNL     1      33.370 -22.690 -17.706  0.00  0.00    +0.435 C 
ENDBRANCH  27  31
ENDBRANCH  21  23
ENDBRANCH   1  21
TORSDOF 5
ENDMDL
MODEL 4
REMARK VINA RESULT:     -11.8      2.950      5.130
REMARK  Name = 25151352
REMARK  5 active torsions:
REMARK  status: ('A' for Active; 'I' for Inactive)
REMARK    1  A    between atoms: N_1  and  C_21
REMARK    2  A    between atoms: C_3  and  C_9
REMARK    3  A    between atoms: C_9  and  C_13
REMARK    4  A    between atoms: C_21  and  C_23
REMARK    5  A    between atoms: C_27  and  C_31
REMARK                            x       y       z     vdW  Elec       q    Type
REMARK                         _______ _______ _______ _____ _____    ______ ____
ROOT
ATOM      1  N   UNL     1      35.743 -17.083 -22.861  0.00  0.00    -0.314 N 
ATOM      2  N   UNL     1      36.940 -18.381 -21.260  0.00  0.00    -0.230 NA
ATOM      3  C   UNL     1      35.843 -20.248 -20.184  0.00  0.00    +0.002 C 
ATOM      4  C   UNL     1      34.682 -19.991 -20.906  0.00  0.00    +0.000 C 
ATOM      5  C   UNL     1      36.935 -19.421 -20.396  0.00  0.00    +0.096 C 
ATOM      6  C   UNL     1      35.793 -18.161 -21.942  0.00  0.00    +0.129 C 
ATOM      7  C   UNL     1      34.649 -18.930 -21.803  0.00  0.00    +0.034 C 
ATOM      8  H   UNL     1      36.544 -16.524 -22.976  0.00  0.00    +0.149 HD
ENDROOT
BRANCH   3   9
ATOM      9  C   UNL     1      35.912 -21.403 -19.196  0.00  0.00    +0.056 C 
BRANCH   9  13
ATOM     10 CL   UNL     1      35.437 -23.756 -13.764  0.00  0.00    -0.081 Cl
ATOM     11  N   UNL     1      32.422 -22.176 -18.423  0.00  0.00    -0.297 N 
ATOM     12  N   UNL     1      32.338 -23.121 -16.209  0.00  0.00    -0.228 NA
ATOM     13  C   UNL     1      34.606 -21.806 -18.636  0.00  0.00    -0.000 C 
ATOM     14  C   UNL     1      34.374 -22.376 -17.357  0.00  0.00    +0.030 C 
ATOM     15  C   UNL     1      33.003 -22.594 -17.255  0.00  0.00    +0.132 C 
ATOM     16  C   UNL     1      33.387 -21.695 -19.270  0.00  0.00    +0.059 C 
ATOM     17  C   UNL     1      35.169 -22.738 -16.257  0.00  0.00    +0.015 C 
ATOM     18  C   UNL     1      34.531 -23.288 -15.147  0.00  0.00    +0.077 C 
ATOM     19  C   UNL     1      33.153 -23.452 -15.180  0.00  0.00    +0.112 C 
ATOM     20  H   UNL     1      31.460 -22.214 -18.624  0.00  0.00    +0.154 HD
ENDBRANCH   9  13
ENDBRANCH   3   9
BRANCH   1  21
ATOM     21  C   UNL     1      34.578 -16.778 -23.625  0.00  0.00    +0.117 C 
BRANCH  21  23
ATOM     22  N   UNL     1      33.515 -13.316 -24.720  0.00  0.00    -0.240 NA
ATOM     23  C   UNL     1      34.294 -15.302 -23.583  0.00  0.00    +0.017 C 
ATOM     24  C   UNL     1      34.528 -14.558 -22.431  0.00  0.00    +0.000 C 
ATOM     25  C   UNL     1      33.791 -14.639 -24.691  0.00  0.00    +0.096 C 
ATOM     26  C   UNL     1      34.256 -13.195 -22.423  0.00  0.00    +0.023 C 
ATOM     27  C   UNL     1      33.755 -12.626 -23.582  0.00  0.00    +0.153 C 
BRANCH  27  31
ATOM     28  F   UNL     1      33.044 -10.714 -24.831  0.00  0.00    -0.164 F 
ATOM     29  F   UNL     1      32.460 -10.797 -22.744  0.00  0.00    -0.164 F 
ATOM     30  F   UNL     1      34.531 -10.399 -23.276  0.00  0.00    -0.164 F 
ATOM     31  C   UNL     1      33.451 -11.166 -23.609  0.00  0.00    +0.435 C 
ENDBRANCH  27  31
ENDBRANCH  21  23
ENDBRANCH   1  21
TORSDOF 5
ENDMDL
MODEL 5
REMARK VINA RESULT:     -11.7      6.140     10.925
REMARK  Name = 25151352
REMARK  5 active torsions:
REMARK  status: ('A' for Active; 'I' for Inactive)
REMARK    1  A    between atoms: N_1  and  C_21
REMARK    2  A    between atoms: C_3  and  C_9
REMARK    3  A    between atoms: C_9  and  C_13
REMARK    4  A    between atoms: C_21  and  C_23
REMARK    5  A    between atoms: C_27  and  C_31
REMARK                            x       y       z     vdW  Elec       q    Type
REMARK                         _______ _______ _______ _____ _____    ______ ____
ROOT
ATOM      1  N   UNL     1      35.691 -17.577 -22.943  0.00  0.00    -0.314 N 
ATOM      2  N   UNL     1      34.253 -16.176 -24.228  0.00  0.00    -0.230 NA
ATOM      3  C   UNL     1      33.531 -14.058 -23.313  0.00  0.00    +0.002 C 
ATOM      4  C   UNL     1      34.258 -14.302 -22.154  0.00  0.00    +0.000 C 
ATOM      5  C   UNL     1      33.561 -15.017 -24.312  0.00  0.00    +0.096 C 
ATOM      6  C   UNL     1      34.946 -16.379 -23.085  0.00  0.00    +0.129 C 
ATOM      7  C   UNL     1      34.982 -15.482 -22.029  0.00  0.00    +0.034 C 
ATOM      8  H   UNL     1      35.680 -18.229 -23.680  0.00  0.00    +0.149 HD
ENDROOT
BRANCH   3   9
ATOM      9  C   UNL     1      32.730 -12.775 -23.480  0.00  0.00    +0.056 C 
BRANCH   9  13
ATOM     10 CL   UNL     1      31.965  -7.583 -20.699  0.00  0.00    -0.081 Cl
ATOM     11  N   UNL     1      35.045 -10.259 -24.779  0.00  0.00    -0.297 N 
ATOM     12  N   UNL     1      34.656  -8.200 -23.591  0.00  0.00    -0.228 NA
ATOM     13  C   UNL     1      33.542 -11.587 -23.815  0.00  0.00    -0.000 C 
ATOM     14  C   UNL     1      33.447 -10.302 -23.221  0.00  0.00    +0.030 C 
ATOM     15  C   UNL     1      34.397  -9.498 -23.843  0.00  0.00    +0.132 C 
ATOM     16  C   UNL     1      34.534 -11.531 -24.771  0.00  0.00    +0.059 C 
ATOM     17  C   UNL     1      32.660  -9.714 -22.216  0.00  0.00    +0.015 C 
ATOM     18  C   UNL     1      32.887  -8.372 -21.915  0.00  0.00    +0.077 C 
ATOM     19  C   UNL     1      33.869  -7.686 -22.617  0.00  0.00    +0.112 C 
ATOM     20  H   UNL     1      35.768  -9.943 -25.367  0.00  0.00    +0.154 HD
ENDBRANCH   9  13
ENDBRANCH   3   9
BRANCH   1  21
ATOM     21  C   UNL     1      36.452 -17.876 -21.775  0.00  0.00    +0.117 C 
BRANCH  21  23
ATOM     22  N   UNL     1      35.980 -20.734 -19.342  0.00  0.00    -0.240 NA
ATOM     23  C   UNL     1      35.790 -18.966 -20.979  0.00  0.00    +0.017 C 
ATOM     24  C   UNL     1      34.430 -19.228 -21.116  0.00  0.00    +0.000 C 
ATOM     25  C   UNL     1      36.513 -19.740 -20.087  0.00  0.00    +0.096 C 
ATOM     26  C   UNL     1      33.846 -20.243 -20.366  0.00  0.00    +0.023 C 
ATOM     27  C   UNL     1      34.656 -20.960 -19.501  0.00  0.00    +0.153 C 
BRANCH  27  31
ATOM     28  F   UNL     1      32.804 -21.778 -18.226  0.00  0.00    -0.164 F 
ATOM     29  F   UNL     1      33.944 -23.240 -19.353  0.00  0.00    -0.164 F 
ATOM     30  F   UNL     1      34.800 -22.338 -17.568  0.00  0.00    -0.164 F 
ATOM     31  C   UNL     1      34.061 -22.056 -18.681  0.00  0.00    +0.435 C 
ENDBRANCH  27  31
ENDBRANCH  21  23
ENDBRANCH   1  21
TORSDOF 5
ENDMDL
MODEL 6
REMARK VINA RESULT:     -11.2      5.871     11.879
REMARK  Name = 25151352
REMARK  5 active torsions:
REMARK  status: ('A' for Active; 'I' for Inactive)
REMARK    1  A    between atoms: N_1  and  C_21
REMARK    2  A    between atoms: C_3  and  C_9
REMARK    3  A    between atoms: C_9  and  C_13
REMARK    4  A    between atoms: C_21  and  C_23
REMARK    5  A    between atoms: C_27  and  C_31
REMARK                            x       y       z     vdW  Elec       q    Type
REMARK                         _______ _______ _______ _____ _____    ______ ____
ROOT
ATOM      1  N   UNL     1      32.921 -12.408 -23.155  0.00  0.00    -0.314 N 
ATOM      2  N   UNL     1      32.219 -10.493 -21.923  0.00  0.00    -0.230 NA
ATOM      3  C   UNL     1      33.259  -8.354 -22.356  0.00  0.00    +0.002 C 
ATOM      4  C   UNL     1      34.070  -8.936 -23.325  0.00  0.00    +0.000 C 
ATOM      5  C   UNL     1      32.358  -9.168 -21.690  0.00  0.00    +0.096 C 
ATOM      6  C   UNL     1      33.025 -11.023 -22.870  0.00  0.00    +0.129 C 
ATOM      7  C   UNL     1      33.957 -10.296 -23.592  0.00  0.00    +0.034 C 
ATOM      8  H   UNL     1      32.266 -12.945 -22.655  0.00  0.00    +0.149 HD
ENDROOT
BRANCH   3   9
ATOM      9  C   UNL     1      33.358  -6.868 -22.042  0.00  0.00    +0.056 C 
BRANCH   9  13
ATOM     10 CL   UNL     1      36.197  -4.315 -26.591  0.00  0.00    -0.081 Cl
ATOM     11  N   UNL     1      31.054  -4.836 -24.026  0.00  0.00    -0.297 N 
ATOM     12  N   UNL     1      32.298  -3.849 -25.838  0.00  0.00    -0.228 NA
ATOM     13  C   UNL     1      32.656  -5.993 -23.003  0.00  0.00    -0.000 C 
ATOM     14  C   UNL     1      33.229  -5.332 -24.121  0.00  0.00    +0.030 C 
ATOM     15  C   UNL     1      32.205  -4.621 -24.738  0.00  0.00    +0.132 C 
ATOM     16  C   UNL     1      31.316  -5.669 -22.970  0.00  0.00    +0.059 C 
ATOM     17  C   UNL     1      34.509  -5.250 -24.693  0.00  0.00    +0.015 C 
ATOM     18  C   UNL     1      34.662  -4.464 -25.834  0.00  0.00    +0.077 C 
ATOM     19  C   UNL     1      33.552  -3.806 -26.345  0.00  0.00    +0.112 C 
ATOM     20  H   UNL     1      30.174  -4.453 -24.242  0.00  0.00    +0.154 HD
ENDBRANCH   9  13
ENDBRANCH   3   9
BRANCH   1  21
ATOM     21  C   UNL     1      33.729 -13.053 -24.138  0.00  0.00    +0.117 C 
BRANCH  21  23
ATOM     22  N   UNL     1      34.948 -15.794 -21.832  0.00  0.00    -0.240 NA
ATOM     23  C   UNL     1      34.168 -14.407 -23.651  0.00  0.00    +0.017 C 
ATOM     24  C   UNL     1      34.211 -15.499 -24.512  0.00  0.00    +0.000 C 
ATOM     25  C   UNL     1      34.543 -14.606 -22.333  0.00  0.00    +0.096 C 
ATOM     26  C   UNL     1      34.623 -16.738 -24.034  0.00  0.00    +0.023 C 
ATOM     27  C   UNL     1      34.977 -16.832 -22.698  0.00  0.00    +0.153 C 
BRANCH  27  31
ATOM     28  F   UNL     1      34.582 -19.179 -22.455  0.00  0.00    -0.164 F 
ATOM     29  F   UNL     1      36.650 -18.541 -22.604  0.00  0.00    -0.164 F 
ATOM     30  F   UNL     1      35.520 -18.143 -20.789  0.00  0.00    -0.164 F 
ATOM     31  C   UNL     1      35.423 -18.147 -22.151  0.00  0.00    +0.435 C 
ENDBRANCH  27  31
ENDBRANCH  21  23
ENDBRANCH   1  21
TORSDOF 5
ENDMDL
MODEL 7
REMARK VINA RESULT:     -11.1      6.003     11.885
REMARK  Name = 25151352
REMARK  5 active torsions:
REMARK  status: ('A' for Active; 'I' for Inactive)
REMARK    1  A    between atoms: N_1  and  C_21
REMARK    2  A    between atoms: C_3  and  C_9
REMARK    3  A    between atoms: C_9  and  C_13
REMARK    4  A    between atoms: C_21  and  C_23
REMARK    5  A    between atoms: C_27  and  C_31
REMARK                            x       y       z     vdW  Elec       q    Type
REMARK                         _______ _______ _______ _____ _____    ______ ____
ROOT
ATOM      1  N   UNL     1      32.973 -12.455 -23.654  0.00  0.00    -0.314 N 
ATOM      2  N   UNL     1      32.762 -10.339 -22.577  0.00  0.00    -0.230 NA
ATOM      3  C   UNL     1      34.236  -8.532 -23.210  0.00  0.00    +0.002 C 
ATOM      4  C   UNL     1      34.860  -9.356 -24.140  0.00  0.00    +0.000 C 
ATOM      5  C   UNL     1      33.202  -9.066 -22.460  0.00  0.00    +0.096 C 
ATOM      6  C   UNL     1      33.393 -11.111 -23.489  0.00  0.00    +0.129 C 
ATOM      7  C   UNL     1      34.437 -10.672 -24.288  0.00  0.00    +0.034 C 
ATOM      8  H   UNL     1      32.233 -12.789 -23.097  0.00  0.00    +0.149 HD
ENDROOT
BRANCH   3   9
ATOM      9  C   UNL     1      34.676  -7.087 -23.026  0.00  0.00    +0.056 C 
BRANCH   9  13
ATOM     10 CL   UNL     1      33.113  -3.538 -27.525  0.00  0.00    -0.081 Cl
ATOM     11  N   UNL     1      31.868  -4.948 -22.070  0.00  0.00    -0.297 N 
ATOM     12  N   UNL     1      31.314  -3.554 -23.955  0.00  0.00    -0.228 NA
ATOM     13  C   UNL     1      33.564  -6.121 -22.903  0.00  0.00    -0.000 C 
ATOM     14  C   UNL     1      33.106  -5.227 -23.907  0.00  0.00    +0.030 C 
ATOM     15  C   UNL     1      32.047  -4.511 -23.356  0.00  0.00    +0.132 C 
ATOM     16  C   UNL     1      32.784  -5.926 -21.784  0.00  0.00    +0.059 C 
ATOM     17  C   UNL     1      33.464  -4.935 -25.233  0.00  0.00    +0.015 C 
ATOM     18  C   UNL     1      32.736  -3.952 -25.901  0.00  0.00    +0.077 C 
ATOM     19  C   UNL     1      31.702  -3.313 -25.229  0.00  0.00    +0.112 C 
ATOM     20  H   UNL     1      31.185  -4.611 -21.446  0.00  0.00    +0.154 HD
ENDBRANCH   9  13
ENDBRANCH   3   9
BRANCH   1  21
ATOM     21  C   UNL     1      33.579 -13.342 -24.592  0.00  0.00    +0.117 C 
BRANCH  21  23
ATOM     22  N   UNL     1      34.584 -16.941 -24.001  0.00  0.00    -0.240 NA
ATOM     23  C   UNL     1      34.080 -14.579 -23.900  0.00  0.00    +0.017 C 
ATOM     24  C   UNL     1      34.492 -14.540 -22.572  0.00  0.00    +0.000 C 
ATOM     25  C   UNL     1      34.145 -15.793 -24.564  0.00  0.00    +0.096 C 
ATOM     26  C   UNL     1      34.950 -15.701 -21.958  0.00  0.00    +0.023 C 
ATOM     27  C   UNL     1      34.977 -16.865 -22.710  0.00  0.00    +0.153 C 
BRANCH  27  31
ATOM     28  F   UNL     1      34.836 -19.248 -22.551  0.00  0.00    -0.164 F 
ATOM     29  F   UNL     1      36.795 -18.359 -22.277  0.00  0.00    -0.164 F 
ATOM     30  F   UNL     1      35.282 -18.147 -20.730  0.00  0.00    -0.164 F 
ATOM     31  C   UNL     1      35.463 -18.129 -22.083  0.00  0.00    +0.435 C 
ENDBRANCH  27  31
ENDBRANCH  21  23
ENDBRANCH   1  21
TORSDOF 5
ENDMDL
MODEL 8
REMARK VINA RESULT:     -11.1      7.210     12.051
REMARK  Name = 25151352
REMARK  5 active torsions:
REMARK  status: ('A' for Active; 'I' for Inactive)
REMARK    1  A    between atoms: N_1  and  C_21
REMARK    2  A    between atoms: C_3  and  C_9
REMARK    3  A    between atoms: C_9  and  C_13
REMARK    4  A    between atoms: C_21  and  C_23
REMARK    5  A    between atoms: C_27  and  C_31
REMARK                            x       y       z     vdW  Elec       q    Type
REMARK                         _______ _______ _______ _____ _____    ______ ____
ROOT
ATOM      1  N   UNL     1      35.008 -21.804 -18.858  0.00  0.00    -0.314 N 
ATOM      2  N   UNL     1      36.337 -20.081 -19.831  0.00  0.00    -0.230 NA
ATOM      3  C   UNL     1      35.338 -18.572 -21.434  0.00  0.00    +0.002 C 
ATOM      4  C   UNL     1      34.120 -19.231 -21.307  0.00  0.00    +0.000 C 
ATOM      5  C   UNL     1      36.406 -19.031 -20.680  0.00  0.00    +0.096 C 
ATOM      6  C   UNL     1      35.137 -20.698 -19.735  0.00  0.00    +0.129 C 
ATOM      7  C   UNL     1      34.010 -20.315 -20.444  0.00  0.00    +0.034 C 
ATOM      8  H   UNL     1      35.795 -22.094 -18.345  0.00  0.00    +0.149 HD
ENDROOT
BRANCH   3   9
ATOM      9  C   UNL     1      35.491 -17.381 -22.369  0.00  0.00    +0.056 C 
BRANCH   9  13
ATOM     10 CL   UNL     1      33.369 -13.161 -25.969  0.00  0.00    -0.081 Cl
ATOM     11  N   UNL     1      34.284 -14.521 -20.436  0.00  0.00    -0.297 N 
ATOM     12  N   UNL     1      33.449 -12.873 -21.982  0.00  0.00    -0.228 NA
ATOM     13  C   UNL     1      34.939 -16.116 -21.842  0.00  0.00    -0.000 C 
ATOM     14  C   UNL     1      34.408 -15.042 -22.604  0.00  0.00    +0.030 C 
ATOM     15  C   UNL     1      34.008 -14.064 -21.698  0.00  0.00    +0.132 C 
ATOM     16  C   UNL     1      34.850 -15.767 -20.511  0.00  0.00    +0.059 C 
ATOM     17  C   UNL     1      34.215 -14.777 -23.969  0.00  0.00    +0.015 C 
ATOM     18  C   UNL     1      33.638 -13.557 -24.319  0.00  0.00    +0.077 C 
ATOM     19  C   UNL     1      33.287 -12.670 -23.310  0.00  0.00    +0.112 C 
ATOM     20  H   UNL     1      34.103 -14.030 -19.603  0.00  0.00    +0.154 HD
ENDBRANCH   9  13
ENDBRANCH   3   9
BRANCH   1  21
ATOM     21  C   UNL     1      33.782 -22.514 -18.692  0.00  0.00    +0.117 C 
BRANCH  21  23
ATOM     22  N   UNL     1      32.024 -23.442 -15.473  0.00  0.00    -0.240 NA
ATOM     23  C   UNL     1      33.560 -22.849 -17.243  0.00  0.00    +0.017 C 
ATOM     24  C   UNL     1      34.621 -22.881 -16.344  0.00  0.00    +0.000 C 
ATOM     25  C   UNL     1      32.293 -23.134 -16.761  0.00  0.00    +0.096 C 
ATOM     26  C   UNL     1      34.384 -23.193 -15.009  0.00  0.00    +0.023 C 
ATOM     27  C   UNL     1      33.080 -23.464 -14.628  0.00  0.00    +0.153 C 
BRANCH  27  31
ATOM     28  F   UNL     1      31.942 -22.923 -12.594  0.00  0.00    -0.164 F 
ATOM     29  F   UNL     1      32.210 -25.028 -13.041  0.00  0.00    -0.164 F 
ATOM     30  F   UNL     1      33.914 -23.824 -12.430  0.00  0.00    -0.164 F 
ATOM     31  C   UNL     1      32.790 -23.803 -13.204  0.00  0.00    +0.435 C 
ENDBRANCH  27  31
ENDBRANCH  21  23
ENDBRANCH   1  21
TORSDOF 5
ENDMDL
MODEL 9
REMARK VINA RESULT:     -11.0      4.290      7.047
REMARK  Name = 25151352
REMARK  5 active torsions:
REMARK  status: ('A' for Active; 'I' for Inactive)
REMARK    1  A    between atoms: N_1  and  C_21
REMARK    2  A    between atoms: C_3  and  C_9
REMARK    3  A    between atoms: C_9  and  C_13
REMARK    4  A    between atoms: C_21  and  C_23
REMARK    5  A    between atoms: C_27  and  C_31
REMARK                            x       y       z     vdW  Elec       q    Type
REMARK                         _______ _______ _______ _____ _____    ______ ____
ROOT
ATOM      1  N   UNL     1      34.219 -19.194 -22.044  0.00  0.00    -0.314 N 
ATOM      2  N   UNL     1      33.391 -20.617 -20.321  0.00  0.00    -0.230 NA
ATOM      3  C   UNL     1      34.928 -21.535 -18.697  0.00  0.00    +0.002 C 
ATOM      4  C   UNL     1      35.987 -20.882 -19.319  0.00  0.00    +0.000 C 
ATOM      5  C   UNL     1      33.661 -21.372 -19.232  0.00  0.00    +0.096 C 
ATOM      6  C   UNL     1      34.445 -19.999 -20.899  0.00  0.00    +0.129 C 
ATOM      7  C   UNL     1      35.749 -20.097 -20.441  0.00  0.00    +0.034 C 
ATOM      8  H   UNL     1      33.301 -19.109 -22.388  0.00  0.00    +0.149 HD
ENDROOT
BRANCH   3   9
ATOM      9  C   UNL     1      35.156 -22.400 -17.466  0.00  0.00    +0.056 C 
BRANCH   9  13
ATOM     10 CL   UNL     1      35.253 -24.335 -11.852  0.00  0.00    -0.081 Cl
ATOM     11  N   UNL     1      31.778 -23.203 -16.317  0.00  0.00    -0.297 N 
ATOM     12  N   UNL     1      31.926 -23.975 -14.040  0.00  0.00    -0.228 NA
ATOM     13  C   UNL     1      33.920 -22.792 -16.758  0.00  0.00    -0.000 C 
ATOM     14  C   UNL     1      33.824 -23.268 -15.424  0.00  0.00    +0.030 C 
ATOM     15  C   UNL     1      32.476 -23.514 -15.180  0.00  0.00    +0.132 C 
ATOM     16  C   UNL     1      32.646 -22.764 -17.283  0.00  0.00    +0.059 C 
ATOM     17  C   UNL     1      34.727 -23.522 -14.379  0.00  0.00    +0.015 C 
ATOM     18  C   UNL     1      34.211 -24.001 -13.176  0.00  0.00    +0.077 C 
ATOM     19  C   UNL     1      32.842 -24.203 -13.069  0.00  0.00    +0.112 C 
ATOM     20  H   UNL     1      30.803 -23.282 -16.424  0.00  0.00    +0.154 HD
ENDBRANCH   9  13
ENDBRANCH   3   9
BRANCH   1  21
ATOM     21  C   UNL     1      35.269 -18.504 -22.718  0.00  0.00    +0.117 C 
BRANCH  21  23
ATOM     22  N   UNL     1      33.924 -15.555 -24.671  0.00  0.00    -0.240 NA
ATOM     23  C   UNL     1      34.845 -17.101 -23.057  0.00  0.00    +0.017 C 
ATOM     24  C   UNL     1      34.964 -16.072 -22.128  0.00  0.00    +0.000 C 
ATOM     25  C   UNL     1      34.324 -16.792 -24.303  0.00  0.00    +0.096 C 
ATOM     26  C   UNL     1      34.563 -14.785 -22.470  0.00  0.00    +0.023 C 
ATOM     27  C   UNL     1      34.055 -14.581 -23.742  0.00  0.00    +0.153 C 
BRANCH  27  31
ATOM     28  F   UNL     1      34.545 -12.244 -23.891  0.00  0.00    -0.164 F 
ATOM     29  F   UNL     1      33.331 -13.096 -25.474  0.00  0.00    -0.164 F 
ATOM     30  F   UNL     1      32.485 -12.812 -23.490  0.00  0.00    -0.164 F 
ATOM     31  C   UNL     1      33.615 -13.212 -24.143  0.00  0.00    +0.435 C 
ENDBRANCH  27  31
ENDBRANCH  21  23
ENDBRANCH   1  21
TORSDOF 5
ENDMDL
