MODEL 1
REMARK VINA RESULT:     -12.8      0.000      0.000
REMARK  Name = 6105620
REMARK  4 active torsions:
REMARK  status: ('A' for Active; 'I' for Inactive)
REMARK    1  A    between atoms: N_2  and  C_7
REMARK    2  A    between atoms: N_3  and  C_21
REMARK    3  A    between atoms: C_9  and  C_29
REMARK    4  A    between atoms: C_30  and  C_31
REMARK                            x       y       z     vdW  Elec       q    Type
REMARK                         _______ _______ _______ _____ _____    ______ ____
ROOT
ATOM      1  N   UNL     1      35.720 -22.471 -16.879  0.00  0.00    -0.086 NA
ATOM      2  N   UNL     1      34.304 -22.505 -17.229  0.00  0.00    -0.132 N 
ATOM      3  N   UNL     1      36.339 -21.635 -17.851  0.00  0.00    -0.240 N 
ATOM      4  N   UNL     1      34.125 -21.799 -18.412  0.00  0.00    -0.146 NA
ATOM      5  C   UNL     1      35.320 -21.324 -18.725  0.00  0.00    +0.162 C 
ATOM      6  H   UNL     1      37.279 -21.345 -17.891  0.00  0.00    +0.170 HD
ENDROOT
BRANCH   2  11
ATOM      7  O   UNL     1      33.439 -24.448 -12.590  0.00  0.00    -0.220 OA
ATOM      8  O   UNL     1      28.674 -24.002 -14.621  0.00  0.00    -0.220 OA
ATOM      9  N   UNL     1      31.181 -24.708 -12.404  0.00  0.00    -0.062 NA
ATOM     10  N   UNL     1      30.037 -24.602 -12.892  0.00  0.00    -0.062 NA
ATOM     11  C   UNL     1      33.179 -22.899 -16.477  0.00  0.00    +0.089 C 
ATOM     12  C   UNL     1      33.327 -23.413 -15.176  0.00  0.00    +0.030 C 
ATOM     13  C   UNL     1      31.882 -22.786 -17.010  0.00  0.00    +0.019 C 
ATOM     14  C   UNL     1      32.205 -23.800 -14.438  0.00  0.00    +0.097 C 
ATOM     15  C   UNL     1      30.939 -23.683 -14.977  0.00  0.00    +0.096 C 
ATOM     16  C   UNL     1      30.766 -23.174 -16.268  0.00  0.00    +0.014 C 
ATOM     17  C   UNL     1      32.318 -24.341 -13.079  0.00  0.00    +0.174 C 
ATOM     18  C   UNL     1      29.804 -24.106 -14.151  0.00  0.00    +0.174 C 
ENDBRANCH   2  11
BRANCH   1  21
ATOM     19  S   UNL     1      38.008 -22.706 -15.509  0.00  0.00    -0.074 S 
ATOM     20  N   UNL     1      35.889 -24.239 -15.339  0.00  0.00    -0.310 N 
ATOM     21  C   UNL     1      36.372 -23.165 -15.973  0.00  0.00    +0.222 C 
ATOM     22  C   UNL     1      36.774 -24.762 -14.453  0.00  0.00    +0.052 C 
ATOM     23  C   UNL     1      37.995 -24.081 -14.384  0.00  0.00    +0.041 C 
ATOM     24  C   UNL     1      36.542 -25.875 -13.657  0.00  0.00    +0.015 C 
ATOM     25  C   UNL     1      39.002 -24.492 -13.527  0.00  0.00    +0.007 C 
ATOM     26  C   UNL     1      37.551 -26.298 -12.789  0.00  0.00    +0.001 C 
ATOM     27  C   UNL     1      38.772 -25.612 -12.725  0.00  0.00    +0.001 C 
ATOM     28  H   UNL     1      34.989 -24.609 -15.497  0.00  0.00    +0.149 HD
ENDBRANCH   1  21
BRANCH   5  29
ATOM     29  C   UNL     1      35.515 -20.521 -19.941  0.00  0.00    +0.037 C 
ATOM     30  C   UNL     1      34.557 -19.752 -20.431  0.00  0.00    +0.003 C 
BRANCH  30  31
ATOM     31  C   UNL     1      34.702 -18.939 -21.650  0.00  0.00    +0.000 C 
ATOM     32  C   UNL     1      35.418 -17.753 -21.594  0.00  0.00    +0.000 C 
ATOM     33  C   UNL     1      34.119 -19.373 -22.829  0.00  0.00    +0.000 C 
ATOM     34  C   UNL     1      35.555 -16.983 -22.749  0.00  0.00    +0.000 C 
ATOM     35  C   UNL     1      34.256 -18.603 -23.984  0.00  0.00    +0.000 C 
ATOM     36  C   UNL     1      34.974 -17.407 -23.944  0.00  0.00    +0.000 C 
ENDBRANCH  30  31
ENDBRANCH   5  29
TORSDOF 4
ENDMDL
MODEL 2
REMARK VINA RESULT:     -12.7      1.361      2.075
REMARK  Name = 6105620
REMARK  4 active torsions:
REMARK  status: ('A' for Active; 'I' for Inactive)
REMARK    1  A    between atoms: N_2  and  C_7
REMARK    2  A    between atoms: N_3  and  C_21
REMARK    3  A    between atoms: C_9  and  C_29
REMARK    4  A    between atoms: C_30  and  C_31
REMARK                            x       y       z     vdW  Elec       q    Type
REMARK                         _______ _______ _______ _____ _____    ______ ____
ROOT
ATOM      1  N   UNL     1      35.814 -22.482 -16.518  0.00  0.00    -0.086 NA
ATOM      2  N   UNL     1      34.424 -22.741 -16.880  0.00  0.00    -0.132 N 
ATOM      3  N   UNL     1      36.343 -21.678 -17.567  0.00  0.00    -0.240 N 
ATOM      4  N   UNL     1      34.185 -22.193 -18.134  0.00  0.00    -0.146 NA
ATOM      5  C   UNL     1      35.316 -21.599 -18.481  0.00  0.00    +0.162 C 
ATOM      6  H   UNL     1      37.238 -21.272 -17.626  0.00  0.00    +0.170 HD
ENDROOT
BRANCH   2  11
ATOM      7  O   UNL     1      29.339 -22.312 -16.984  0.00  0.00    -0.220 OA
ATOM      8  O   UNL     1      30.218 -25.264 -12.796  0.00  0.00    -0.220 OA
ATOM      9  N   UNL     1      28.551 -23.484 -15.193  0.00  0.00    -0.062 NA
ATOM     10  N   UNL     1      28.762 -24.192 -14.187  0.00  0.00    -0.062 NA
ATOM     11  C   UNL     1      33.341 -23.200 -16.103  0.00  0.00    +0.089 C 
ATOM     12  C   UNL     1      32.017 -22.870 -16.447  0.00  0.00    +0.030 C 
ATOM     13  C   UNL     1      33.559 -23.999 -14.966  0.00  0.00    +0.019 C 
ATOM     14  C   UNL     1      30.950 -23.330 -15.670  0.00  0.00    +0.097 C 
ATOM     15  C   UNL     1      31.184 -24.113 -14.557  0.00  0.00    +0.096 C 
ATOM     16  C   UNL     1      32.490 -24.456 -14.195  0.00  0.00    +0.014 C 
ATOM     17  C   UNL     1      29.557 -23.007 -15.995  0.00  0.00    +0.174 C 
ATOM     18  C   UNL     1      30.021 -24.564 -13.785  0.00  0.00    +0.174 C 
ENDBRANCH   2  11
BRANCH   1  21
ATOM     19  S   UNL     1      36.085 -22.662 -13.861  0.00  0.00    -0.074 S 
ATOM     20  N   UNL     1      37.608 -23.756 -15.692  0.00  0.00    -0.310 N 
ATOM     21  C   UNL     1      36.527 -22.985 -15.535  0.00  0.00    +0.222 C 
ATOM     22  C   UNL     1      38.152 -24.138 -14.507  0.00  0.00    +0.052 C 
ATOM     23  C   UNL     1      37.479 -23.654 -13.380  0.00  0.00    +0.041 C 
ATOM     24  C   UNL     1      39.276 -24.939 -14.367  0.00  0.00    +0.015 C 
ATOM     25  C   UNL     1      37.910 -23.956 -12.099  0.00  0.00    +0.007 C 
ATOM     26  C   UNL     1      39.720 -25.249 -13.080  0.00  0.00    +0.001 C 
ATOM     27  C   UNL     1      39.042 -24.761 -11.954  0.00  0.00    +0.001 C 
ATOM     28  H   UNL     1      37.971 -24.019 -16.569  0.00  0.00    +0.149 HD
ENDBRANCH   1  21
BRANCH   5  29
ATOM     29  C   UNL     1      35.436 -20.909 -19.774  0.00  0.00    +0.037 C 
ATOM     30  C   UNL     1      34.751 -19.811 -20.045  0.00  0.00    +0.003 C 
BRANCH  30  31
ATOM     31  C   UNL     1      34.831 -19.091 -21.328  0.00  0.00    +0.000 C 
ATOM     32  C   UNL     1      35.494 -17.874 -21.384  0.00  0.00    +0.000 C 
ATOM     33  C   UNL     1      34.241 -19.642 -22.454  0.00  0.00    +0.000 C 
ATOM     34  C   UNL     1      35.569 -17.193 -22.599  0.00  0.00    +0.000 C 
ATOM     35  C   UNL     1      34.317 -18.961 -23.669  0.00  0.00    +0.000 C 
ATOM     36  C   UNL     1      34.981 -17.736 -23.741  0.00  0.00    +0.000 C 
ENDBRANCH  30  31
ENDBRANCH   5  29
TORSDOF 4
ENDMDL
MODEL 3
REMARK VINA RESULT:     -12.4      2.557      5.577
REMARK  Name = 6105620
REMARK  4 active torsions:
REMARK  status: ('A' for Active; 'I' for Inactive)
REMARK    1  A    between atoms: N_2  and  C_7
REMARK    2  A    between atoms: N_3  and  C_21
REMARK    3  A    between atoms: C_9  and  C_29
REMARK    4  A    between atoms: C_30  and  C_31
REMARK                            x       y       z     vdW  Elec       q    Type
REMARK                         _______ _______ _______ _____ _____    ______ ____
ROOT
ATOM      1  N   UNL     1      33.833 -23.141 -16.327  0.00  0.00    -0.086 NA
ATOM      2  N   UNL     1      35.152 -23.030 -15.711  0.00  0.00    -0.132 N 
ATOM      3  N   UNL     1      33.956 -22.540 -17.612  0.00  0.00    -0.240 N 
ATOM      4  N   UNL     1      35.978 -22.308 -16.562  0.00  0.00    -0.146 NA
ATOM      5  C   UNL     1      35.243 -22.051 -17.634  0.00  0.00    +0.162 C 
ATOM      6  H   UNL     1      33.276 -22.485 -18.322  0.00  0.00    +0.170 HD
ENDROOT
BRANCH   2  11
ATOM      7  O   UNL     1      36.647 -27.789 -14.630  0.00  0.00    -0.220 OA
ATOM      8  O   UNL     1      37.646 -25.183 -10.244  0.00  0.00    -0.220 OA
ATOM      9  N   UNL     1      37.416 -27.757 -12.483  0.00  0.00    -0.062 NA
ATOM     10  N   UNL     1      37.655 -27.132 -11.430  0.00  0.00    -0.062 NA
ATOM     11  C   UNL     1      35.710 -23.703 -14.605  0.00  0.00    +0.089 C 
ATOM     12  C   UNL     1      36.004 -25.077 -14.671  0.00  0.00    +0.030 C 
ATOM     13  C   UNL     1      35.987 -23.014 -13.410  0.00  0.00    +0.019 C 
ATOM     14  C   UNL     1      36.557 -25.734 -13.569  0.00  0.00    +0.097 C 
ATOM     15  C   UNL     1      36.822 -25.042 -12.403  0.00  0.00    +0.096 C 
ATOM     16  C   UNL     1      36.540 -23.676 -12.313  0.00  0.00    +0.014 C 
ATOM     17  C   UNL     1      36.877 -27.165 -13.598  0.00  0.00    +0.174 C 
ATOM     18  C   UNL     1      37.404 -25.790 -11.284  0.00  0.00    +0.174 C 
ENDBRANCH   2  11
BRANCH   1  21
ATOM     19  S   UNL     1      32.690 -24.399 -14.260  0.00  0.00    -0.074 S 
ATOM     20  N   UNL     1      31.494 -23.373 -16.355  0.00  0.00    -0.310 N 
ATOM     21  C   UNL     1      32.699 -23.550 -15.802  0.00  0.00    +0.222 C 
ATOM     22  C   UNL     1      30.494 -23.894 -15.599  0.00  0.00    +0.052 C 
ATOM     23  C   UNL     1      30.922 -24.501 -14.412  0.00  0.00    +0.041 C 
ATOM     24  C   UNL     1      29.146 -23.857 -15.925  0.00  0.00    +0.015 C 
ATOM     25  C   UNL     1      30.022 -25.079 -13.533  0.00  0.00    +0.007 C 
ATOM     26  C   UNL     1      28.229 -24.436 -15.046  0.00  0.00    +0.001 C 
ATOM     27  C   UNL     1      28.664 -25.044 -13.858  0.00  0.00    +0.001 C 
ATOM     28  H   UNL     1      31.348 -22.915 -17.214  0.00  0.00    +0.149 HD
ENDBRANCH   1  21
BRANCH   5  29
ATOM     29  C   UNL     1      35.797 -21.283 -18.758  0.00  0.00    +0.037 C 
ATOM     30  C   UNL     1      35.030 -20.551 -19.549  0.00  0.00    +0.003 C 
BRANCH  30  31
ATOM     31  C   UNL     1      35.537 -19.774 -20.693  0.00  0.00    +0.000 C 
ATOM     32  C   UNL     1      36.813 -19.236 -20.636  0.00  0.00    +0.000 C 
ATOM     33  C   UNL     1      34.728 -19.593 -21.803  0.00  0.00    +0.000 C 
ATOM     34  C   UNL     1      37.294 -18.500 -21.719  0.00  0.00    +0.000 C 
ATOM     35  C   UNL     1      35.208 -18.857 -22.886  0.00  0.00    +0.000 C 
ATOM     36  C   UNL     1      36.491 -18.310 -22.844  0.00  0.00    +0.000 C 
ENDBRANCH  30  31
ENDBRANCH   5  29
TORSDOF 4
ENDMDL
MODEL 4
REMARK VINA RESULT:     -12.2      2.301      5.406
REMARK  Name = 6105620
REMARK  4 active torsions:
REMARK  status: ('A' for Active; 'I' for Inactive)
REMARK    1  A    between atoms: N_2  and  C_7
REMARK    2  A    between atoms: N_3  and  C_21
REMARK    3  A    between atoms: C_9  and  C_29
REMARK    4  A    between atoms: C_30  and  C_31
REMARK                            x       y       z     vdW  Elec       q    Type
REMARK                         _______ _______ _______ _____ _____    ______ ____
ROOT
ATOM      1  N   UNL     1      33.759 -22.704 -17.013  0.00  0.00    -0.086 NA
ATOM      2  N   UNL     1      35.145 -22.473 -16.622  0.00  0.00    -0.132 N 
ATOM      3  N   UNL     1      33.630 -22.157 -18.321  0.00  0.00    -0.240 N 
ATOM      4  N   UNL     1      35.769 -21.735 -17.620  0.00  0.00    -0.146 NA
ATOM      5  C   UNL     1      34.857 -21.581 -18.567  0.00  0.00    +0.162 C 
ATOM      6  H   UNL     1      32.844 -22.184 -18.914  0.00  0.00    +0.170 HD
ENDROOT
BRANCH   2  11
ATOM      7  O   UNL     1      36.232 -27.191 -15.006  0.00  0.00    -0.220 OA
ATOM      8  O   UNL     1      38.892 -24.150 -11.734  0.00  0.00    -0.220 OA
ATOM      9  N   UNL     1      37.626 -26.960 -13.216  0.00  0.00    -0.062 NA
ATOM     10  N   UNL     1      38.264 -26.230 -12.430  0.00  0.00    -0.062 NA
ATOM     11  C   UNL     1      35.922 -23.052 -15.597  0.00  0.00    +0.089 C 
ATOM     12  C   UNL     1      35.988 -24.449 -15.446  0.00  0.00    +0.030 C 
ATOM     13  C   UNL     1      36.647 -22.245 -14.702  0.00  0.00    +0.019 C 
ATOM     14  C   UNL     1      36.760 -25.013 -14.427  0.00  0.00    +0.097 C 
ATOM     15  C   UNL     1      37.466 -24.205 -13.557  0.00  0.00    +0.096 C 
ATOM     16  C   UNL     1      37.417 -22.814 -13.687  0.00  0.00    +0.014 C 
ATOM     17  C   UNL     1      36.854 -26.464 -14.237  0.00  0.00    +0.174 C 
ATOM     18  C   UNL     1      38.258 -24.860 -12.510  0.00  0.00    +0.174 C 
ENDBRANCH   2  11
BRANCH   1  21
ATOM     19  S   UNL     1      33.013 -23.672 -14.632  0.00  0.00    -0.074 S 
ATOM     20  N   UNL     1      31.500 -23.294 -16.738  0.00  0.00    -0.310 N 
ATOM     21  C   UNL     1      32.757 -23.166 -16.299  0.00  0.00    +0.222 C 
ATOM     22  C   UNL     1      30.667 -23.797 -15.791  0.00  0.00    +0.052 C 
ATOM     23  C   UNL     1      31.283 -24.074 -14.566  0.00  0.00    +0.041 C 
ATOM     24  C   UNL     1      29.311 -24.035 -15.968  0.00  0.00    +0.015 C 
ATOM     25  C   UNL     1      30.567 -24.591 -13.499  0.00  0.00    +0.007 C 
ATOM     26  C   UNL     1      28.579 -24.556 -14.899  0.00  0.00    +0.001 C 
ATOM     27  C   UNL     1      29.203 -24.832 -13.673  0.00  0.00    +0.001 C 
ATOM     28  H   UNL     1      31.211 -23.051 -17.648  0.00  0.00    +0.149 HD
ENDBRANCH   1  21
BRANCH   5  29
ATOM     29  C   UNL     1      35.166 -20.830 -19.793  0.00  0.00    +0.037 C 
ATOM     30  C   UNL     1      34.344 -19.912 -20.274  0.00  0.00    +0.003 C 
BRANCH  30  31
ATOM     31  C   UNL     1      34.605 -19.142 -21.503  0.00  0.00    +0.000 C 
ATOM     32  C   UNL     1      35.470 -18.059 -21.454  0.00  0.00    +0.000 C 
ATOM     33  C   UNL     1      33.981 -19.513 -22.682  0.00  0.00    +0.000 C 
ATOM     34  C   UNL     1      35.717 -17.330 -22.617  0.00  0.00    +0.000 C 
ATOM     35  C   UNL     1      34.229 -18.784 -23.846  0.00  0.00    +0.000 C 
ATOM     36  C   UNL     1      35.097 -17.692 -23.813  0.00  0.00    +0.000 C 
ENDBRANCH  30  31
ENDBRANCH   5  29
TORSDOF 4
ENDMDL
MODEL 5
REMARK VINA RESULT:     -12.1      2.529      5.576
REMARK  Name = 6105620
REMARK  4 active torsions:
REMARK  status: ('A' for Active; 'I' for Inactive)
REMARK    1  A    between atoms: N_2  and  C_7
REMARK    2  A    between atoms: N_3  and  C_21
REMARK    3  A    between atoms: C_9  and  C_29
REMARK    4  A    between atoms: C_30  and  C_31
REMARK                            x       y       z     vdW  Elec       q    Type
REMARK                         _______ _______ _______ _____ _____    ______ ____
ROOT
ATOM      1  N   UNL     1      33.812 -23.156 -16.387  0.00  0.00    -0.086 NA
ATOM      2  N   UNL     1      35.159 -23.181 -15.825  0.00  0.00    -0.132 N 
ATOM      3  N   UNL     1      33.923 -22.461 -17.625  0.00  0.00    -0.240 N 
ATOM      4  N   UNL     1      35.997 -22.447 -16.654  0.00  0.00    -0.146 NA
ATOM      5  C   UNL     1      35.239 -22.057 -17.667  0.00  0.00    +0.162 C 
ATOM      6  H   UNL     1      33.220 -22.305 -18.297  0.00  0.00    +0.170 HD
ENDROOT
BRANCH   2  11
ATOM      7  O   UNL     1      36.799 -22.465 -11.045  0.00  0.00    -0.220 OA
ATOM      8  O   UNL     1      37.589 -27.540 -11.846  0.00  0.00    -0.220 OA
ATOM      9  N   UNL     1      37.524 -24.493 -10.296  0.00  0.00    -0.062 NA
ATOM     10  N   UNL     1      37.713 -25.712 -10.488  0.00  0.00    -0.062 NA
ATOM     11  C   UNL     1      35.715 -23.977 -14.802  0.00  0.00    +0.089 C 
ATOM     12  C   UNL     1      36.060 -23.414 -13.560  0.00  0.00    +0.030 C 
ATOM     13  C   UNL     1      35.936 -25.352 -15.001  0.00  0.00    +0.019 C 
ATOM     14  C   UNL     1      36.610 -24.211 -12.553  0.00  0.00    +0.097 C 
ATOM     15  C   UNL     1      36.821 -25.560 -12.765  0.00  0.00    +0.096 C 
ATOM     16  C   UNL     1      36.485 -26.142 -13.991  0.00  0.00    +0.014 C 
ATOM     17  C   UNL     1      36.984 -23.662 -11.245  0.00  0.00    +0.174 C 
ATOM     18  C   UNL     1      37.401 -26.340 -11.667  0.00  0.00    +0.174 C 
ENDBRANCH   2  11
BRANCH   1  21
ATOM     19  S   UNL     1      32.660 -24.322 -14.271  0.00  0.00    -0.074 S 
ATOM     20  N   UNL     1      31.471 -23.364 -16.401  0.00  0.00    -0.310 N 
ATOM     21  C   UNL     1      32.675 -23.532 -15.845  0.00  0.00    +0.222 C 
ATOM     22  C   UNL     1      30.467 -23.845 -15.623  0.00  0.00    +0.052 C 
ATOM     23  C   UNL     1      30.891 -24.410 -14.415  0.00  0.00    +0.041 C 
ATOM     24  C   UNL     1      29.119 -23.805 -15.948  0.00  0.00    +0.015 C 
ATOM     25  C   UNL     1      29.987 -24.945 -13.512  0.00  0.00    +0.007 C 
ATOM     26  C   UNL     1      28.197 -24.341 -15.045  0.00  0.00    +0.001 C 
ATOM     27  C   UNL     1      28.629 -24.907 -13.836  0.00  0.00    +0.001 C 
ATOM     28  H   UNL     1      31.327 -22.938 -17.277  0.00  0.00    +0.149 HD
ENDBRANCH   1  21
BRANCH   5  29
ATOM     29  C   UNL     1      35.798 -21.237 -18.752  0.00  0.00    +0.037 C 
ATOM     30  C   UNL     1      35.024 -20.562 -19.585  0.00  0.00    +0.003 C 
BRANCH  30  31
ATOM     31  C   UNL     1      35.537 -19.736 -20.693  0.00  0.00    +0.000 C 
ATOM     32  C   UNL     1      34.727 -19.496 -21.792  0.00  0.00    +0.000 C 
ATOM     33  C   UNL     1      36.818 -19.216 -20.615  0.00  0.00    +0.000 C 
ATOM     34  C   UNL     1      35.212 -18.713 -22.840  0.00  0.00    +0.000 C 
ATOM     35  C   UNL     1      37.303 -18.433 -21.663  0.00  0.00    +0.000 C 
ATOM     36  C   UNL     1      36.500 -18.182 -22.776  0.00  0.00    +0.000 C 
ENDBRANCH  30  31
ENDBRANCH   5  29
TORSDOF 4
ENDMDL
