MODEL 1
REMARK VINA RESULT:     -11.8      0.000      0.000
REMARK  Name = 46937052
REMARK  7 active torsions:
REMARK  status: ('A' for Active; 'I' for Inactive)
REMARK    1  A    between atoms: O_1  and  C_3
REMARK    2  A    between atoms: O_1  and  C_17
REMARK    3  A    between atoms: C_4  and  C_11
REMARK    4  A    between atoms: C_17  and  C_18
REMARK    5  A    between atoms: C_18  and  N_19
REMARK    6  A    between atoms: C_18  and  C_23
REMARK    7  A    between atoms: C_23  and  C_25
REMARK                            x       y       z     vdW  Elec       q    Type
REMARK                         _______ _______ _______ _____ _____    ______ ____
ROOT
ATOM      1  O   UNL     1      35.268 -15.071 -22.906  0.00  0.00    -0.476 OA
ENDROOT
BRANCH   1   3
ATOM      2  N   UNL     1      34.219 -18.237 -24.409  0.00  0.00    -0.239 NA
ATOM      3  C   UNL     1      34.986 -16.406 -23.029  0.00  0.00    +0.158 C 
ATOM      4  C   UNL     1      34.870 -18.628 -22.113  0.00  0.00    +0.039 C 
ATOM      5  C   UNL     1      35.163 -17.277 -21.959  0.00  0.00    +0.042 C 
ATOM      6  C   UNL     1      34.517 -16.931 -24.221  0.00  0.00    +0.136 C 
ATOM      7  C   UNL     1      34.404 -19.053 -23.347  0.00  0.00    +0.101 C 
BRANCH   4  11
ATOM      8  N   UNL     1      36.245 -19.843 -20.590  0.00  0.00    -0.264 NA
ATOM      9  N   UNL     1      35.186 -22.207 -17.938  0.00  0.00    -0.150 NA
ATOM     10  N   UNL     1      33.767 -22.501 -17.736  0.00  0.00    -0.147 NA
ATOM     11  C   UNL     1      35.047 -19.585 -20.988  0.00  0.00    +0.078 C 
ATOM     12  C   UNL     1      33.967 -21.019 -19.435  0.00  0.00    +0.040 C 
ATOM     13  C   UNL     1      35.273 -21.353 -18.922  0.00  0.00    +0.107 C 
ATOM     14  C   UNL     1      36.514 -20.771 -19.489  0.00  0.00    +0.173 C 
ATOM     15  C   UNL     1      33.793 -20.173 -20.438  0.00  0.00    +0.022 C 
ATOM     16  C   UNL     1      33.089 -21.812 -18.607  0.00  0.00    +0.123 C 
ENDBRANCH   4  11
ENDBRANCH   1   3
BRANCH   1  17
ATOM     17  C   UNL     1      34.203 -14.226 -22.491  0.00  0.00    +0.184 C 
BRANCH  17  18
ATOM     18  C   UNL     1      33.898 -13.179 -23.570  0.00  0.00    -0.017 C 
BRANCH  18  19
ATOM     19  N   UNL     1      33.053 -13.803 -24.591  0.00  0.00    +0.384 N 
ATOM     20  H   UNL     1      33.155 -14.817 -24.543  0.00  0.00    -0.089 HD
ATOM     21  H   UNL     1      33.338 -13.476 -25.514  0.00  0.00    -0.089 HD
ATOM     22  H   UNL     1      32.079 -13.551 -24.426  0.00  0.00    -0.089 HD
ENDBRANCH  18  19
BRANCH  18  23
ATOM     23  C   UNL     1      33.178 -11.926 -23.013  0.00  0.00    +0.010 C 
BRANCH  23  25
ATOM     24  N   UNL     1      35.184  -9.272 -24.719  0.00  0.00    -0.244 NA
ATOM     25  C   UNL     1      33.776 -10.640 -23.418  0.00  0.00    -0.004 C 
ATOM     26  C   UNL     1      33.642  -9.374 -23.007  0.00  0.00    +0.011 C 
ATOM     27  C   UNL     1      34.504  -8.522 -23.799  0.00  0.00    +0.080 C 
ATOM     28  C   UNL     1      34.764 -10.481 -24.497  0.00  0.00    +0.094 C 
ATOM     29  C   UNL     1      32.807  -8.845 -21.959  0.00  0.00    -0.020 C 
ATOM     30  C   UNL     1      34.554  -7.202 -23.582  0.00  0.00    +0.015 C 
ATOM     31  C   UNL     1      33.711  -6.554 -22.500  0.00  0.00    -0.020 C 
ATOM     32  C   UNL     1      32.838  -7.522 -21.721  0.00  0.00    +0.052 C 
ENDBRANCH  23  25
ENDBRANCH  18  23
ENDBRANCH  17  18
ENDBRANCH   1  17
TORSDOF 7
ENDMDL
MODEL 2
REMARK VINA RESULT:     -11.7      1.785     10.650
REMARK  Name = 46937052
REMARK  7 active torsions:
REMARK  status: ('A' for Active; 'I' for Inactive)
REMARK    1  A    between atoms: O_1  and  C_3
REMARK    2  A    between atoms: O_1  and  C_17
REMARK    3  A    between atoms: C_4  and  C_11
REMARK    4  A    between atoms: C_17  and  C_18
REMARK    5  A    between atoms: C_18  and  N_19
REMARK    6  A    between atoms: C_18  and  C_23
REMARK    7  A    between atoms: C_23  and  C_25
REMARK                            x       y       z     vdW  Elec       q    Type
REMARK                         _______ _______ _______ _____ _____    ______ ____
ROOT
ATOM      1  O   UNL     1      35.354 -16.427 -21.964  0.00  0.00    -0.476 OA
ENDROOT
BRANCH   1   3
ATOM      2  N   UNL     1      33.951 -15.030 -25.041  0.00  0.00    -0.239 NA
ATOM      3  C   UNL     1      34.717 -15.555 -22.809  0.00  0.00    +0.158 C 
ATOM      4  C   UNL     1      33.558 -13.488 -23.221  0.00  0.00    +0.039 C 
ATOM      5  C   UNL     1      34.200 -14.352 -22.341  0.00  0.00    +0.042 C 
ATOM      6  C   UNL     1      34.567 -15.845 -24.155  0.00  0.00    +0.136 C 
ATOM      7  C   UNL     1      33.461 -13.870 -24.549  0.00  0.00    +0.101 C 
BRANCH   4  11
ATOM      8  N   UNL     1      32.117 -12.215 -21.809  0.00  0.00    -0.264 NA
ATOM      9  N   UNL     1      31.674  -8.536 -21.714  0.00  0.00    -0.150 NA
ATOM     10  N   UNL     1      32.427  -7.679 -22.628  0.00  0.00    -0.147 NA
ATOM     11  C   UNL     1      32.995 -12.193 -22.752  0.00  0.00    +0.078 C 
ATOM     12  C   UNL     1      32.999  -9.835 -23.016  0.00  0.00    +0.040 C 
ATOM     13  C   UNL     1      32.021  -9.771 -21.958  0.00  0.00    +0.107 C 
ATOM     14  C   UNL     1      31.511 -10.990 -21.283  0.00  0.00    +0.173 C 
ATOM     15  C   UNL     1      33.505 -10.978 -23.448  0.00  0.00    +0.022 C 
ATOM     16  C   UNL     1      33.177  -8.445 -23.367  0.00  0.00    +0.123 C 
ENDBRANCH   4  11
ENDBRANCH   1   3
BRANCH   1  17
ATOM     17  C   UNL     1      35.865 -17.621 -22.542  0.00  0.00    +0.184 C 
BRANCH  17  18
ATOM     18  C   UNL     1      34.979 -18.817 -22.174  0.00  0.00    -0.017 C 
BRANCH  18  19
ATOM     19  N   UNL     1      34.808 -19.648 -23.368  0.00  0.00    +0.384 N 
ATOM     20  H   UNL     1      35.620 -19.539 -23.977  0.00  0.00    -0.089 HD
ATOM     21  H   UNL     1      33.968 -19.357 -23.868  0.00  0.00    -0.089 HD
ATOM     22  H   UNL     1      34.719 -20.626 -23.092  0.00  0.00    -0.089 HD
ENDBRANCH  18  19
BRANCH  18  23
ATOM     23  C   UNL     1      35.570 -19.684 -21.034  0.00  0.00    +0.010 C 
BRANCH  23  25
ATOM     24  N   UNL     1      32.379 -20.976 -19.578  0.00  0.00    -0.244 NA
ATOM     25  C   UNL     1      34.569 -20.364 -20.194  0.00  0.00    -0.004 C 
ATOM     26  C   UNL     1      34.631 -21.141 -19.106  0.00  0.00    +0.011 C 
ATOM     27  C   UNL     1      33.290 -21.525 -18.717  0.00  0.00    +0.080 C 
ATOM     28  C   UNL     1      33.115 -20.314 -20.420  0.00  0.00    +0.094 C 
ATOM     29  C   UNL     1      35.790 -21.581 -18.372  0.00  0.00    -0.020 C 
ATOM     30  C   UNL     1      33.081 -22.307 -17.651  0.00  0.00    +0.015 C 
ATOM     31  C   UNL     1      34.238 -22.818 -16.816  0.00  0.00    -0.020 C 
ATOM     32  C   UNL     1      35.606 -22.368 -17.297  0.00  0.00    +0.052 C 
ENDBRANCH  23  25
ENDBRANCH  18  23
ENDBRANCH  17  18
ENDBRANCH   1  17
TORSDOF 7
ENDMDL
MODEL 3
REMARK VINA RESULT:     -11.6      1.768     10.740
REMARK  Name = 46937052
REMARK  7 active torsions:
REMARK  status: ('A' for Active; 'I' for Inactive)
REMARK    1  A    between atoms: O_1  and  C_3
REMARK    2  A    between atoms: O_1  and  C_17
REMARK    3  A    between atoms: C_4  and  C_11
REMARK    4  A    between atoms: C_17  and  C_18
REMARK    5  A    between atoms: C_18  and  N_19
REMARK    6  A    between atoms: C_18  and  C_23
REMARK    7  A    between atoms: C_23  and  C_25
REMARK                            x       y       z     vdW  Elec       q    Type
REMARK                         _______ _______ _______ _____ _____    ______ ____
ROOT
ATOM      1  O   UNL     1      35.394 -16.483 -22.218  0.00  0.00    -0.476 OA
ENDROOT
BRANCH   1   3
ATOM      2  N   UNL     1      33.785 -15.024 -25.162  0.00  0.00    -0.239 NA
ATOM      3  C   UNL     1      34.701 -15.595 -22.999  0.00  0.00    +0.158 C 
ATOM      4  C   UNL     1      33.518 -13.520 -23.288  0.00  0.00    +0.039 C 
ATOM      5  C   UNL     1      34.219 -14.402 -22.472  0.00  0.00    +0.042 C 
ATOM      6  C   UNL     1      34.460 -15.856 -24.338  0.00  0.00    +0.136 C 
ATOM      7  C   UNL     1      33.331 -13.875 -24.615  0.00  0.00    +0.101 C 
BRANCH   4  11
ATOM      8  N   UNL     1      32.147 -12.279 -21.782  0.00  0.00    -0.264 NA
ATOM      9  N   UNL     1      31.753  -8.601 -21.547  0.00  0.00    -0.150 NA
ATOM     10  N   UNL     1      32.482  -7.722 -22.460  0.00  0.00    -0.147 NA
ATOM     11  C   UNL     1      32.989 -12.236 -22.755  0.00  0.00    +0.078 C 
ATOM     12  C   UNL     1      33.013  -9.870 -22.941  0.00  0.00    +0.040 C 
ATOM     13  C   UNL     1      32.075  -9.831 -21.846  0.00  0.00    +0.107 C 
ATOM     14  C   UNL     1      31.576 -11.066 -21.193  0.00  0.00    +0.173 C 
ATOM     15  C   UNL     1      33.488 -11.004 -23.429  0.00  0.00    +0.022 C 
ATOM     16  C   UNL     1      33.194  -8.471 -23.252  0.00  0.00    +0.123 C 
ENDBRANCH   4  11
ENDBRANCH   1   3
BRANCH   1  17
ATOM     17  C   UNL     1      35.336 -17.851 -22.598  0.00  0.00    +0.184 C 
BRANCH  17  18
ATOM     18  C   UNL     1      35.784 -18.749 -21.438  0.00  0.00    -0.017 C 
BRANCH  18  19
ATOM     19  N   UNL     1      36.072 -17.896 -20.282  0.00  0.00    +0.384 N 
ATOM     20  H   UNL     1      35.236 -17.814 -19.704  0.00  0.00    -0.089 HD
ATOM     21  H   UNL     1      36.356 -16.971 -20.603  0.00  0.00    -0.089 HD
ATOM     22  H   UNL     1      36.825 -18.312 -19.732  0.00  0.00    -0.089 HD
ENDBRANCH  18  19
BRANCH  18  23
ATOM     23  C   UNL     1      34.721 -19.802 -21.038  0.00  0.00    +0.010 C 
BRANCH  23  25
ATOM     24  N   UNL     1      36.584 -21.633 -18.365  0.00  0.00    -0.244 NA
ATOM     25  C   UNL     1      35.078 -20.626 -19.870  0.00  0.00    -0.004 C 
ATOM     26  C   UNL     1      34.379 -21.315 -18.961  0.00  0.00    +0.011 C 
ATOM     27  C   UNL     1      35.294 -21.940 -18.028  0.00  0.00    +0.080 C 
ATOM     28  C   UNL     1      36.455 -20.882 -19.417  0.00  0.00    +0.094 C 
ATOM     29  C   UNL     1      32.951 -21.471 -18.843  0.00  0.00    -0.020 C 
ATOM     30  C   UNL     1      34.839 -22.691 -17.018  0.00  0.00    +0.015 C 
ATOM     31  C   UNL     1      33.353 -22.913 -16.813  0.00  0.00    -0.020 C 
ATOM     32  C   UNL     1      32.469 -22.220 -17.835  0.00  0.00    +0.052 C 
ENDBRANCH  23  25
ENDBRANCH  18  23
ENDBRANCH  17  18
ENDBRANCH   1  17
TORSDOF 7
ENDMDL
MODEL 4
REMARK VINA RESULT:     -11.5      1.539      2.067
REMARK  Name = 46937052
REMARK  7 active torsions:
REMARK  status: ('A' for Active; 'I' for Inactive)
REMARK    1  A    between atoms: O_1  and  C_3
REMARK    2  A    between atoms: O_1  and  C_17
REMARK    3  A    between atoms: C_4  and  C_11
REMARK    4  A    between atoms: C_17  and  C_18
REMARK    5  A    between atoms: C_18  and  N_19
REMARK    6  A    between atoms: C_18  and  C_23
REMARK    7  A    between atoms: C_23  and  C_25
REMARK                            x       y       z     vdW  Elec       q    Type
REMARK                         _______ _______ _______ _____ _____    ______ ____
ROOT
ATOM      1  O   UNL     1      35.111 -14.899 -22.847  0.00  0.00    -0.476 OA
ENDROOT
BRANCH   1   3
ATOM      2  N   UNL     1      34.268 -18.085 -24.434  0.00  0.00    -0.239 NA
ATOM      3  C   UNL     1      34.911 -16.245 -23.003  0.00  0.00    +0.158 C 
ATOM      4  C   UNL     1      34.919 -18.491 -22.141  0.00  0.00    +0.039 C 
ATOM      5  C   UNL     1      35.129 -17.130 -21.953  0.00  0.00    +0.042 C 
ATOM      6  C   UNL     1      34.485 -16.769 -24.213  0.00  0.00    +0.136 C 
ATOM      7  C   UNL     1      34.492 -18.914 -23.390  0.00  0.00    +0.101 C 
BRANCH   4  11
ATOM      8  N   UNL     1      36.350 -19.656 -20.629  0.00  0.00    -0.264 NA
ATOM      9  N   UNL     1      35.410 -22.145 -18.048  0.00  0.00    -0.150 NA
ATOM     10  N   UNL     1      34.011 -22.532 -17.872  0.00  0.00    -0.147 NA
ATOM     11  C   UNL     1      35.143 -19.463 -21.037  0.00  0.00    +0.078 C 
ATOM     12  C   UNL     1      34.137 -20.999 -19.533  0.00  0.00    +0.040 C 
ATOM     13  C   UNL     1      35.455 -21.263 -19.010  0.00  0.00    +0.107 C 
ATOM     14  C   UNL     1      36.664 -20.591 -19.547  0.00  0.00    +0.173 C 
ATOM     15  C   UNL     1      33.923 -20.141 -20.518  0.00  0.00    +0.022 C 
ATOM     16  C   UNL     1      33.301 -21.865 -18.736  0.00  0.00    +0.123 C 
ENDBRANCH   4  11
ENDBRANCH   1   3
BRANCH   1  17
ATOM     17  C   UNL     1      34.260 -14.227 -21.927  0.00  0.00    +0.184 C 
BRANCH  17  18
ATOM     18  C   UNL     1      33.690 -12.951 -22.558  0.00  0.00    -0.017 C 
BRANCH  18  19
ATOM     19  N   UNL     1      33.707 -13.111 -24.014  0.00  0.00    +0.384 N 
ATOM     20  H   UNL     1      34.444 -13.766 -24.276  0.00  0.00    -0.089 HD
ATOM     21  H   UNL     1      33.884 -12.207 -24.454  0.00  0.00    -0.089 HD
ATOM     22  H   UNL     1      32.805 -13.471 -24.327  0.00  0.00    -0.089 HD
ENDBRANCH  18  19
BRANCH  18  23
ATOM     23  C   UNL     1      32.244 -12.640 -22.100  0.00  0.00    +0.010 C 
BRANCH  23  25
ATOM     24  N   UNL     1      31.528  -9.911 -19.647  0.00  0.00    -0.244 NA
ATOM     25  C   UNL     1      32.072 -11.329 -21.447  0.00  0.00    -0.004 C 
ATOM     26  C   UNL     1      32.241 -10.060 -21.835  0.00  0.00    +0.011 C 
ATOM     27  C   UNL     1      31.910  -9.177 -20.736  0.00  0.00    +0.080 C 
ATOM     28  C   UNL     1      31.623 -11.140 -20.058  0.00  0.00    +0.094 C 
ATOM     29  C   UNL     1      32.677  -9.553 -23.112  0.00  0.00    -0.020 C 
ATOM     30  C   UNL     1      31.998  -7.848 -20.872  0.00  0.00    +0.015 C 
ATOM     31  C   UNL     1      32.447  -7.222 -22.178  0.00  0.00    -0.020 C 
ATOM     32  C   UNL     1      32.774  -8.221 -23.273  0.00  0.00    +0.052 C 
ENDBRANCH  23  25
ENDBRANCH  18  23
ENDBRANCH  17  18
ENDBRANCH   1  17
TORSDOF 7
ENDMDL
MODEL 5
REMARK VINA RESULT:     -11.4      3.097      6.320
REMARK  Name = 46937052
REMARK  7 active torsions:
REMARK  status: ('A' for Active; 'I' for Inactive)
REMARK    1  A    between atoms: O_1  and  C_3
REMARK    2  A    between atoms: O_1  and  C_17
REMARK    3  A    between atoms: C_4  and  C_11
REMARK    4  A    between atoms: C_17  and  C_18
REMARK    5  A    between atoms: C_18  and  N_19
REMARK    6  A    between atoms: C_18  and  C_23
REMARK    7  A    between atoms: C_23  and  C_25
REMARK                            x       y       z     vdW  Elec       q    Type
REMARK                         _______ _______ _______ _____ _____    ______ ____
ROOT
ATOM      1  O   UNL     1      33.756 -20.166 -20.639  0.00  0.00    -0.476 OA
ENDROOT
BRANCH   1   3
ATOM      2  N   UNL     1      35.719 -22.063 -18.203  0.00  0.00    -0.239 NA
ATOM      3  C   UNL     1      34.051 -20.951 -19.555  0.00  0.00    +0.158 C 
ATOM      4  C   UNL     1      33.376 -22.223 -17.628  0.00  0.00    +0.039 C 
ATOM      5  C   UNL     1      33.047 -21.429 -18.722  0.00  0.00    +0.042 C 
ATOM      6  C   UNL     1      35.360 -21.294 -19.255  0.00  0.00    +0.136 C 
ATOM      7  C   UNL     1      34.715 -22.509 -17.415  0.00  0.00    +0.101 C 
BRANCH   4  11
ATOM      8  N   UNL     1      31.091 -22.523 -17.012  0.00  0.00    -0.264 NA
ATOM      9  N   UNL     1      29.732 -24.309 -14.062  0.00  0.00    -0.150 NA
ATOM     10  N   UNL     1      30.637 -24.927 -13.093  0.00  0.00    -0.147 NA
ATOM     11  C   UNL     1      32.324 -22.751 -16.718  0.00  0.00    +0.078 C 
ATOM     12  C   UNL     1      31.872 -23.959 -14.726  0.00  0.00    +0.040 C 
ATOM     13  C   UNL     1      30.468 -23.758 -14.990  0.00  0.00    +0.107 C 
ATOM     14  C   UNL     1      29.990 -23.006 -16.176  0.00  0.00    +0.173 C 
ATOM     15  C   UNL     1      32.818 -23.491 -15.523  0.00  0.00    +0.022 C 
ATOM     16  C   UNL     1      31.857 -24.711 -13.493  0.00  0.00    +0.123 C 
ENDBRANCH   4  11
ENDBRANCH   1   3
BRANCH   1  17
ATOM     17  C   UNL     1      34.844 -19.788 -21.472  0.00  0.00    +0.184 C 
BRANCH  17  18
ATOM     18  C   UNL     1      35.060 -18.270 -21.415  0.00  0.00    -0.017 C 
BRANCH  18  19
ATOM     19  N   UNL     1      35.928 -17.972 -20.273  0.00  0.00    +0.384 N 
ATOM     20  H   UNL     1      35.419 -17.400 -19.599  0.00  0.00    -0.089 HD
ATOM     21  H   UNL     1      36.752 -17.465 -20.595  0.00  0.00    -0.089 HD
ATOM     22  H   UNL     1      36.217 -18.844 -19.829  0.00  0.00    -0.089 HD
ENDBRANCH  18  19
BRANCH  18  23
ATOM     23  C   UNL     1      35.703 -17.699 -22.703  0.00  0.00    +0.010 C 
BRANCH  23  25
ATOM     24  N   UNL     1      33.876 -15.493 -25.104  0.00  0.00    -0.244 NA
ATOM     25  C   UNL     1      34.960 -16.588 -23.322  0.00  0.00    -0.004 C 
ATOM     26  C   UNL     1      34.500 -15.409 -22.885  0.00  0.00    +0.011 C 
ATOM     27  C   UNL     1      33.830 -14.726 -23.972  0.00  0.00    +0.080 C 
ATOM     28  C   UNL     1      34.522 -16.555 -24.727  0.00  0.00    +0.094 C 
ATOM     29  C   UNL     1      34.601 -14.828 -21.571  0.00  0.00    -0.020 C 
ATOM     30  C   UNL     1      33.279 -13.519 -23.790  0.00  0.00    +0.015 C 
ATOM     31  C   UNL     1      33.337 -12.828 -22.442  0.00  0.00    -0.020 C 
ATOM     32  C   UNL     1      34.055 -13.617 -21.362  0.00  0.00    +0.052 C 
ENDBRANCH  23  25
ENDBRANCH  18  23
ENDBRANCH  17  18
ENDBRANCH   1  17
TORSDOF 7
ENDMDL
MODEL 6
REMARK VINA RESULT:     -11.3      5.600     12.047
REMARK  Name = 46937052
REMARK  7 active torsions:
REMARK  status: ('A' for Active; 'I' for Inactive)
REMARK    1  A    between atoms: O_1  and  C_3
REMARK    2  A    between atoms: O_1  and  C_17
REMARK    3  A    between atoms: C_4  and  C_11
REMARK    4  A    between atoms: C_17  and  C_18
REMARK    5  A    between atoms: C_18  and  N_19
REMARK    6  A    between atoms: C_18  and  C_23
REMARK    7  A    between atoms: C_23  and  C_25
REMARK                            x       y       z     vdW  Elec       q    Type
REMARK                         _______ _______ _______ _____ _____    ______ ____
ROOT
ATOM      1  O   UNL     1      35.927 -22.627 -17.444  0.00  0.00    -0.476 OA
ENDROOT
BRANCH   1   3
ATOM      2  N   UNL     1      32.644 -21.958 -18.912  0.00  0.00    -0.239 NA
ATOM      3  C   UNL     1      34.962 -22.060 -18.234  0.00  0.00    +0.158 C 
ATOM      4  C   UNL     1      34.278 -20.491 -19.925  0.00  0.00    +0.039 C 
ATOM      5  C   UNL     1      35.278 -21.049 -19.136  0.00  0.00    +0.042 C 
ATOM      6  C   UNL     1      33.643 -22.475 -18.161  0.00  0.00    +0.136 C 
ATOM      7  C   UNL     1      32.988 -20.977 -19.776  0.00  0.00    +0.101 C 
BRANCH   4  11
ATOM      8  N   UNL     1      35.363 -18.454 -20.527  0.00  0.00    -0.264 NA
ATOM      9  N   UNL     1      35.205 -16.647 -23.760  0.00  0.00    -0.150 NA
ATOM     10  N   UNL     1      34.390 -17.168 -24.856  0.00  0.00    -0.147 NA
ATOM     11  C   UNL     1      34.582 -19.409 -20.899  0.00  0.00    +0.078 C 
ATOM     12  C   UNL     1      34.209 -18.569 -23.087  0.00  0.00    +0.040 C 
ATOM     13  C   UNL     1      35.082 -17.471 -22.754  0.00  0.00    +0.107 C 
ATOM     14  C   UNL     1      35.720 -17.349 -21.419  0.00  0.00    +0.173 C 
ATOM     15  C   UNL     1      33.924 -19.536 -22.230  0.00  0.00    +0.022 C 
ATOM     16  C   UNL     1      33.827 -18.268 -24.447  0.00  0.00    +0.123 C 
ENDBRANCH   4  11
ENDBRANCH   1   3
BRANCH   1  17
ATOM     17  C   UNL     1      35.826 -22.397 -16.045  0.00  0.00    +0.184 C 
BRANCH  17  18
ATOM     18  C   UNL     1      34.921 -23.449 -15.392  0.00  0.00    -0.017 C 
BRANCH  18  19
ATOM     19  N   UNL     1      35.768 -24.392 -14.657  0.00  0.00    +0.384 N 
ATOM     20  H   UNL     1      36.287 -24.969 -15.318  0.00  0.00    -0.089 HD
ATOM     21  H   UNL     1      35.184 -24.988 -14.070  0.00  0.00    -0.089 HD
ATOM     22  H   UNL     1      36.423 -23.874 -14.071  0.00  0.00    -0.089 HD
ENDBRANCH  18  19
BRANCH  18  23
ATOM     23  C   UNL     1      33.882 -22.837 -14.420  0.00  0.00    +0.010 C 
BRANCH  23  25
ATOM     24  N   UNL     1      31.376 -25.369 -13.285  0.00  0.00    -0.244 NA
ATOM     25  C   UNL     1      32.658 -23.640 -14.241  0.00  0.00    -0.004 C 
ATOM     26  C   UNL     1      31.433 -23.612 -14.779  0.00  0.00    +0.011 C 
ATOM     27  C   UNL     1      30.634 -24.672 -14.199  0.00  0.00    +0.080 C 
ATOM     28  C   UNL     1      32.531 -24.775 -13.313  0.00  0.00    +0.094 C 
ATOM     29  C   UNL     1      30.901 -22.718 -15.775  0.00  0.00    -0.020 C 
ATOM     30  C   UNL     1      29.362 -24.857 -14.574  0.00  0.00    +0.015 C 
ATOM     31  C   UNL     1      28.715 -23.966 -15.616  0.00  0.00    -0.020 C 
ATOM     32  C   UNL     1      29.625 -22.883 -16.168  0.00  0.00    +0.052 C 
ENDBRANCH  23  25
ENDBRANCH  18  23
ENDBRANCH  17  18
ENDBRANCH   1  17
TORSDOF 7
ENDMDL
MODEL 7
REMARK VINA RESULT:     -11.3      2.082     10.790
REMARK  Name = 46937052
REMARK  7 active torsions:
REMARK  status: ('A' for Active; 'I' for Inactive)
REMARK    1  A    between atoms: O_1  and  C_3
REMARK    2  A    between atoms: O_1  and  C_17
REMARK    3  A    between atoms: C_4  and  C_11
REMARK    4  A    between atoms: C_17  and  C_18
REMARK    5  A    between atoms: C_18  and  N_19
REMARK    6  A    between atoms: C_18  and  C_23
REMARK    7  A    between atoms: C_23  and  C_25
REMARK                            x       y       z     vdW  Elec       q    Type
REMARK                         _______ _______ _______ _____ _____    ______ ____
ROOT
ATOM      1  O   UNL     1      35.479 -17.048 -21.397  0.00  0.00    -0.476 OA
ENDROOT
BRANCH   1   3
ATOM      2  N   UNL     1      34.279 -16.253 -24.761  0.00  0.00    -0.239 NA
ATOM      3  C   UNL     1      34.954 -16.331 -22.440  0.00  0.00    +0.158 C 
ATOM      4  C   UNL     1      34.040 -14.302 -23.353  0.00  0.00    +0.039 C 
ATOM      5  C   UNL     1      34.570 -15.004 -22.277  0.00  0.00    +0.042 C 
ATOM      6  C   UNL     1      34.789 -16.904 -23.691  0.00  0.00    +0.136 C 
ATOM      7  C   UNL     1      33.916 -14.966 -24.564  0.00  0.00    +0.101 C 
BRANCH   4  11
ATOM      8  N   UNL     1      34.124 -12.013 -24.019  0.00  0.00    -0.264 NA
ATOM      9  N   UNL     1      32.284  -9.139 -22.570  0.00  0.00    -0.150 NA
ATOM     10  N   UNL     1      31.381  -9.338 -21.437  0.00  0.00    -0.147 NA
ATOM     11  C   UNL     1      33.620 -12.881 -23.212  0.00  0.00    +0.078 C 
ATOM     12  C   UNL     1      32.284 -11.335 -22.006  0.00  0.00    +0.040 C 
ATOM     13  C   UNL     1      32.791 -10.303 -22.876  0.00  0.00    +0.107 C 
ATOM     14  C   UNL     1      33.767 -10.594 -23.956  0.00  0.00    +0.173 C 
ATOM     15  C   UNL     1      32.651 -12.601 -22.115  0.00  0.00    +0.022 C 
ATOM     16  C   UNL     1      31.399 -10.603 -21.129  0.00  0.00    +0.123 C 
ENDBRANCH   4  11
ENDBRANCH   1   3
BRANCH   1  17
ATOM     17  C   UNL     1      35.811 -18.405 -21.655  0.00  0.00    +0.184 C 
BRANCH  17  18
ATOM     18  C   UNL     1      34.941 -19.341 -20.807  0.00  0.00    -0.017 C 
BRANCH  18  19
ATOM     19  N   UNL     1      33.803 -19.776 -21.621  0.00  0.00    +0.384 N 
ATOM     20  H   UNL     1      32.975 -19.240 -21.362  0.00  0.00    -0.089 HD
ATOM     21  H   UNL     1      33.629 -20.768 -21.461  0.00  0.00    -0.089 HD
ATOM     22  H   UNL     1      34.013 -19.622 -22.608  0.00  0.00    -0.089 HD
ENDBRANCH  18  19
BRANCH  18  23
ATOM     23  C   UNL     1      35.706 -20.588 -20.299  0.00  0.00    +0.010 C 
BRANCH  23  25
ATOM     24  N   UNL     1      33.177 -22.428 -18.251  0.00  0.00    -0.244 NA
ATOM     25  C   UNL     1      35.021 -21.339 -19.231  0.00  0.00    -0.004 C 
ATOM     26  C   UNL     1      35.388 -21.809 -18.033  0.00  0.00    +0.011 C 
ATOM     27  C   UNL     1      34.262 -22.482 -17.419  0.00  0.00    +0.080 C 
ATOM     28  C   UNL     1      33.616 -21.774 -19.284  0.00  0.00    +0.094 C 
ATOM     29  C   UNL     1      36.667 -21.715 -17.376  0.00  0.00    -0.020 C 
ATOM     30  C   UNL     1      34.373 -23.043 -16.209  0.00  0.00    +0.015 C 
ATOM     31  C   UNL     1      35.679 -22.994 -15.440  0.00  0.00    -0.020 C 
ATOM     32  C   UNL     1      36.804 -22.271 -16.158  0.00  0.00    +0.052 C 
ENDBRANCH  23  25
ENDBRANCH  18  23
ENDBRANCH  17  18
ENDBRANCH   1  17
TORSDOF 7
ENDMDL
MODEL 8
REMARK VINA RESULT:     -11.2      7.603     11.051
REMARK  Name = 46937052
REMARK  7 active torsions:
REMARK  status: ('A' for Active; 'I' for Inactive)
REMARK    1  A    between atoms: O_1  and  C_3
REMARK    2  A    between atoms: O_1  and  C_17
REMARK    3  A    between atoms: C_4  and  C_11
REMARK    4  A    between atoms: C_17  and  C_18
REMARK    5  A    between atoms: C_18  and  N_19
REMARK    6  A    between atoms: C_18  and  C_23
REMARK    7  A    between atoms: C_23  and  C_25
REMARK                            x       y       z     vdW  Elec       q    Type
REMARK                         _______ _______ _______ _____ _____    ______ ____
ROOT
ATOM      1  O   UNL     1      36.399 -23.578 -15.364  0.00  0.00    -0.476 OA
ENDROOT
BRANCH   1   3
ATOM      2  N   UNL     1      34.728 -24.042 -12.143  0.00  0.00    -0.239 NA
ATOM      3  C   UNL     1      35.396 -23.773 -14.450  0.00  0.00    +0.158 C 
ATOM      4  C   UNL     1      33.075 -24.098 -13.907  0.00  0.00    +0.039 C 
ATOM      5  C   UNL     1      34.072 -23.901 -14.856  0.00  0.00    +0.042 C 
ATOM      6  C   UNL     1      35.669 -23.850 -13.094  0.00  0.00    +0.136 C 
ATOM      7  C   UNL     1      33.452 -24.161 -12.574  0.00  0.00    +0.101 C 
BRANCH   4  11
ATOM      8  N   UNL     1      30.994 -25.262 -13.881  0.00  0.00    -0.264 NA
ATOM      9  N   UNL     1      27.827 -24.326 -15.566  0.00  0.00    -0.150 NA
ATOM     10  N   UNL     1      27.756 -23.114 -16.380  0.00  0.00    -0.147 NA
ATOM     11  C   UNL     1      31.649 -24.238 -14.308  0.00  0.00    +0.078 C 
ATOM     12  C   UNL     1      29.849 -23.302 -15.538  0.00  0.00    +0.040 C 
ATOM     13  C   UNL     1      29.042 -24.411 -15.094  0.00  0.00    +0.107 C 
ATOM     14  C   UNL     1      29.586 -25.481 -14.222  0.00  0.00    +0.173 C 
ATOM     15  C   UNL     1      31.120 -23.165 -15.195  0.00  0.00    +0.022 C 
ATOM     16  C   UNL     1      28.927 -22.545 -16.352  0.00  0.00    +0.123 C 
ENDBRANCH   4  11
ENDBRANCH   1   3
BRANCH   1  17
ATOM     17  C   UNL     1      37.176 -22.396 -15.219  0.00  0.00    +0.184 C 
BRANCH  17  18
ATOM     18  C   UNL     1      36.782 -21.362 -16.281  0.00  0.00    -0.017 C 
BRANCH  18  19
ATOM     19  N   UNL     1      37.816 -20.325 -16.320  0.00  0.00    +0.384 N 
ATOM     20  H   UNL     1      37.759 -19.821 -17.205  0.00  0.00    -0.089 HD
ATOM     21  H   UNL     1      38.736 -20.759 -16.234  0.00  0.00    -0.089 HD
ATOM     22  H   UNL     1      37.673 -19.674 -15.548  0.00  0.00    -0.089 HD
ENDBRANCH  18  19
BRANCH  18  23
ATOM     23  C   UNL     1      36.625 -21.973 -17.696  0.00  0.00    +0.010 C 
BRANCH  23  25
ATOM     24  N   UNL     1      32.997 -21.985 -18.598  0.00  0.00    -0.244 NA
ATOM     25  C   UNL     1      35.323 -21.717 -18.337  0.00  0.00    -0.004 C 
ATOM     26  C   UNL     1      34.916 -20.959 -19.363  0.00  0.00    +0.011 C 
ATOM     27  C   UNL     1      33.487 -21.115 -19.534  0.00  0.00    +0.080 C 
ATOM     28  C   UNL     1      34.050 -22.326 -17.918  0.00  0.00    +0.094 C 
ATOM     29  C   UNL     1      35.693 -20.096 -20.215  0.00  0.00    -0.020 C 
ATOM     30  C   UNL     1      32.834 -20.457 -20.499  0.00  0.00    +0.015 C 
ATOM     31  C   UNL     1      33.568 -19.527 -21.446  0.00  0.00    -0.020 C 
ATOM     32  C   UNL     1      35.061 -19.423 -21.193  0.00  0.00    +0.052 C 
ENDBRANCH  23  25
ENDBRANCH  18  23
ENDBRANCH  17  18
ENDBRANCH   1  17
TORSDOF 7
ENDMDL
MODEL 9
REMARK VINA RESULT:     -11.1      2.849      5.495
REMARK  Name = 46937052
REMARK  7 active torsions:
REMARK  status: ('A' for Active; 'I' for Inactive)
REMARK    1  A    between atoms: O_1  and  C_3
REMARK    2  A    between atoms: O_1  and  C_17
REMARK    3  A    between atoms: C_4  and  C_11
REMARK    4  A    between atoms: C_17  and  C_18
REMARK    5  A    between atoms: C_18  and  N_19
REMARK    6  A    between atoms: C_18  and  C_23
REMARK    7  A    between atoms: C_23  and  C_25
REMARK                            x       y       z     vdW  Elec       q    Type
REMARK                         _______ _______ _______ _____ _____    ______ ____
ROOT
ATOM      1  O   UNL     1      31.931 -10.967 -21.128  0.00  0.00    -0.476 OA
ENDROOT
BRANCH   1   3
ATOM      2  N   UNL     1      33.733 -11.183 -24.304  0.00  0.00    -0.239 NA
ATOM      3  C   UNL     1      32.640 -11.502 -22.172  0.00  0.00    +0.158 C 
ATOM      4  C   UNL     1      33.708 -13.363 -23.259  0.00  0.00    +0.039 C 
ATOM      5  C   UNL     1      32.987 -12.848 -22.188  0.00  0.00    +0.042 C 
ATOM      6  C   UNL     1      33.033 -10.719 -23.245  0.00  0.00    +0.136 C 
ATOM      7  C   UNL     1      34.054 -12.495 -24.284  0.00  0.00    +0.101 C 
BRANCH   4  11
ATOM      8  N   UNL     1      33.832 -15.467 -24.376  0.00  0.00    -0.264 NA
ATOM      9  N   UNL     1      35.266 -18.645 -23.118  0.00  0.00    -0.150 NA
ATOM     10  N   UNL     1      35.838 -18.714 -21.774  0.00  0.00    -0.147 NA
ATOM     11  C   UNL     1      34.095 -14.799 -23.307  0.00  0.00    +0.078 C 
ATOM     12  C   UNL     1      35.089 -16.608 -22.137  0.00  0.00    +0.040 C 
ATOM     13  C   UNL     1      34.841 -17.423 -23.301  0.00  0.00    +0.107 C 
ATOM     14  C   UNL     1      34.178 -16.883 -24.513  0.00  0.00    +0.173 C 
ATOM     15  C   UNL     1      34.747 -15.332 -22.077  0.00  0.00    +0.022 C 
ATOM     16  C   UNL     1      35.723 -17.536 -21.230  0.00  0.00    +0.123 C 
ENDBRANCH   4  11
ENDBRANCH   1   3
BRANCH   1  17
ATOM     17  C   UNL     1      31.618  -9.583 -21.208  0.00  0.00    +0.184 C 
BRANCH  17  18
ATOM     18  C   UNL     1      31.726  -8.928 -19.825  0.00  0.00    -0.017 C 
BRANCH  18  19
ATOM     19  N   UNL     1      32.103  -9.961 -18.856  0.00  0.00    +0.384 N 
ATOM     20  H   UNL     1      31.859  -9.650 -17.916  0.00  0.00    -0.089 HD
ATOM     21  H   UNL     1      33.108 -10.127 -18.909  0.00  0.00    -0.089 HD
ATOM     22  H   UNL     1      31.604 -10.825 -19.069  0.00  0.00    -0.089 HD
ENDBRANCH  18  19
BRANCH  18  23
ATOM     23  C   UNL     1      32.767  -7.783 -19.775  0.00  0.00    +0.010 C 
BRANCH  23  25
ATOM     24  N   UNL     1      31.472  -4.858 -21.709  0.00  0.00    -0.244 NA
ATOM     25  C   UNL     1      32.569  -6.725 -20.782  0.00  0.00    -0.004 C 
ATOM     26  C   UNL     1      33.200  -6.372 -21.908  0.00  0.00    +0.011 C 
ATOM     27  C   UNL     1      32.535  -5.224 -22.488  0.00  0.00    +0.080 C 
ATOM     28  C   UNL     1      31.496  -5.718 -20.736  0.00  0.00    +0.094 C 
ATOM     29  C   UNL     1      34.357  -6.971 -22.523  0.00  0.00    -0.020 C 
ATOM     30  C   UNL     1      32.977  -4.677 -23.627  0.00  0.00    +0.015 C 
ATOM     31  C   UNL     1      34.187  -5.238 -24.347  0.00  0.00    -0.020 C 
ATOM     32  C   UNL     1      34.822  -6.439 -23.668  0.00  0.00    +0.052 C 
ENDBRANCH  23  25
ENDBRANCH  18  23
ENDBRANCH  17  18
ENDBRANCH   1  17
TORSDOF 7
ENDMDL
