MODEL 1
REMARK VINA RESULT:     -11.0      0.000      0.000
REMARK  Name = 11955716
REMARK  6 active torsions:
REMARK  status: ('A' for Active; 'I' for Inactive)
REMARK    1  A    between atoms: C_4  and  C_25
REMARK    2  A    between atoms: C_11  and  C_12
REMARK    3  A    between atoms: C_13  and  C_18
REMARK    4  A    between atoms: C_15  and  O_21
REMARK    5  A    between atoms: C_16  and  O_23
REMARK    6  A    between atoms: C_25  and  N_26
REMARK                            x       y       z     vdW  Elec       q    Type
REMARK                         _______ _______ _______ _____ _____    ______ ____
ROOT
ATOM      1  O   UNL     1      34.895 -19.181 -24.032  0.00  0.00    -0.269 OA
ATOM      2  N   UNL     1      34.714 -17.131 -22.949  0.00  0.00    -0.231 N 
ATOM      3  C   UNL     1      34.251 -14.961 -23.652  0.00  0.00    +0.016 C 
ATOM      4  C   UNL     1      33.915 -12.600 -23.680  0.00  0.00    -0.043 C 
ATOM      5  C   UNL     1      34.518 -14.909 -22.278  0.00  0.00    +0.016 C 
ATOM      6  C   UNL     1      34.350 -16.366 -24.147  0.00  0.00    +0.072 C 
ATOM      7  C   UNL     1      34.809 -16.275 -21.752  0.00  0.00    +0.072 C 
ATOM      8  C   UNL     1      33.948 -13.817 -24.366  0.00  0.00    -0.005 C 
ATOM      9  C   UNL     1      34.182 -12.547 -22.301  0.00  0.00    -0.006 C 
ATOM     10  C   UNL     1      34.487 -13.709 -21.590  0.00  0.00    +0.001 C 
ATOM     11  C   UNL     1      34.983 -18.491 -23.019  0.00  0.00    +0.259 C 
ENDROOT
BRANCH  11  12
ATOM     12  C   UNL     1      35.424 -19.154 -21.784  0.00  0.00    +0.088 C 
ATOM     13  C   UNL     1      34.890 -20.499 -19.853  0.00  0.00    +0.012 C 
ATOM     14  C   UNL     1      34.492 -19.862 -21.029  0.00  0.00    +0.006 C 
ATOM     15  C   UNL     1      36.751 -19.079 -21.371  0.00  0.00    +0.141 C 
ATOM     16  C   UNL     1      36.220 -20.425 -19.436  0.00  0.00    +0.133 C 
ATOM     17  C   UNL     1      37.150 -19.715 -20.195  0.00  0.00    +0.073 C 
BRANCH  13  18
ATOM     18  C   UNL     1      33.881 -21.255 -19.053  0.00  0.00    +0.025 C 
ATOM     19  C   UNL     1      34.031 -22.779 -19.208  0.00  0.00    +0.005 C 
ATOM     20  C   UNL     1      32.437 -20.834 -19.381  0.00  0.00    +0.005 C 
ENDBRANCH  13  18
BRANCH  15  21
ATOM     21  O   UNL     1      37.675 -18.388 -22.098  0.00  0.00    -0.505 OA
ATOM     22  H   UNL     1      38.468 -18.808 -22.367  0.00  0.00    +0.292 HD
ENDBRANCH  15  21
BRANCH  16  23
ATOM     23  O   UNL     1      36.625 -21.040 -18.290  0.00  0.00    -0.506 OA
ATOM     24  H   UNL     1      37.357 -21.624 -18.305  0.00  0.00    +0.292 HD
ENDBRANCH  16  23
ENDBRANCH  11  12
BRANCH   4  25
ATOM     25  C   UNL     1      33.593 -11.339 -24.419  0.00  0.00    -0.050 C 
BRANCH  25  26
ATOM     26  N   UNL     1      33.682 -10.164 -23.555  0.00  0.00    +0.387 N 
ATOM     27  N   UNL     1      33.362  -7.345 -23.000  0.00  0.00    +0.383 N 
ATOM     28  C   UNL     1      34.596  -9.166 -24.125  0.00  0.00    -0.100 C 
ATOM     29  C   UNL     1      32.355  -9.576 -23.336  0.00  0.00    -0.100 C 
ATOM     30  C   UNL     1      34.688  -7.932 -23.222  0.00  0.00    -0.101 C 
ATOM     31  C   UNL     1      32.447  -8.343 -22.431  0.00  0.00    -0.101 C 
ATOM     32  C   UNL     1      33.451  -6.170 -22.135  0.00  0.00    -0.101 C 
ATOM     33  H   UNL     1      34.053 -10.463 -22.654  0.00  0.00    -0.079 HD
ATOM     34  H   UNL     1      32.989  -7.044 -23.902  0.00  0.00    -0.080 HD
ENDBRANCH  25  26
ENDBRANCH   4  25
TORSDOF 6
ENDMDL
MODEL 2
REMARK VINA RESULT:     -10.9      4.051      8.014
REMARK  Name = 11955716
REMARK  6 active torsions:
REMARK  status: ('A' for Active; 'I' for Inactive)
REMARK    1  A    between atoms: C_4  and  C_25
REMARK    2  A    between atoms: C_11  and  C_12
REMARK    3  A    between atoms: C_13  and  C_18
REMARK    4  A    between atoms: C_15  and  O_21
REMARK    5  A    between atoms: C_16  and  O_23
REMARK    6  A    between atoms: C_25  and  N_26
REMARK                            x       y       z     vdW  Elec       q    Type
REMARK                         _______ _______ _______ _____ _____    ______ ____
ROOT
ATOM      1  O   UNL     1      35.521 -23.557 -15.603  0.00  0.00    -0.269 OA
ATOM      2  N   UNL     1      34.304 -22.506 -17.282  0.00  0.00    -0.231 N 
ATOM      3  C   UNL     1      34.875 -21.206 -19.126  0.00  0.00    +0.016 C 
ATOM      4  C   UNL     1      34.743 -19.825 -21.066  0.00  0.00    -0.043 C 
ATOM      5  C   UNL     1      33.476 -21.262 -19.070  0.00  0.00    +0.016 C 
ATOM      6  C   UNL     1      35.472 -21.995 -18.009  0.00  0.00    +0.072 C 
ATOM      7  C   UNL     1      33.036 -22.097 -17.914  0.00  0.00    +0.072 C 
ATOM      8  C   UNL     1      35.522 -20.492 -20.118  0.00  0.00    -0.005 C 
ATOM      9  C   UNL     1      33.340 -19.881 -21.010  0.00  0.00    -0.006 C 
ATOM     10  C   UNL     1      32.696 -20.605 -20.004  0.00  0.00    +0.001 C 
ATOM     11  C   UNL     1      34.450 -23.230 -16.107  0.00  0.00    +0.259 C 
ENDROOT
BRANCH  11  12
ATOM     12  C   UNL     1      33.221 -23.625 -15.403  0.00  0.00    +0.088 C 
ATOM     13  C   UNL     1      30.813 -23.593 -15.266  0.00  0.00    +0.012 C 
ATOM     14  C   UNL     1      31.990 -23.229 -15.920  0.00  0.00    +0.006 C 
ATOM     15  C   UNL     1      33.282 -24.382 -14.237  0.00  0.00    +0.141 C 
ATOM     16  C   UNL     1      30.870 -24.352 -14.097  0.00  0.00    +0.133 C 
ATOM     17  C   UNL     1      32.105 -24.746 -13.582  0.00  0.00    +0.073 C 
BRANCH  13  18
ATOM     18  C   UNL     1      29.499 -23.162 -15.832  0.00  0.00    +0.025 C 
ATOM     19  C   UNL     1      28.711 -22.260 -14.866  0.00  0.00    +0.005 C 
ATOM     20  C   UNL     1      28.627 -24.355 -16.265  0.00  0.00    +0.005 C 
ENDBRANCH  13  18
BRANCH  15  21
ATOM     21  O   UNL     1      34.479 -24.776 -13.717  0.00  0.00    -0.505 OA
ATOM     22  H   UNL     1      35.241 -24.246 -13.842  0.00  0.00    +0.292 HD
ENDBRANCH  15  21
BRANCH  16  23
ATOM     23  O   UNL     1      29.730 -24.715 -13.446  0.00  0.00    -0.506 OA
ATOM     24  H   UNL     1      29.117 -24.061 -13.174  0.00  0.00    +0.292 HD
ENDBRANCH  16  23
ENDBRANCH  11  12
BRANCH   4  25
ATOM     25  C   UNL     1      35.408 -19.039 -22.153  0.00  0.00    -0.050 C 
BRANCH  25  26
ATOM     26  N   UNL     1      34.760 -17.747 -22.366  0.00  0.00    +0.387 N 
ATOM     27  N   UNL     1      34.758 -14.965 -23.152  0.00  0.00    +0.383 N 
ATOM     28  C   UNL     1      35.367 -16.715 -21.516  0.00  0.00    -0.100 C 
ATOM     29  C   UNL     1      34.831 -17.353 -23.778  0.00  0.00    -0.100 C 
ATOM     30  C   UNL     1      34.690 -15.358 -21.739  0.00  0.00    -0.101 C 
ATOM     31  C   UNL     1      34.153 -15.998 -24.002  0.00  0.00    -0.101 C 
ATOM     32  C   UNL     1      34.109 -13.673 -23.364  0.00  0.00    -0.101 C 
ATOM     33  H   UNL     1      33.778 -17.841 -22.107  0.00  0.00    -0.079 HD
ATOM     34  H   UNL     1      35.741 -14.870 -23.412  0.00  0.00    -0.080 HD
ENDBRANCH  25  26
ENDBRANCH   4  25
TORSDOF 6
ENDMDL
MODEL 3
REMARK VINA RESULT:     -10.7      4.019     10.870
REMARK  Name = 11955716
REMARK  6 active torsions:
REMARK  status: ('A' for Active; 'I' for Inactive)
REMARK    1  A    between atoms: C_4  and  C_25
REMARK    2  A    between atoms: C_11  and  C_12
REMARK    3  A    between atoms: C_13  and  C_18
REMARK    4  A    between atoms: C_15  and  O_21
REMARK    5  A    between atoms: C_16  and  O_23
REMARK    6  A    between atoms: C_25  and  N_26
REMARK                            x       y       z     vdW  Elec       q    Type
REMARK                         _______ _______ _______ _____ _____    ______ ____
ROOT
ATOM      1  O   UNL     1      37.536 -18.666 -21.642  0.00  0.00    -0.269 OA
ATOM      2  N   UNL     1      35.598 -19.476 -20.644  0.00  0.00    -0.231 N 
ATOM      3  C   UNL     1      35.154 -21.148 -19.087  0.00  0.00    +0.016 C 
ATOM      4  C   UNL     1      34.021 -22.672 -17.644  0.00  0.00    -0.043 C 
ATOM      5  C   UNL     1      33.924 -20.612 -19.489  0.00  0.00    +0.016 C 
ATOM      6  C   UNL     1      36.276 -20.454 -19.785  0.00  0.00    +0.072 C 
ATOM      7  C   UNL     1      34.134 -19.517 -20.481  0.00  0.00    +0.072 C 
ATOM      8  C   UNL     1      35.219 -22.177 -18.166  0.00  0.00    -0.005 C 
ATOM      9  C   UNL     1      32.787 -22.134 -18.046  0.00  0.00    -0.006 C 
ATOM     10  C   UNL     1      32.733 -21.095 -18.977  0.00  0.00    +0.001 C 
ATOM     11  C   UNL     1      36.313 -18.680 -21.528  0.00  0.00    +0.259 C 
ENDROOT
BRANCH  11  12
ATOM     12  C   UNL     1      35.541 -17.792 -22.408  0.00  0.00    +0.088 C 
ATOM     13  C   UNL     1      34.640 -15.601 -22.864  0.00  0.00    +0.012 C 
ATOM     14  C   UNL     1      35.370 -16.459 -22.042  0.00  0.00    +0.006 C 
ATOM     15  C   UNL     1      34.985 -18.271 -23.592  0.00  0.00    +0.141 C 
ATOM     16  C   UNL     1      34.083 -16.078 -24.051  0.00  0.00    +0.133 C 
ATOM     17  C   UNL     1      34.255 -17.413 -24.415  0.00  0.00    +0.073 C 
BRANCH  13  18
ATOM     18  C   UNL     1      34.465 -14.174 -22.459  0.00  0.00    +0.025 C 
ATOM     19  C   UNL     1      34.295 -14.011 -20.938  0.00  0.00    +0.005 C 
ATOM     20  C   UNL     1      33.294 -13.494 -23.194  0.00  0.00    +0.005 C 
ENDBRANCH  13  18
BRANCH  15  21
ATOM     21  O   UNL     1      35.142 -19.574 -23.964  0.00  0.00    -0.505 OA
ATOM     22  H   UNL     1      35.796 -20.103 -23.553  0.00  0.00    +0.292 HD
ENDBRANCH  15  21
BRANCH  16  23
ATOM     23  O   UNL     1      33.366 -15.253 -24.864  0.00  0.00    -0.506 OA
ATOM     24  H   UNL     1      32.684 -14.719 -24.508  0.00  0.00    +0.292 HD
ENDBRANCH  16  23
ENDBRANCH  11  12
BRANCH   4  25
ATOM     25  C   UNL     1      34.051 -23.787 -16.645  0.00  0.00    -0.050 C 
BRANCH  25  26
ATOM     26  N   UNL     1      34.551 -23.342 -15.346  0.00  0.00    +0.387 N 
ATOM     27  N   UNL     1      35.996 -23.730 -12.873  0.00  0.00    +0.383 N 
ATOM     28  C   UNL     1      34.003 -24.170 -14.266  0.00  0.00    -0.100 C 
ATOM     29  C   UNL     1      36.019 -23.368 -15.316  0.00  0.00    -0.100 C 
ATOM     30  C   UNL     1      34.529 -23.707 -12.903  0.00  0.00    -0.101 C 
ATOM     31  C   UNL     1      36.545 -22.903 -13.955  0.00  0.00    -0.101 C 
ATOM     32  C   UNL     1      36.496 -23.283 -11.574  0.00  0.00    -0.101 C 
ATOM     33  H   UNL     1      34.244 -22.381 -15.203  0.00  0.00    -0.079 HD
ATOM     34  H   UNL     1      36.305 -24.692 -13.016  0.00  0.00    -0.080 HD
ENDBRANCH  25  26
ENDBRANCH   4  25
TORSDOF 6
ENDMDL
MODEL 4
REMARK VINA RESULT:     -10.4      3.740      7.576
REMARK  Name = 11955716
REMARK  6 active torsions:
REMARK  status: ('A' for Active; 'I' for Inactive)
REMARK    1  A    between atoms: C_4  and  C_25
REMARK    2  A    between atoms: C_11  and  C_12
REMARK    3  A    between atoms: C_13  and  C_18
REMARK    4  A    between atoms: C_15  and  O_21
REMARK    5  A    between atoms: C_16  and  O_23
REMARK    6  A    between atoms: C_25  and  N_26
REMARK                            x       y       z     vdW  Elec       q    Type
REMARK                         _______ _______ _______ _____ _____    ______ ____
ROOT
ATOM      1  O   UNL     1      37.481 -22.592 -15.744  0.00  0.00    -0.269 OA
ATOM      2  N   UNL     1      35.863 -22.009 -17.310  0.00  0.00    -0.231 N 
ATOM      3  C   UNL     1      35.895 -20.807 -19.303  0.00  0.00    +0.016 C 
ATOM      4  C   UNL     1      35.217 -19.691 -21.298  0.00  0.00    -0.043 C 
ATOM      5  C   UNL     1      34.564 -21.165 -19.050  0.00  0.00    +0.016 C 
ATOM      6  C   UNL     1      36.786 -21.328 -18.225  0.00  0.00    +0.072 C 
ATOM      7  C   UNL     1      34.470 -21.957 -17.788  0.00  0.00    +0.072 C 
ATOM      8  C   UNL     1      36.236 -20.071 -20.422  0.00  0.00    -0.005 C 
ATOM      9  C   UNL     1      33.883 -20.050 -21.045  0.00  0.00    -0.006 C 
ATOM     10  C   UNL     1      33.548 -20.794 -19.912  0.00  0.00    +0.001 C 
ATOM     11  C   UNL     1      36.311 -22.562 -16.118  0.00  0.00    +0.259 C 
ENDROOT
BRANCH  11  12
ATOM     12  C   UNL     1      35.300 -23.146 -15.226  0.00  0.00    +0.088 C 
ATOM     13  C   UNL     1      32.978 -23.571 -14.725  0.00  0.00    +0.012 C 
ATOM     14  C   UNL     1      33.953 -23.024 -15.559  0.00  0.00    +0.006 C 
ATOM     15  C   UNL     1      35.677 -23.812 -14.063  0.00  0.00    +0.141 C 
ATOM     16  C   UNL     1      33.353 -24.239 -13.559  0.00  0.00    +0.133 C 
ATOM     17  C   UNL     1      34.703 -24.360 -13.227  0.00  0.00    +0.073 C 
BRANCH  13  18
ATOM     18  C   UNL     1      31.538 -23.433 -15.094  0.00  0.00    +0.025 C 
ATOM     19  C   UNL     1      31.347 -22.893 -16.523  0.00  0.00    +0.005 C 
ATOM     20  C   UNL     1      30.756 -22.559 -14.095  0.00  0.00    +0.005 C 
ENDBRANCH  13  18
BRANCH  15  21
ATOM     21  O   UNL     1      36.991 -23.939 -13.721  0.00  0.00    -0.505 OA
ATOM     22  H   UNL     1      37.237 -24.487 -13.002  0.00  0.00    +0.292 HD
ENDBRANCH  15  21
BRANCH  16  23
ATOM     23  O   UNL     1      32.414 -24.778 -12.732  0.00  0.00    -0.506 OA
ATOM     24  H   UNL     1      32.005 -25.591 -12.954  0.00  0.00    +0.292 HD
ENDBRANCH  16  23
ENDBRANCH  11  12
BRANCH   4  25
ATOM     25  C   UNL     1      35.548 -18.891 -22.520  0.00  0.00    -0.050 C 
BRANCH  25  26
ATOM     26  N   UNL     1      34.826 -17.621 -22.551  0.00  0.00    +0.387 N 
ATOM     27  N   UNL     1      34.644 -14.772 -23.011  0.00  0.00    +0.383 N 
ATOM     28  C   UNL     1      35.427 -16.658 -21.618  0.00  0.00    -0.100 C 
ATOM     29  C   UNL     1      34.801 -17.068 -23.910  0.00  0.00    -0.100 C 
ATOM     30  C   UNL     1      34.672 -15.325 -21.652  0.00  0.00    -0.101 C 
ATOM     31  C   UNL     1      34.045 -15.736 -23.944  0.00  0.00    -0.101 C 
ATOM     32  C   UNL     1      33.921 -13.503 -23.042  0.00  0.00    -0.101 C 
ATOM     33  H   UNL     1      33.866 -17.797 -22.258  0.00  0.00    -0.079 HD
ATOM     34  H   UNL     1      35.605 -14.595 -23.306  0.00  0.00    -0.080 HD
ENDBRANCH  25  26
ENDBRANCH   4  25
TORSDOF 6
ENDMDL
MODEL 5
REMARK VINA RESULT:      -9.8      3.841      7.510
REMARK  Name = 11955716
REMARK  6 active torsions:
REMARK  status: ('A' for Active; 'I' for Inactive)
REMARK    1  A    between atoms: C_4  and  C_25
REMARK    2  A    between atoms: C_11  and  C_12
REMARK    3  A    between atoms: C_13  and  C_18
REMARK    4  A    between atoms: C_15  and  O_21
REMARK    5  A    between atoms: C_16  and  O_23
REMARK    6  A    between atoms: C_25  and  N_26
REMARK                            x       y       z     vdW  Elec       q    Type
REMARK                         _______ _______ _______ _____ _____    ______ ____
ROOT
ATOM      1  O   UNL     1      31.233 -22.678 -17.237  0.00  0.00    -0.269 OA
ATOM      2  N   UNL     1      33.268 -21.845 -17.992  0.00  0.00    -0.231 N 
ATOM      3  C   UNL     1      33.943 -20.704 -19.905  0.00  0.00    +0.016 C 
ATOM      4  C   UNL     1      35.280 -19.621 -21.557  0.00  0.00    -0.043 C 
ATOM      5  C   UNL     1      35.088 -20.942 -19.133  0.00  0.00    +0.016 C 
ATOM      6  C   UNL     1      32.734 -21.251 -19.223  0.00  0.00    +0.072 C 
ATOM      7  C   UNL     1      34.726 -21.660 -17.876  0.00  0.00    +0.072 C 
ATOM      8  C   UNL     1      34.024 -20.045 -21.118  0.00  0.00    -0.005 C 
ATOM      9  C   UNL     1      36.429 -19.859 -20.783  0.00  0.00    -0.006 C 
ATOM     10  C   UNL     1      36.336 -20.526 -19.559  0.00  0.00    +0.001 C 
ATOM     11  C   UNL     1      32.448 -22.540 -17.116  0.00  0.00    +0.259 C 
ENDROOT
BRANCH  11  12
ATOM     12  C   UNL     1      33.088 -23.175 -15.955  0.00  0.00    +0.088 C 
ATOM     13  C   UNL     1      35.100 -23.705 -14.733  0.00  0.00    +0.012 C 
ATOM     14  C   UNL     1      34.473 -23.108 -15.827  0.00  0.00    +0.006 C 
ATOM     15  C   UNL     1      32.326 -23.834 -14.994  0.00  0.00    +0.141 C 
ATOM     16  C   UNL     1      34.338 -24.366 -13.769  0.00  0.00    +0.133 C 
ATOM     17  C   UNL     1      32.952 -24.431 -13.899  0.00  0.00    +0.073 C 
BRANCH  13  18
ATOM     18  C   UNL     1      36.586 -23.625 -14.608  0.00  0.00    +0.025 C 
ATOM     19  C   UNL     1      37.210 -22.656 -15.628  0.00  0.00    +0.005 C 
ATOM     20  C   UNL     1      37.259 -25.006 -14.718  0.00  0.00    +0.005 C 
ENDBRANCH  13  18
BRANCH  15  21
ATOM     21  O   UNL     1      30.969 -23.910 -15.105  0.00  0.00    -0.505 OA
ATOM     22  H   UNL     1      30.581 -24.245 -15.889  0.00  0.00    +0.292 HD
ENDBRANCH  15  21
BRANCH  16  23
ATOM     23  O   UNL     1      34.934 -24.954 -12.694  0.00  0.00    -0.506 OA
ATOM     24  H   UNL     1      35.100 -24.456 -11.918  0.00  0.00    +0.292 HD
ENDBRANCH  16  23
ENDBRANCH  11  12
BRANCH   4  25
ATOM     25  C   UNL     1      35.407 -18.906 -22.867  0.00  0.00    -0.050 C 
BRANCH  25  26
ATOM     26  N   UNL     1      34.740 -17.607 -22.844  0.00  0.00    +0.387 N 
ATOM     27  N   UNL     1      34.647 -14.751 -23.286  0.00  0.00    +0.383 N 
ATOM     28  C   UNL     1      35.444 -16.675 -21.955  0.00  0.00    -0.100 C 
ATOM     29  C   UNL     1      34.643 -17.047 -24.198  0.00  0.00    -0.100 C 
ATOM     30  C   UNL     1      34.747 -15.310 -21.933  0.00  0.00    -0.101 C 
ATOM     31  C   UNL     1      33.943 -15.684 -24.176  0.00  0.00    -0.101 C 
ATOM     32  C   UNL     1      33.977 -13.452 -23.263  0.00  0.00    -0.101 C 
ATOM     33  H   UNL     1      33.796 -17.744 -22.485  0.00  0.00    -0.079 HD
ATOM     34  H   UNL     1      35.591 -14.613 -23.647  0.00  0.00    -0.080 HD
ENDBRANCH  25  26
ENDBRANCH   4  25
TORSDOF 6
ENDMDL
MODEL 6
REMARK VINA RESULT:      -9.5      4.392     10.778
REMARK  Name = 11955716
REMARK  6 active torsions:
REMARK  status: ('A' for Active; 'I' for Inactive)
REMARK    1  A    between atoms: C_4  and  C_25
REMARK    2  A    between atoms: C_11  and  C_12
REMARK    3  A    between atoms: C_13  and  C_18
REMARK    4  A    between atoms: C_15  and  O_21
REMARK    5  A    between atoms: C_16  and  O_23
REMARK    6  A    between atoms: C_25  and  N_26
REMARK                            x       y       z     vdW  Elec       q    Type
REMARK                         _______ _______ _______ _____ _____    ______ ____
ROOT
ATOM      1  O   UNL     1      31.222 -10.036 -19.645  0.00  0.00    -0.269 OA
ATOM      2  N   UNL     1      32.184 -10.493 -21.712  0.00  0.00    -0.231 N 
ATOM      3  C   UNL     1      32.811 -12.446 -22.812  0.00  0.00    +0.016 C 
ATOM      4  C   UNL     1      33.700 -13.969 -24.417  0.00  0.00    -0.043 C 
ATOM      5  C   UNL     1      33.185 -11.369 -23.625  0.00  0.00    +0.016 C 
ATOM      6  C   UNL     1      32.150 -11.953 -21.568  0.00  0.00    +0.072 C 
ATOM      7  C   UNL     1      32.798 -10.077 -22.986  0.00  0.00    +0.072 C 
ATOM      8  C   UNL     1      33.061 -13.751 -23.195  0.00  0.00    -0.005 C 
ATOM      9  C   UNL     1      34.075 -12.889 -25.233  0.00  0.00    -0.006 C 
ATOM     10  C   UNL     1      33.818 -11.574 -24.837  0.00  0.00    +0.001 C 
ATOM     11  C   UNL     1      31.730  -9.661 -20.698  0.00  0.00    +0.259 C 
ENDROOT
BRANCH  11  12
ATOM     12  C   UNL     1      31.884  -8.213 -20.897  0.00  0.00    +0.088 C 
ATOM     13  C   UNL     1      31.809  -6.307 -22.374  0.00  0.00    +0.012 C 
ATOM     14  C   UNL     1      31.667  -7.678 -22.165  0.00  0.00    +0.006 C 
ATOM     15  C   UNL     1      32.242  -7.383 -19.838  0.00  0.00    +0.141 C 
ATOM     16  C   UNL     1      32.168  -5.473 -21.315  0.00  0.00    +0.133 C 
ATOM     17  C   UNL     1      32.385  -6.011 -20.047  0.00  0.00    +0.073 C 
BRANCH  13  18
ATOM     18  C   UNL     1      31.573  -5.747 -23.739  0.00  0.00    +0.025 C 
ATOM     19  C   UNL     1      30.778  -6.710 -24.639  0.00  0.00    +0.005 C 
ATOM     20  C   UNL     1      32.881  -5.334 -24.439  0.00  0.00    +0.005 C 
ENDBRANCH  13  18
BRANCH  15  21
ATOM     21  O   UNL     1      32.460  -7.891 -18.591  0.00  0.00    -0.505 OA
ATOM     22  H   UNL     1      32.105  -8.725 -18.357  0.00  0.00    +0.292 HD
ENDBRANCH  15  21
BRANCH  16  23
ATOM     23  O   UNL     1      32.311  -4.131 -21.502  0.00  0.00    -0.506 OA
ATOM     24  H   UNL     1      32.774  -3.617 -20.871  0.00  0.00    +0.292 HD
ENDBRANCH  16  23
ENDBRANCH  11  12
BRANCH   4  25
ATOM     25  C   UNL     1      33.990 -15.368 -24.865  0.00  0.00    -0.050 C 
BRANCH  25  26
ATOM     26  N   UNL     1      34.122 -16.285 -23.734  0.00  0.00    +0.387 N 
ATOM     27  N   UNL     1      35.516 -18.303 -22.204  0.00  0.00    +0.383 N 
ATOM     28  C   UNL     1      34.197 -17.676 -24.198  0.00  0.00    -0.100 C 
ATOM     29  C   UNL     1      35.301 -15.950 -22.927  0.00  0.00    -0.100 C 
ATOM     30  C   UNL     1      34.339 -18.638 -23.014  0.00  0.00    -0.101 C 
ATOM     31  C   UNL     1      35.441 -16.911 -21.741  0.00  0.00    -0.101 C 
ATOM     32  C   UNL     1      35.647 -19.218 -21.072  0.00  0.00    -0.101 C 
ATOM     33  H   UNL     1      33.293 -16.185 -23.149  0.00  0.00    -0.079 HD
ATOM     34  H   UNL     1      36.347 -18.402 -22.788  0.00  0.00    -0.080 HD
ENDBRANCH  25  26
ENDBRANCH   4  25
TORSDOF 6
ENDMDL
MODEL 7
REMARK VINA RESULT:      -8.6      5.309      9.585
REMARK  Name = 11955716
REMARK  6 active torsions:
REMARK  status: ('A' for Active; 'I' for Inactive)
REMARK    1  A    between atoms: C_4  and  C_25
REMARK    2  A    between atoms: C_11  and  C_12
REMARK    3  A    between atoms: C_13  and  C_18
REMARK    4  A    between atoms: C_15  and  O_21
REMARK    5  A    between atoms: C_16  and  O_23
REMARK    6  A    between atoms: C_25  and  N_26
REMARK                            x       y       z     vdW  Elec       q    Type
REMARK                         _______ _______ _______ _____ _____    ______ ____
ROOT
ATOM      1  O   UNL     1      32.763 -24.427 -14.592  0.00  0.00    -0.269 OA
ATOM      2  N   UNL     1      34.393 -23.243 -15.752  0.00  0.00    -0.231 N 
ATOM      3  C   UNL     1      34.530 -22.352 -17.898  0.00  0.00    +0.016 C 
ATOM      4  C   UNL     1      35.340 -21.291 -19.874  0.00  0.00    -0.043 C 
ATOM      5  C   UNL     1      35.762 -22.125 -17.270  0.00  0.00    +0.016 C 
ATOM      6  C   UNL     1      33.599 -23.060 -16.972  0.00  0.00    +0.072 C 
ATOM      7  C   UNL     1      35.741 -22.659 -15.876  0.00  0.00    +0.072 C 
ATOM      8  C   UNL     1      34.305 -21.941 -19.199  0.00  0.00    -0.005 C 
ATOM      9  C   UNL     1      36.575 -21.062 -19.245  0.00  0.00    -0.006 C 
ATOM     10  C   UNL     1      36.793 -21.481 -17.931  0.00  0.00    +0.001 C 
ATOM     11  C   UNL     1      33.892 -23.950 -14.668  0.00  0.00    +0.259 C 
ENDROOT
BRANCH  11  12
ATOM     12  C   UNL     1      34.793 -24.156 -13.525  0.00  0.00    +0.088 C 
ATOM     13  C   UNL     1      36.907 -24.946 -12.672  0.00  0.00    +0.012 C 
ATOM     14  C   UNL     1      36.038 -24.741 -13.744  0.00  0.00    +0.006 C 
ATOM     15  C   UNL     1      34.412 -23.775 -12.241  0.00  0.00    +0.141 C 
ATOM     16  C   UNL     1      36.528 -24.565 -11.384  0.00  0.00    +0.133 C 
ATOM     17  C   UNL     1      35.281 -23.980 -11.169  0.00  0.00    +0.073 C 
BRANCH  13  18
ATOM     18  C   UNL     1      38.239 -25.574 -12.920  0.00  0.00    +0.025 C 
ATOM     19  C   UNL     1      38.908 -25.044 -14.201  0.00  0.00    +0.005 C 
ATOM     20  C   UNL     1      38.164 -27.112 -12.965  0.00  0.00    +0.005 C 
ENDBRANCH  13  18
BRANCH  15  21
ATOM     21  O   UNL     1      33.196 -23.203 -12.011  0.00  0.00    -0.505 OA
ATOM     22  H   UNL     1      32.654 -22.951 -12.731  0.00  0.00    +0.292 HD
ENDBRANCH  15  21
BRANCH  16  23
ATOM     23  O   UNL     1      37.364 -24.759 -10.326  0.00  0.00    -0.506 OA
ATOM     24  H   UNL     1      37.183 -24.349  -9.504  0.00  0.00    +0.292 HD
ENDBRANCH  16  23
ENDBRANCH  11  12
BRANCH   4  25
ATOM     25  C   UNL     1      35.134 -20.833 -21.285  0.00  0.00    -0.050 C 
BRANCH  25  26
ATOM     26  N   UNL     1      34.780 -19.417 -21.351  0.00  0.00    +0.387 N 
ATOM     27  N   UNL     1      35.244 -16.681 -22.164  0.00  0.00    +0.383 N 
ATOM     28  C   UNL     1      35.807 -18.593 -20.702  0.00  0.00    -0.100 C 
ATOM     29  C   UNL     1      34.588 -18.992 -22.743  0.00  0.00    -0.100 C 
ATOM     30  C   UNL     1      35.438 -17.107 -20.773  0.00  0.00    -0.101 C 
ATOM     31  C   UNL     1      34.217 -17.507 -22.814  0.00  0.00    -0.101 C 
ATOM     32  C   UNL     1      34.888 -15.265 -22.230  0.00  0.00    -0.101 C 
ATOM     33  H   UNL     1      33.900 -19.288 -20.852  0.00  0.00    -0.079 HD
ATOM     34  H   UNL     1      36.123 -16.809 -22.665  0.00  0.00    -0.080 HD
ENDBRANCH  25  26
ENDBRANCH   4  25
TORSDOF 6
ENDMDL
MODEL 8
REMARK VINA RESULT:      -8.5      3.908     10.486
REMARK  Name = 11955716
REMARK  6 active torsions:
REMARK  status: ('A' for Active; 'I' for Inactive)
REMARK    1  A    between atoms: C_4  and  C_25
REMARK    2  A    between atoms: C_11  and  C_12
REMARK    3  A    between atoms: C_13  and  C_18
REMARK    4  A    between atoms: C_15  and  O_21
REMARK    5  A    between atoms: C_16  and  O_23
REMARK    6  A    between atoms: C_25  and  N_26
REMARK                            x       y       z     vdW  Elec       q    Type
REMARK                         _______ _______ _______ _____ _____    ______ ____
ROOT
ATOM      1  O   UNL     1      37.578 -18.565 -21.699  0.00  0.00    -0.269 OA
ATOM      2  N   UNL     1      35.662 -19.418 -20.694  0.00  0.00    -0.231 N 
ATOM      3  C   UNL     1      35.264 -21.080 -19.115  0.00  0.00    +0.016 C 
ATOM      4  C   UNL     1      34.173 -22.616 -17.652  0.00  0.00    -0.043 C 
ATOM      5  C   UNL     1      34.019 -20.587 -19.528  0.00  0.00    +0.016 C 
ATOM      6  C   UNL     1      36.366 -20.363 -19.819  0.00  0.00    +0.072 C 
ATOM      7  C   UNL     1      34.199 -19.500 -20.535  0.00  0.00    +0.072 C 
ATOM      8  C   UNL     1      35.356 -22.093 -18.178  0.00  0.00    -0.005 C 
ATOM      9  C   UNL     1      32.924 -22.122 -18.066  0.00  0.00    -0.006 C 
ATOM     10  C   UNL     1      32.842 -21.098 -19.012  0.00  0.00    +0.001 C 
ATOM     11  C   UNL     1      36.355 -18.614 -21.588  0.00  0.00    +0.259 C 
ENDROOT
BRANCH  11  12
ATOM     12  C   UNL     1      35.560 -17.762 -22.483  0.00  0.00    +0.088 C 
ATOM     13  C   UNL     1      34.646 -15.591 -23.004  0.00  0.00    +0.012 C 
ATOM     14  C   UNL     1      35.398 -16.416 -22.167  0.00  0.00    +0.006 C 
ATOM     15  C   UNL     1      34.974 -18.289 -23.631  0.00  0.00    +0.141 C 
ATOM     16  C   UNL     1      34.058 -16.116 -24.155  0.00  0.00    +0.133 C 
ATOM     17  C   UNL     1      34.221 -17.465 -24.469  0.00  0.00    +0.073 C 
BRANCH  13  18
ATOM     18  C   UNL     1      34.481 -14.149 -22.653  0.00  0.00    +0.025 C 
ATOM     19  C   UNL     1      34.220 -13.935 -21.152  0.00  0.00    +0.005 C 
ATOM     20  C   UNL     1      33.375 -13.466 -23.480  0.00  0.00    +0.005 C 
ENDBRANCH  13  18
BRANCH  15  21
ATOM     21  O   UNL     1      35.121 -19.605 -23.954  0.00  0.00    -0.505 OA
ATOM     22  H   UNL     1      35.882 -19.891 -24.419  0.00  0.00    +0.292 HD
ENDBRANCH  15  21
BRANCH  16  23
ATOM     23  O   UNL     1      33.319 -15.325 -24.983  0.00  0.00    -0.506 OA
ATOM     24  H   UNL     1      32.393 -15.449 -25.047  0.00  0.00    +0.292 HD
ENDBRANCH  16  23
ENDBRANCH  11  12
BRANCH   4  25
ATOM     25  C   UNL     1      34.233 -23.716 -16.638  0.00  0.00    -0.050 C 
BRANCH  25  26
ATOM     26  N   UNL     1      33.014 -23.782 -15.834  0.00  0.00    +0.387 N 
ATOM     27  N   UNL     1      30.658 -22.618 -14.628  0.00  0.00    +0.383 N 
ATOM     28  C   UNL     1      33.114 -22.899 -14.665  0.00  0.00    -0.100 C 
ATOM     29  C   UNL     1      31.838 -23.432 -16.640  0.00  0.00    -0.100 C 
ATOM     30  C   UNL     1      31.835 -22.965 -13.822  0.00  0.00    -0.101 C 
ATOM     31  C   UNL     1      30.559 -23.500 -15.798  0.00  0.00    -0.101 C 
ATOM     32  C   UNL     1      29.440 -22.685 -13.824  0.00  0.00    -0.101 C 
ATOM     33  H   UNL     1      32.905 -24.741 -15.506  0.00  0.00    -0.079 HD
ATOM     34  H   UNL     1      30.766 -21.658 -14.957  0.00  0.00    -0.080 HD
ENDBRANCH  25  26
ENDBRANCH   4  25
TORSDOF 6
ENDMDL
MODEL 9
REMARK VINA RESULT:      -8.5      2.161      3.753
REMARK  Name = 11955716
REMARK  6 active torsions:
REMARK  status: ('A' for Active; 'I' for Inactive)
REMARK    1  A    between atoms: C_4  and  C_25
REMARK    2  A    between atoms: C_11  and  C_12
REMARK    3  A    between atoms: C_13  and  C_18
REMARK    4  A    between atoms: C_15  and  O_21
REMARK    5  A    between atoms: C_16  and  O_23
REMARK    6  A    between atoms: C_25  and  N_26
REMARK                            x       y       z     vdW  Elec       q    Type
REMARK                         _______ _______ _______ _____ _____    ______ ____
ROOT
ATOM      1  O   UNL     1      34.449 -15.101 -25.472  0.00  0.00    -0.269 OA
ATOM      2  N   UNL     1      33.594 -14.327 -23.453  0.00  0.00    -0.231 N 
ATOM      3  C   UNL     1      32.912 -12.242 -22.674  0.00  0.00    +0.016 C 
ATOM      4  C   UNL     1      32.137 -10.481 -21.266  0.00  0.00    -0.043 C 
ATOM      5  C   UNL     1      32.798 -13.146 -21.609  0.00  0.00    +0.016 C 
ATOM      6  C   UNL     1      33.409 -12.940 -23.896  0.00  0.00    +0.072 C 
ATOM      7  C   UNL     1      33.206 -14.514 -22.043  0.00  0.00    +0.072 C 
ATOM      8  C   UNL     1      32.585 -10.908 -22.518  0.00  0.00    -0.005 C 
ATOM      9  C   UNL     1      32.022 -11.387 -20.197  0.00  0.00    -0.006 C 
ATOM     10  C   UNL     1      32.355 -12.733 -20.366  0.00  0.00    +0.001 C 
ATOM     11  C   UNL     1      34.135 -15.285 -24.299  0.00  0.00    +0.259 C 
ENDROOT
BRANCH  11  12
ATOM     12  C   UNL     1      34.362 -16.625 -23.740  0.00  0.00    +0.088 C 
ATOM     13  C   UNL     1      35.521 -18.043 -22.169  0.00  0.00    +0.012 C 
ATOM     14  C   UNL     1      35.290 -16.779 -22.713  0.00  0.00    +0.006 C 
ATOM     15  C   UNL     1      33.664 -17.727 -24.226  0.00  0.00    +0.141 C 
ATOM     16  C   UNL     1      34.823 -19.149 -22.654  0.00  0.00    +0.133 C 
ATOM     17  C   UNL     1      33.894 -18.991 -23.682  0.00  0.00    +0.073 C 
BRANCH  13  18
ATOM     18  C   UNL     1      36.519 -18.194 -21.068  0.00  0.00    +0.025 C 
ATOM     19  C   UNL     1      37.942 -18.452 -21.596  0.00  0.00    +0.005 C 
ATOM     20  C   UNL     1      36.124 -19.294 -20.065  0.00  0.00    +0.005 C 
ENDBRANCH  13  18
BRANCH  15  21
ATOM     21  O   UNL     1      32.753 -17.593 -25.231  0.00  0.00    -0.505 OA
ATOM     22  H   UNL     1      31.936 -18.048 -25.186  0.00  0.00    +0.292 HD
ENDBRANCH  15  21
BRANCH  16  23
ATOM     23  O   UNL     1      35.037 -20.390 -22.135  0.00  0.00    -0.506 OA
ATOM     24  H   UNL     1      34.395 -20.782 -21.575  0.00  0.00    +0.292 HD
ENDBRANCH  16  23
ENDBRANCH  11  12
BRANCH   4  25
ATOM     25  C   UNL     1      31.775  -9.043 -21.057  0.00  0.00    -0.050 C 
BRANCH  25  26
ATOM     26  N   UNL     1      32.307  -8.189 -22.116  0.00  0.00    +0.387 N 
ATOM     27  N   UNL     1      32.943  -5.619 -23.277  0.00  0.00    +0.383 N 
ATOM     28  C   UNL     1      31.258  -7.318 -22.659  0.00  0.00    -0.100 C 
ATOM     29  C   UNL     1      33.434  -7.387 -21.624  0.00  0.00    -0.100 C 
ATOM     30  C   UNL     1      31.815  -6.419 -23.768  0.00  0.00    -0.101 C 
ATOM     31  C   UNL     1      33.992  -6.491 -22.734  0.00  0.00    -0.101 C 
ATOM     32  C   UNL     1      33.476  -4.766 -24.338  0.00  0.00    -0.101 C 
ATOM     33  H   UNL     1      32.646  -8.791 -22.866  0.00  0.00    -0.079 HD
ATOM     34  H   UNL     1      32.606  -5.015 -22.527  0.00  0.00    -0.080 HD
ENDBRANCH  25  26
ENDBRANCH   4  25
TORSDOF 6
ENDMDL
