MODEL 1
REMARK VINA RESULT:     -11.8      0.000      0.000
REMARK  Name = 23658582
REMARK  4 active torsions:
REMARK  status: ('A' for Active; 'I' for Inactive)
REMARK    1  A    between atoms: N_3  and  C_13
REMARK    2  A    between atoms: C_8  and  C_25
REMARK    3  A    between atoms: C_15  and  C_22
REMARK    4  A    between atoms: N_24  and  C_29
REMARK                            x       y       z     vdW  Elec       q    Type
REMARK                         _______ _______ _______ _____ _____    ______ ____
ROOT
ATOM      1 CL   UNL     1      31.822 -24.461 -14.204  0.00  0.00    -0.082 Cl
ATOM      2  O   UNL     1      35.697 -22.552 -17.055  0.00  0.00    -0.352 OA
ATOM      3  N   UNL     1      34.084 -20.817 -19.619  0.00  0.00    -0.295 N 
ATOM      4  N   UNL     1      35.764 -21.776 -18.206  0.00  0.00    -0.062 NA
ATOM      5  C   UNL     1      33.580 -22.138 -17.657  0.00  0.00    +0.072 A 
ATOM      6  C   UNL     1      34.393 -22.766 -16.729  0.00  0.00    +0.183 A 
ATOM      7  C   UNL     1      34.494 -21.542 -18.547  0.00  0.00    +0.174 A 
ATOM      8  C   UNL     1      33.924 -23.498 -15.642  0.00  0.00    +0.101 C 
ATOM      9  C   UNL     1      32.187 -22.230 -17.514  0.00  0.00    +0.007 C 
ATOM     10  C   UNL     1      32.533 -23.580 -15.513  0.00  0.00    +0.065 C 
ATOM     11  C   UNL     1      31.680 -22.959 -16.430  0.00  0.00    +0.012 C 
ATOM     12  H   UNL     1      33.110 -20.829 -19.759  0.00  0.00    +0.154 HD
ENDROOT
BRANCH   3  13
ATOM     13  C   UNL     1      34.793 -20.043 -20.582  0.00  0.00    +0.049 C 
ATOM     14  C   UNL     1      34.225 -19.795 -21.831  0.00  0.00    +0.018 C 
ATOM     15  C   UNL     1      34.919 -19.036 -22.774  0.00  0.00    +0.073 C 
ATOM     16  C   UNL     1      36.054 -19.533 -20.275  0.00  0.00    +0.015 C 
ATOM     17  C   UNL     1      36.180 -18.526 -22.467  0.00  0.00    +0.004 C 
ATOM     18  C   UNL     1      36.748 -18.775 -21.217  0.00  0.00    +0.001 C 
BRANCH  15  22
ATOM     19  F   UNL     1      32.949 -18.706 -24.091  0.00  0.00    -0.166 F 
ATOM     20  F   UNL     1      34.716 -17.591 -24.670  0.00  0.00    -0.166 F 
ATOM     21  F   UNL     1      34.621 -19.734 -25.027  0.00  0.00    -0.166 F 
ATOM     22  C   UNL     1      34.313 -18.771 -24.111  0.00  0.00    +0.419 C 
ENDBRANCH  15  22
ENDBRANCH   3  13
BRANCH   8  25
ATOM     23  O   UNL     1      35.370 -25.217 -14.982  0.00  0.00    -0.270 OA
ATOM     24  N   UNL     1      35.068 -23.420 -13.526  0.00  0.00    -0.278 N 
ATOM     25  C   UNL     1      34.853 -24.124 -14.717  0.00  0.00    +0.253 C 
ATOM     26  H   UNL     1      34.594 -22.561 -13.444  0.00  0.00    +0.155 HD
BRANCH  24  29
ATOM     27  N   UNL     1      37.918 -23.537 -11.164  0.00  0.00    -0.221 NA
ATOM     28  N   UNL     1      36.238 -25.106 -10.444  0.00  0.00    -0.221 NA
ATOM     29  C   UNL     1      35.882 -23.785 -12.423  0.00  0.00    +0.089 C 
ATOM     30  C   UNL     1      37.118 -23.214 -12.202  0.00  0.00    +0.117 C 
ATOM     31  C   UNL     1      35.489 -24.735 -11.504  0.00  0.00    +0.117 C 
ATOM     32  C   UNL     1      37.423 -24.476 -10.337  0.00  0.00    +0.199 C 
ENDBRANCH  24  29
ENDBRANCH   8  25
TORSDOF 4
ENDMDL
MODEL 2
REMARK VINA RESULT:     -11.4      5.090      9.829
REMARK  Name = 23658582
REMARK  4 active torsions:
REMARK  status: ('A' for Active; 'I' for Inactive)
REMARK    1  A    between atoms: N_3  and  C_13
REMARK    2  A    between atoms: C_8  and  C_25
REMARK    3  A    between atoms: C_15  and  C_22
REMARK    4  A    between atoms: N_24  and  C_29
REMARK                            x       y       z     vdW  Elec       q    Type
REMARK                         _______ _______ _______ _____ _____    ______ ____
ROOT
ATOM      1 CL   UNL     1      37.437 -19.577 -21.053  0.00  0.00    -0.082 Cl
ATOM      2  O   UNL     1      32.657 -20.788 -19.482  0.00  0.00    -0.352 OA
ATOM      3  N   UNL     1      33.175 -22.876 -16.732  0.00  0.00    -0.295 N 
ATOM      4  N   UNL     1      32.142 -21.570 -18.455  0.00  0.00    -0.062 NA
ATOM      5  C   UNL     1      34.421 -21.618 -18.381  0.00  0.00    +0.072 A 
ATOM      6  C   UNL     1      34.017 -20.818 -19.435  0.00  0.00    +0.183 A 
ATOM      7  C   UNL     1      33.208 -22.055 -17.813  0.00  0.00    +0.174 A 
ATOM      8  C   UNL     1      34.887 -20.159 -20.299  0.00  0.00    +0.101 C 
ATOM      9  C   UNL     1      35.793 -21.793 -18.145  0.00  0.00    +0.007 C 
ATOM     10  C   UNL     1      36.251 -20.342 -20.052  0.00  0.00    +0.065 C 
ATOM     11  C   UNL     1      36.698 -21.144 -18.996  0.00  0.00    +0.012 C 
ATOM     12  H   UNL     1      34.061 -23.201 -16.451  0.00  0.00    +0.154 HD
ENDROOT
BRANCH   3  13
ATOM     13  C   UNL     1      32.105 -23.359 -15.927  0.00  0.00    +0.049 C 
ATOM     14  C   UNL     1      30.785 -23.183 -16.343  0.00  0.00    +0.018 C 
ATOM     15  C   UNL     1      29.737 -23.657 -15.554  0.00  0.00    +0.073 C 
ATOM     16  C   UNL     1      32.376 -24.010 -14.724  0.00  0.00    +0.015 C 
ATOM     17  C   UNL     1      30.008 -24.307 -14.351  0.00  0.00    +0.004 C 
ATOM     18  C   UNL     1      31.328 -24.484 -13.936  0.00  0.00    +0.001 C 
BRANCH  15  22
ATOM     19  F   UNL     1      27.463 -23.191 -14.975  0.00  0.00    -0.166 F 
ATOM     20  F   UNL     1      28.163 -22.442 -16.885  0.00  0.00    -0.166 F 
ATOM     21  F   UNL     1      27.816 -24.572 -16.616  0.00  0.00    -0.166 F 
ATOM     22  C   UNL     1      28.325 -23.468 -15.997  0.00  0.00    +0.419 C 
ENDBRANCH  15  22
ENDBRANCH   3  13
BRANCH   8  25
ATOM     23  O   UNL     1      33.389 -19.702 -22.040  0.00  0.00    -0.270 OA
ATOM     24  N   UNL     1      35.090 -18.160 -21.625  0.00  0.00    -0.278 N 
ATOM     25  C   UNL     1      34.371 -19.338 -21.381  0.00  0.00    +0.253 C 
ATOM     26  H   UNL     1      35.851 -17.990 -21.025  0.00  0.00    +0.155 HD
BRANCH  24  29
ATOM     27  N   UNL     1      34.776 -14.873 -23.299  0.00  0.00    -0.221 NA
ATOM     28  N   UNL     1      34.267 -16.612 -24.886  0.00  0.00    -0.221 NA
ATOM     29  C   UNL     1      34.859 -17.182 -22.624  0.00  0.00    +0.089 C 
ATOM     30  C   UNL     1      34.986 -15.831 -22.373  0.00  0.00    +0.117 C 
ATOM     31  C   UNL     1      34.493 -17.518 -23.911  0.00  0.00    +0.117 C 
ATOM     32  C   UNL     1      34.424 -15.327 -24.516  0.00  0.00    +0.199 C 
ENDBRANCH  24  29
ENDBRANCH   8  25
TORSDOF 4
ENDMDL
MODEL 3
REMARK VINA RESULT:     -11.3      6.639      9.402
REMARK  Name = 23658582
REMARK  4 active torsions:
REMARK  status: ('A' for Active; 'I' for Inactive)
REMARK    1  A    between atoms: N_3  and  C_13
REMARK    2  A    between atoms: C_8  and  C_25
REMARK    3  A    between atoms: C_15  and  C_22
REMARK    4  A    between atoms: N_24  and  C_29
REMARK                            x       y       z     vdW  Elec       q    Type
REMARK                         _______ _______ _______ _____ _____    ______ ____
ROOT
ATOM      1 CL   UNL     1      35.283 -19.613 -23.885  0.00  0.00    -0.082 Cl
ATOM      2  O   UNL     1      34.623 -15.382 -20.979  0.00  0.00    -0.352 OA
ATOM      3  N   UNL     1      33.744 -12.906 -23.279  0.00  0.00    -0.295 N 
ATOM      4  N   UNL     1      34.272 -14.064 -21.249  0.00  0.00    -0.062 NA
ATOM      5  C   UNL     1      34.319 -15.254 -23.195  0.00  0.00    +0.072 A 
ATOM      6  C   UNL     1      34.649 -16.089 -22.142  0.00  0.00    +0.183 A 
ATOM      7  C   UNL     1      34.097 -14.010 -22.573  0.00  0.00    +0.174 A 
ATOM      8  C   UNL     1      34.957 -17.440 -22.278  0.00  0.00    +0.101 C 
ATOM      9  C   UNL     1      34.285 -15.779 -24.495  0.00  0.00    +0.007 C 
ATOM     10  C   UNL     1      34.920 -17.949 -23.580  0.00  0.00    +0.065 C 
ATOM     11  C   UNL     1      34.591 -17.135 -24.670  0.00  0.00    +0.012 C 
ATOM     12  H   UNL     1      33.750 -13.039 -24.255  0.00  0.00    +0.154 HD
ENDROOT
BRANCH   3  13
ATOM     13  C   UNL     1      33.368 -11.592 -22.881  0.00  0.00    +0.049 C 
ATOM     14  C   UNL     1      34.019 -10.485 -23.425  0.00  0.00    +0.018 C 
ATOM     15  C   UNL     1      33.650  -9.198 -23.036  0.00  0.00    +0.073 C 
ATOM     16  C   UNL     1      32.347 -11.411 -21.948  0.00  0.00    +0.015 C 
ATOM     17  C   UNL     1      32.630  -9.017 -22.102  0.00  0.00    +0.004 C 
ATOM     18  C   UNL     1      31.978 -10.125 -21.558  0.00  0.00    +0.001 C 
BRANCH  15  22
ATOM     19  F   UNL     1      33.502  -7.003 -23.978  0.00  0.00    -0.166 F 
ATOM     20  F   UNL     1      35.246  -7.437 -22.764  0.00  0.00    -0.166 F 
ATOM     21  F   UNL     1      35.054  -8.320 -24.742  0.00  0.00    -0.166 F 
ATOM     22  C   UNL     1      34.347  -8.014 -23.616  0.00  0.00    +0.419 C 
ENDBRANCH  15  22
ENDBRANCH   3  13
BRANCH   8  25
ATOM     23  O   UNL     1      36.226 -17.917 -20.368  0.00  0.00    -0.270 OA
ATOM     24  N   UNL     1      34.516 -19.395 -20.945  0.00  0.00    -0.278 N 
ATOM     25  C   UNL     1      35.293 -18.242 -21.114  0.00  0.00    +0.253 C 
ATOM     26  H   UNL     1      33.805 -19.535 -21.611  0.00  0.00    +0.155 HD
BRANCH  24  29
ATOM     27  N   UNL     1      35.983 -21.800 -18.542  0.00  0.00    -0.221 NA
ATOM     28  N   UNL     1      33.581 -21.889 -18.373  0.00  0.00    -0.221 NA
ATOM     29  C   UNL     1      34.624 -20.387 -19.938  0.00  0.00    +0.089 C 
ATOM     30  C   UNL     1      35.844 -20.858 -19.498  0.00  0.00    +0.117 C 
ATOM     31  C   UNL     1      33.515 -20.945 -19.335  0.00  0.00    +0.117 C 
ATOM     32  C   UNL     1      34.828 -22.266 -18.030  0.00  0.00    +0.199 C 
ENDBRANCH  24  29
ENDBRANCH   8  25
TORSDOF 4
ENDMDL
MODEL 4
REMARK VINA RESULT:     -11.0      6.431      9.245
REMARK  Name = 23658582
REMARK  4 active torsions:
REMARK  status: ('A' for Active; 'I' for Inactive)
REMARK    1  A    between atoms: N_3  and  C_13
REMARK    2  A    between atoms: C_8  and  C_25
REMARK    3  A    between atoms: C_15  and  C_22
REMARK    4  A    between atoms: N_24  and  C_29
REMARK                            x       y       z     vdW  Elec       q    Type
REMARK                         _______ _______ _______ _____ _____    ______ ____
ROOT
ATOM      1 CL   UNL     1      34.936 -19.960 -23.773  0.00  0.00    -0.082 Cl
ATOM      2  O   UNL     1      34.906 -15.424 -21.281  0.00  0.00    -0.352 OA
ATOM      3  N   UNL     1      34.082 -13.105 -23.757  0.00  0.00    -0.295 N 
ATOM      4  N   UNL     1      34.660 -14.110 -21.660  0.00  0.00    -0.062 NA
ATOM      5  C   UNL     1      34.441 -15.480 -23.471  0.00  0.00    +0.072 A 
ATOM      6  C   UNL     1      34.774 -16.239 -22.363  0.00  0.00    +0.183 A 
ATOM      7  C   UNL     1      34.386 -14.166 -22.967  0.00  0.00    +0.174 A 
ATOM      8  C   UNL     1      34.943 -17.621 -22.380  0.00  0.00    +0.101 C 
ATOM      9  C   UNL     1      34.255 -16.121 -24.705  0.00  0.00    +0.007 C 
ATOM     10  C   UNL     1      34.755 -18.246 -23.617  0.00  0.00    +0.065 C 
ATOM     11  C   UNL     1      34.418 -17.512 -24.759  0.00  0.00    +0.012 C 
ATOM     12  H   UNL     1      33.998 -13.331 -24.712  0.00  0.00    +0.154 HD
ENDROOT
BRANCH   3  13
ATOM     13  C   UNL     1      33.863 -11.728 -23.472  0.00  0.00    +0.049 C 
ATOM     14  C   UNL     1      32.893 -11.354 -22.543  0.00  0.00    +0.018 C 
ATOM     15  C   UNL     1      32.678 -10.004 -22.263  0.00  0.00    +0.073 C 
ATOM     16  C   UNL     1      34.620 -10.752 -24.121  0.00  0.00    +0.015 C 
ATOM     17  C   UNL     1      33.434  -9.029 -22.912  0.00  0.00    +0.004 C 
ATOM     18  C   UNL     1      34.406  -9.403 -23.841  0.00  0.00    +0.001 C 
BRANCH  15  22
ATOM     19  F   UNL     1      31.253  -8.298 -21.378  0.00  0.00    -0.166 F 
ATOM     20  F   UNL     1      30.484 -10.325 -21.367  0.00  0.00    -0.166 F 
ATOM     21  F   UNL     1      32.059  -9.756 -19.981  0.00  0.00    -0.166 F 
ATOM     22  C   UNL     1      31.639  -9.604 -21.271  0.00  0.00    +0.419 C 
ENDBRANCH  15  22
ENDBRANCH   3  13
BRANCH   8  25
ATOM     23  O   UNL     1      36.186 -17.916 -20.417  0.00  0.00    -0.270 OA
ATOM     24  N   UNL     1      34.583 -19.524 -20.951  0.00  0.00    -0.278 N 
ATOM     25  C   UNL     1      35.295 -18.337 -21.165  0.00  0.00    +0.253 C 
ATOM     26  H   UNL     1      33.899 -19.742 -21.625  0.00  0.00    +0.155 HD
BRANCH  24  29
ATOM     27  N   UNL     1      33.726 -21.929 -18.269  0.00  0.00    -0.221 NA
ATOM     28  N   UNL     1      36.121 -21.702 -18.382  0.00  0.00    -0.221 NA
ATOM     29  C   UNL     1      34.721 -20.452 -19.888  0.00  0.00    +0.089 C 
ATOM     30  C   UNL     1      33.631 -21.043 -19.282  0.00  0.00    +0.117 C 
ATOM     31  C   UNL     1      35.954 -20.822 -19.391  0.00  0.00    +0.117 C 
ATOM     32  C   UNL     1      34.982 -22.209 -17.874  0.00  0.00    +0.199 C 
ENDBRANCH  24  29
ENDBRANCH   8  25
TORSDOF 4
ENDMDL
MODEL 5
REMARK VINA RESULT:     -11.0      3.067      4.153
REMARK  Name = 23658582
REMARK  4 active torsions:
REMARK  status: ('A' for Active; 'I' for Inactive)
REMARK    1  A    between atoms: N_3  and  C_13
REMARK    2  A    between atoms: C_8  and  C_25
REMARK    3  A    between atoms: C_15  and  C_22
REMARK    4  A    between atoms: N_24  and  C_29
REMARK                            x       y       z     vdW  Elec       q    Type
REMARK                         _______ _______ _______ _____ _____    ______ ____
ROOT
ATOM      1 CL   UNL     1      36.481 -23.408 -15.354  0.00  0.00    -0.082 Cl
ATOM      2  O   UNL     1      33.387 -21.547 -19.062  0.00  0.00    -0.352 OA
ATOM      3  N   UNL     1      35.465 -19.447 -20.922  0.00  0.00    -0.295 N 
ATOM      4  N   UNL     1      33.566 -20.671 -20.126  0.00  0.00    -0.062 NA
ATOM      5  C   UNL     1      35.533 -20.909 -18.995  0.00  0.00    +0.072 A 
ATOM      6  C   UNL     1      34.562 -21.688 -18.390  0.00  0.00    +0.183 A 
ATOM      7  C   UNL     1      34.849 -20.303 -20.067  0.00  0.00    +0.174 A 
ATOM      8  C   UNL     1      34.781 -22.482 -17.267  0.00  0.00    +0.101 C 
ATOM      9  C   UNL     1      36.830 -20.902 -18.463  0.00  0.00    +0.007 C 
ATOM     10  C   UNL     1      36.079 -22.464 -16.748  0.00  0.00    +0.065 C 
ATOM     11  C   UNL     1      37.086 -21.690 -17.332  0.00  0.00    +0.012 C 
ATOM     12  H   UNL     1      36.391 -19.227 -20.666  0.00  0.00    +0.154 HD
ENDROOT
BRANCH   3  13
ATOM     13  C   UNL     1      35.031 -18.804 -22.115  0.00  0.00    +0.049 C 
ATOM     14  C   UNL     1      35.004 -17.412 -22.187  0.00  0.00    +0.018 C 
ATOM     15  C   UNL     1      34.579 -16.782 -23.357  0.00  0.00    +0.073 C 
ATOM     16  C   UNL     1      34.636 -19.567 -23.214  0.00  0.00    +0.015 C 
ATOM     17  C   UNL     1      34.182 -17.544 -24.455  0.00  0.00    +0.004 C 
ATOM     18  C   UNL     1      34.211 -18.938 -24.383  0.00  0.00    +0.001 C 
BRANCH  15  22
ATOM     19  F   UNL     1      35.345 -14.778 -24.416  0.00  0.00    -0.166 F 
ATOM     20  F   UNL     1      33.304 -14.784 -23.684  0.00  0.00    -0.166 F 
ATOM     21  F   UNL     1      34.960 -14.698 -22.277  0.00  0.00    -0.166 F 
ATOM     22  C   UNL     1      34.547 -15.293 -23.434  0.00  0.00    +0.419 C 
ENDBRANCH  15  22
ENDBRANCH   3  13
BRANCH   8  25
ATOM     23  O   UNL     1      33.091 -24.100 -17.384  0.00  0.00    -0.270 OA
ATOM     24  N   UNL     1      33.397 -22.978 -15.362  0.00  0.00    -0.278 N 
ATOM     25  C   UNL     1      33.699 -23.268 -16.698  0.00  0.00    +0.253 C 
ATOM     26  H   UNL     1      33.961 -22.294 -14.933  0.00  0.00    +0.155 HD
BRANCH  24  29
ATOM     27  N   UNL     1      31.732 -24.947 -12.704  0.00  0.00    -0.221 NA
ATOM     28  N   UNL     1      30.054 -23.800 -13.997  0.00  0.00    -0.221 NA
ATOM     29  C   UNL     1      32.383 -23.543 -14.547  0.00  0.00    +0.089 C 
ATOM     30  C   UNL     1      32.671 -24.392 -13.498  0.00  0.00    +0.117 C 
ATOM     31  C   UNL     1      31.044 -23.280 -14.753  0.00  0.00    +0.117 C 
ATOM     32  C   UNL     1      30.463 -24.613 -13.005  0.00  0.00    +0.199 C 
ENDBRANCH  24  29
ENDBRANCH   8  25
TORSDOF 4
ENDMDL
MODEL 6
REMARK VINA RESULT:     -10.7      5.769     10.426
REMARK  Name = 23658582
REMARK  4 active torsions:
REMARK  status: ('A' for Active; 'I' for Inactive)
REMARK    1  A    between atoms: N_3  and  C_13
REMARK    2  A    between atoms: C_8  and  C_25
REMARK    3  A    between atoms: C_15  and  C_22
REMARK    4  A    between atoms: N_24  and  C_29
REMARK                            x       y       z     vdW  Elec       q    Type
REMARK                         _______ _______ _______ _____ _____    ______ ____
ROOT
ATOM      1 CL   UNL     1      37.599 -19.035 -21.843  0.00  0.00    -0.082 Cl
ATOM      2  O   UNL     1      32.858 -20.195 -20.122  0.00  0.00    -0.352 OA
ATOM      3  N   UNL     1      33.439 -22.313 -17.408  0.00  0.00    -0.295 N 
ATOM      4  N   UNL     1      32.367 -20.979 -19.085  0.00  0.00    -0.062 NA
ATOM      5  C   UNL     1      34.647 -21.058 -19.087  0.00  0.00    +0.072 A 
ATOM      6  C   UNL     1      34.218 -20.244 -20.120  0.00  0.00    +0.183 A 
ATOM      7  C   UNL     1      33.448 -21.483 -18.483  0.00  0.00    +0.174 A 
ATOM      8  C   UNL     1      35.068 -19.589 -21.008  0.00  0.00    +0.101 C 
ATOM      9  C   UNL     1      36.023 -21.253 -18.900  0.00  0.00    +0.007 C 
ATOM     10  C   UNL     1      36.437 -19.792 -20.809  0.00  0.00    +0.065 C 
ATOM     11  C   UNL     1      36.908 -20.609 -19.775  0.00  0.00    +0.012 C 
ATOM     12  H   UNL     1      34.329 -22.652 -17.160  0.00  0.00    +0.154 HD
ENDROOT
BRANCH   3  13
ATOM     13  C   UNL     1      32.390 -22.789 -16.572  0.00  0.00    +0.049 C 
ATOM     14  C   UNL     1      32.681 -23.277 -15.298  0.00  0.00    +0.018 C 
ATOM     15  C   UNL     1      31.652 -23.743 -14.478  0.00  0.00    +0.073 C 
ATOM     16  C   UNL     1      31.071 -22.765 -17.025  0.00  0.00    +0.015 C 
ATOM     17  C   UNL     1      30.334 -23.720 -14.932  0.00  0.00    +0.004 C 
ATOM     18  C   UNL     1      30.044 -23.230 -16.206  0.00  0.00    +0.001 C 
BRANCH  15  22
ATOM     19  F   UNL     1      31.272 -25.401 -12.796  0.00  0.00    -0.166 F 
ATOM     20  F   UNL     1      33.278 -24.590 -12.942  0.00  0.00    -0.166 F 
ATOM     21  F   UNL     1      31.672 -23.370 -12.130  0.00  0.00    -0.166 F 
ATOM     22  C   UNL     1      31.963 -24.267 -13.117  0.00  0.00    +0.419 C 
ENDBRANCH  15  22
ENDBRANCH   3  13
BRANCH   8  25
ATOM     23  O   UNL     1      33.790 -19.229 -22.937  0.00  0.00    -0.270 OA
ATOM     24  N   UNL     1      34.938 -17.413 -22.029  0.00  0.00    -0.278 N 
ATOM     25  C   UNL     1      34.528 -18.752 -22.066  0.00  0.00    +0.253 C 
ATOM     26  H   UNL     1      35.526 -17.165 -21.279  0.00  0.00    +0.155 HD
BRANCH  24  29
ATOM     27  N   UNL     1      34.095 -15.634 -25.165  0.00  0.00    -0.221 NA
ATOM     28  N   UNL     1      34.185 -14.041 -23.360  0.00  0.00    -0.221 NA
ATOM     29  C   UNL     1      34.615 -16.369 -22.933  0.00  0.00    +0.089 C 
ATOM     30  C   UNL     1      34.404 -16.601 -24.277  0.00  0.00    +0.117 C 
ATOM     31  C   UNL     1      34.492 -15.057 -22.527  0.00  0.00    +0.117 C 
ATOM     32  C   UNL     1      34.003 -14.395 -24.646  0.00  0.00    +0.199 C 
ENDBRANCH  24  29
ENDBRANCH   8  25
TORSDOF 4
ENDMDL
MODEL 7
REMARK VINA RESULT:     -10.3      7.825     12.458
REMARK  Name = 23658582
REMARK  4 active torsions:
REMARK  status: ('A' for Active; 'I' for Inactive)
REMARK    1  A    between atoms: N_3  and  C_13
REMARK    2  A    between atoms: C_8  and  C_25
REMARK    3  A    between atoms: C_15  and  C_22
REMARK    4  A    between atoms: N_24  and  C_29
REMARK                            x       y       z     vdW  Elec       q    Type
REMARK                         _______ _______ _______ _____ _____    ______ ____
ROOT
ATOM      1 CL   UNL     1      33.118 -11.917 -25.963  0.00  0.00    -0.082 Cl
ATOM      2  O   UNL     1      34.264 -14.231 -21.477  0.00  0.00    -0.352 OA
ATOM      3  N   UNL     1      34.997 -17.521 -22.388  0.00  0.00    -0.295 N 
ATOM      4  N   UNL     1      34.639 -15.521 -21.119  0.00  0.00    -0.062 NA
ATOM      5  C   UNL     1      34.335 -15.415 -23.378  0.00  0.00    +0.072 A 
ATOM      6  C   UNL     1      34.084 -14.172 -22.825  0.00  0.00    +0.183 A 
ATOM      7  C   UNL     1      34.675 -16.208 -22.264  0.00  0.00    +0.174 A 
ATOM      8  C   UNL     1      33.705 -13.050 -23.558  0.00  0.00    +0.101 C 
ATOM      9  C   UNL     1      34.207 -15.584 -24.764  0.00  0.00    +0.007 C 
ATOM     10  C   UNL     1      33.582 -13.232 -24.939  0.00  0.00    +0.065 C 
ATOM     11  C   UNL     1      33.827 -14.475 -25.533  0.00  0.00    +0.012 C 
ATOM     12  H   UNL     1      34.881 -17.875 -23.299  0.00  0.00    +0.154 HD
ENDROOT
BRANCH   3  13
ATOM     13  C   UNL     1      35.469 -18.486 -21.453  0.00  0.00    +0.049 C 
ATOM     14  C   UNL     1      34.597 -19.448 -20.944  0.00  0.00    +0.018 C 
ATOM     15  C   UNL     1      35.060 -20.393 -20.028  0.00  0.00    +0.073 C 
ATOM     16  C   UNL     1      36.804 -18.469 -21.048  0.00  0.00    +0.015 C 
ATOM     17  C   UNL     1      36.394 -20.377 -19.623  0.00  0.00    +0.004 C 
ATOM     18  C   UNL     1      37.266 -19.414 -20.134  0.00  0.00    +0.001 C 
BRANCH  15  22
ATOM     19  F   UNL     1      34.566 -22.704 -19.653  0.00  0.00    -0.166 F 
ATOM     20  F   UNL     1      33.906 -21.299 -18.139  0.00  0.00    -0.166 F 
ATOM     21  F   UNL     1      32.895 -21.374 -20.063  0.00  0.00    -0.166 F 
ATOM     22  C   UNL     1      34.129 -21.421 -19.482  0.00  0.00    +0.419 C 
ENDBRANCH  15  22
ENDBRANCH   3  13
BRANCH   8  25
ATOM     23  O   UNL     1      32.776 -11.727 -21.863  0.00  0.00    -0.270 OA
ATOM     24  N   UNL     1      34.021 -10.664 -23.525  0.00  0.00    -0.278 N 
ATOM     25  C   UNL     1      33.461 -11.781 -22.892  0.00  0.00    +0.253 C 
ATOM     26  H   UNL     1      34.545 -10.848 -24.338  0.00  0.00    +0.155 HD
BRANCH  24  29
ATOM     27  N   UNL     1      32.679  -7.491 -22.167  0.00  0.00    -0.221 NA
ATOM     28  N   UNL     1      34.907  -7.107 -23.001  0.00  0.00    -0.221 NA
ATOM     29  C   UNL     1      33.929  -9.301 -23.144  0.00  0.00    +0.089 C 
ATOM     30  C   UNL     1      32.801  -8.781 -22.543  0.00  0.00    +0.117 C 
ATOM     31  C   UNL     1      34.961  -8.409 -23.352  0.00  0.00    +0.117 C 
ATOM     32  C   UNL     1      33.754  -6.721 -22.423  0.00  0.00    +0.199 C 
ENDBRANCH  24  29
ENDBRANCH   8  25
TORSDOF 4
ENDMDL
MODEL 8
REMARK VINA RESULT:     -10.2      7.215     11.429
REMARK  Name = 23658582
REMARK  4 active torsions:
REMARK  status: ('A' for Active; 'I' for Inactive)
REMARK    1  A    between atoms: N_3  and  C_13
REMARK    2  A    between atoms: C_8  and  C_25
REMARK    3  A    between atoms: C_15  and  C_22
REMARK    4  A    between atoms: N_24  and  C_29
REMARK                            x       y       z     vdW  Elec       q    Type
REMARK                         _______ _______ _______ _____ _____    ______ ____
ROOT
ATOM      1 CL   UNL     1      33.276 -12.626 -25.891  0.00  0.00    -0.082 Cl
ATOM      2  O   UNL     1      34.456 -14.729 -21.312  0.00  0.00    -0.352 OA
ATOM      3  N   UNL     1      35.028 -18.094 -22.050  0.00  0.00    -0.295 N 
ATOM      4  N   UNL     1      34.789 -16.011 -20.890  0.00  0.00    -0.062 NA
ATOM      5  C   UNL     1      34.423 -16.021 -23.142  0.00  0.00    +0.072 A 
ATOM      6  C   UNL     1      34.240 -14.738 -22.656  0.00  0.00    +0.183 A 
ATOM      7  C   UNL     1      34.763 -16.763 -21.994  0.00  0.00    +0.174 A 
ATOM      8  C   UNL     1      33.886 -13.644 -23.442  0.00  0.00    +0.101 C 
ATOM      9  C   UNL     1      34.249 -16.262 -24.512  0.00  0.00    +0.007 C 
ATOM     10  C   UNL     1      33.716 -13.900 -24.806  0.00  0.00    +0.065 C 
ATOM     11  C   UNL     1      33.893 -15.183 -25.333  0.00  0.00    +0.012 C 
ATOM     12  H   UNL     1      34.871 -18.493 -22.936  0.00  0.00    +0.154 HD
ENDROOT
BRANCH   3  13
ATOM     13  C   UNL     1      35.487 -19.023 -21.074  0.00  0.00    +0.049 C 
ATOM     14  C   UNL     1      34.587 -19.899 -20.468  0.00  0.00    +0.018 C 
ATOM     15  C   UNL     1      35.037 -20.810 -19.512  0.00  0.00    +0.073 C 
ATOM     16  C   UNL     1      36.837 -19.057 -20.724  0.00  0.00    +0.015 C 
ATOM     17  C   UNL     1      36.387 -20.844 -19.162  0.00  0.00    +0.004 C 
ATOM     18  C   UNL     1      37.287 -19.967 -19.769  0.00  0.00    +0.001 C 
BRANCH  15  22
ATOM     19  F   UNL     1      34.427 -22.098 -17.590  0.00  0.00    -0.166 F 
ATOM     20  F   UNL     1      32.810 -21.244 -18.755  0.00  0.00    -0.166 F 
ATOM     21  F   UNL     1      33.946 -22.922 -19.544  0.00  0.00    -0.166 F 
ATOM     22  C   UNL     1      34.076 -21.747 -18.862  0.00  0.00    +0.419 C 
ENDBRANCH  15  22
ENDBRANCH   3  13
BRANCH   8  25
ATOM     23  O   UNL     1      34.469 -11.396 -23.141  0.00  0.00    -0.270 OA
ATOM     24  N   UNL     1      32.677 -12.239 -21.907  0.00  0.00    -0.278 N 
ATOM     25  C   UNL     1      33.714 -12.331 -22.844  0.00  0.00    +0.253 C 
ATOM     26  H   UNL     1      32.152 -13.060 -21.766  0.00  0.00    +0.155 HD
BRANCH  24  29
ATOM     27  N   UNL     1      31.752  -8.773 -20.989  0.00  0.00    -0.221 NA
ATOM     28  N   UNL     1      31.679 -10.153 -19.015  0.00  0.00    -0.221 NA
ATOM     29  C   UNL     1      32.288 -11.115 -21.135  0.00  0.00    +0.089 C 
ATOM     30  C   UNL     1      32.122  -9.864 -21.693  0.00  0.00    +0.117 C 
ATOM     31  C   UNL     1      32.051 -11.201 -19.779  0.00  0.00    +0.117 C 
ATOM     32  C   UNL     1      31.550  -8.986 -19.675  0.00  0.00    +0.199 C 
ENDBRANCH  24  29
ENDBRANCH   8  25
TORSDOF 4
ENDMDL
MODEL 9
REMARK VINA RESULT:      -9.8     12.557     15.897
REMARK  Name = 23658582
REMARK  4 active torsions:
REMARK  status: ('A' for Active; 'I' for Inactive)
REMARK    1  A    between atoms: N_3  and  C_13
REMARK    2  A    between atoms: C_8  and  C_25
REMARK    3  A    between atoms: C_15  and  C_22
REMARK    4  A    between atoms: N_24  and  C_29
REMARK                            x       y       z     vdW  Elec       q    Type
REMARK                         _______ _______ _______ _____ _____    ______ ____
ROOT
ATOM      1 CL   UNL     1      31.915 -10.408 -18.630  0.00  0.00    -0.082 Cl
ATOM      2  O   UNL     1      32.284  -8.606 -23.468  0.00  0.00    -0.352 OA
ATOM      3  N   UNL     1      32.433  -5.141 -23.070  0.00  0.00    -0.295 N 
ATOM      4  N   UNL     1      32.379  -7.337 -24.026  0.00  0.00    -0.062 NA
ATOM      5  C   UNL     1      32.257  -7.164 -21.755  0.00  0.00    +0.072 A 
ATOM      6  C   UNL     1      32.212  -8.500 -22.113  0.00  0.00    +0.183 A 
ATOM      7  C   UNL     1      32.361  -6.494 -22.989  0.00  0.00    +0.174 A 
ATOM      8  C   UNL     1      32.107  -9.552 -21.207  0.00  0.00    +0.101 C 
ATOM      9  C   UNL     1      32.195  -6.820 -20.396  0.00  0.00    +0.007 C 
ATOM     10  C   UNL     1      32.046  -9.194 -19.857  0.00  0.00    +0.065 C 
ATOM     11  C   UNL     1      32.089  -7.855 -19.456  0.00  0.00    +0.012 C 
ATOM     12  H   UNL     1      32.314  -4.684 -22.205  0.00  0.00    +0.154 HD
ENDROOT
BRANCH   3  13
ATOM     13  C   UNL     1      32.646  -4.254 -24.163  0.00  0.00    +0.049 C 
ATOM     14  C   UNL     1      33.846  -4.297 -24.871  0.00  0.00    +0.018 C 
ATOM     15  C   UNL     1      34.054  -3.428 -25.943  0.00  0.00    +0.073 C 
ATOM     16  C   UNL     1      31.653  -3.345 -24.527  0.00  0.00    +0.015 C 
ATOM     17  C   UNL     1      33.062  -2.519 -26.307  0.00  0.00    +0.004 C 
ATOM     18  C   UNL     1      31.860  -2.477 -25.598  0.00  0.00    +0.001 C 
BRANCH  15  22
ATOM     19  F   UNL     1      35.983  -2.269 -26.755  0.00  0.00    -0.166 F 
ATOM     20  F   UNL     1      36.253  -4.341 -26.177  0.00  0.00    -0.166 F 
ATOM     21  F   UNL     1      35.170  -3.856 -27.999  0.00  0.00    -0.166 F 
ATOM     22  C   UNL     1      35.338  -3.472 -26.700  0.00  0.00    +0.419 C 
ENDBRANCH  15  22
ENDBRANCH   3  13
BRANCH   8  25
ATOM     23  O   UNL     1      31.118 -11.668 -21.384  0.00  0.00    -0.270 OA
ATOM     24  N   UNL     1      33.179 -11.331 -22.424  0.00  0.00    -0.278 N 
ATOM     25  C   UNL     1      32.066 -10.927 -21.675  0.00  0.00    +0.253 C 
ATOM     26  H   UNL     1      33.862 -10.641 -22.583  0.00  0.00    +0.155 HD
BRANCH  24  29
ATOM     27  N   UNL     1      34.241 -14.865 -22.732  0.00  0.00    -0.221 NA
ATOM     28  N   UNL     1      33.438 -14.098 -24.870  0.00  0.00    -0.221 NA
ATOM     29  C   UNL     1      33.446 -12.607 -22.982  0.00  0.00    +0.089 C 
ATOM     30  C   UNL     1      33.974 -13.639 -22.234  0.00  0.00    +0.117 C 
ATOM     31  C   UNL     1      33.196 -12.896 -24.307  0.00  0.00    +0.117 C 
ATOM     32  C   UNL     1      33.953 -15.023 -24.038  0.00  0.00    +0.199 C 
ENDBRANCH  24  29
ENDBRANCH   8  25
TORSDOF 4
ENDMDL
