MODEL 1
REMARK VINA RESULT:     -12.4      0.000      0.000
REMARK  Name = 42642648
REMARK  5 active torsions:
REMARK  status: ('A' for Active; 'I' for Inactive)
REMARK    1  A    between atoms: N_1  and  C_22
REMARK    2  A    between atoms: C_4  and  N_15
REMARK    3  A    between atoms: C_25  and  O_28
REMARK    4  A    between atoms: O_28  and  C_29
REMARK    5  A    between atoms: C_29  and  C_32
REMARK                            x       y       z     vdW  Elec       q    Type
REMARK                         _______ _______ _______ _____ _____    ______ ____
ROOT
ATOM      1  N   UNL     1      34.594 -22.323 -17.885  0.00  0.00    -0.301 N 
ATOM      2  N   UNL     1      31.609 -23.431 -15.241  0.00  0.00    -0.248 NA
ATOM      3  N   UNL     1      32.311 -22.623 -17.399  0.00  0.00    -0.233 NA
ATOM      4  C   UNL     1      35.576 -23.661 -13.982  0.00  0.00    +0.048 C 
ATOM      5  C   UNL     1      33.945 -23.140 -15.695  0.00  0.00    +0.117 C 
ATOM      6  C   UNL     1      35.282 -23.219 -15.267  0.00  0.00    +0.001 C 
ATOM      7  C   UNL     1      32.891 -23.502 -14.841  0.00  0.00    +0.067 C 
ATOM      8  C   UNL     1      33.584 -22.706 -16.967  0.00  0.00    +0.115 C 
ATOM      9  C   UNL     1      34.541 -24.022 -13.127  0.00  0.00    +0.016 C 
ATOM     10  C   UNL     1      33.214 -23.940 -13.559  0.00  0.00    +0.016 C 
ATOM     11  C   UNL     1      31.388 -22.995 -16.497  0.00  0.00    +0.251 C 
ATOM     12  H   UNL     1      35.445 -22.800 -17.759  0.00  0.00    +0.153 HD
ENDROOT
BRANCH   4  15
ATOM     13  O   UNL     1      39.032 -24.531 -13.217  0.00  0.00    -0.448 OA
ATOM     14  N   UNL     1      37.633 -25.826 -14.475  0.00  0.00    -0.222 NA
ATOM     15  N   UNL     1      36.914 -23.742 -13.547  0.00  0.00    -0.269 N 
ATOM     16  C   UNL     1      38.958 -26.467 -14.471  0.00  0.00    +0.151 C 
ATOM     17  C   UNL     1      39.712 -25.770 -13.358  0.00  0.00    +0.233 C 
ATOM     18  C   UNL     1      37.811 -24.737 -13.791  0.00  0.00    +0.284 C 
ATOM     19  C   UNL     1      38.821 -27.961 -14.255  0.00  0.00    +0.030 C 
ATOM     20  H   UNL     1      37.239 -22.989 -13.001  0.00  0.00    +0.157 HD
ENDBRANCH   4  15
BRANCH   1  22
ATOM     21 CL   UNL     1      37.350 -19.239 -20.895  0.00  0.00    -0.079 Cl
ATOM     22  C   UNL     1      34.613 -21.395 -18.939  0.00  0.00    +0.050 C 
ATOM     23  C   UNL     1      35.822 -20.837 -19.354  0.00  0.00    +0.029 C 
ATOM     24  C   UNL     1      33.424 -21.032 -19.569  0.00  0.00    +0.018 C 
ATOM     25  C   UNL     1      34.650 -19.552 -21.032  0.00  0.00    +0.150 C 
ATOM     26  C   UNL     1      35.841 -19.915 -20.401  0.00  0.00    +0.093 C 
ATOM     27  C   UNL     1      33.443 -20.110 -20.616  0.00  0.00    +0.039 C 
BRANCH  25  28
ATOM     28  O   UNL     1      34.639 -18.654 -22.058  0.00  0.00    -0.468 OA
BRANCH  28  29
ATOM     29  C   UNL     1      35.509 -17.528 -21.941  0.00  0.00    +0.257 C 
BRANCH  29  32
ATOM     30  S   UNL     1      34.403 -16.568 -24.298  0.00  0.00    -0.067 S 
ATOM     31  N   UNL     1      34.722 -15.172 -22.146  0.00  0.00    -0.237 NA
ATOM     32  C   UNL     1      34.903 -16.364 -22.669  0.00  0.00    +0.132 C 
ATOM     33  C   UNL     1      33.897 -14.930 -24.321  0.00  0.00    +0.057 C 
ATOM     34  C   UNL     1      34.145 -14.351 -23.094  0.00  0.00    +0.106 C 
ENDBRANCH  29  32
ENDBRANCH  28  29
ENDBRANCH  25  28
ENDBRANCH   1  22
TORSDOF 5
ENDMDL
MODEL 2
REMARK VINA RESULT:     -12.3      1.203      1.480
REMARK  Name = 42642648
REMARK  5 active torsions:
REMARK  status: ('A' for Active; 'I' for Inactive)
REMARK    1  A    between atoms: N_1  and  C_22
REMARK    2  A    between atoms: C_4  and  N_15
REMARK    3  A    between atoms: C_25  and  O_28
REMARK    4  A    between atoms: O_28  and  C_29
REMARK    5  A    between atoms: C_29  and  C_32
REMARK                            x       y       z     vdW  Elec       q    Type
REMARK                         _______ _______ _______ _____ _____    ______ ____
ROOT
ATOM      1  N   UNL     1      34.820 -22.698 -17.253  0.00  0.00    -0.301 N 
ATOM      2  N   UNL     1      31.808 -23.681 -14.591  0.00  0.00    -0.248 NA
ATOM      3  N   UNL     1      32.533 -22.982 -16.780  0.00  0.00    -0.233 NA
ATOM      4  C   UNL     1      35.760 -23.830 -13.275  0.00  0.00    +0.048 C 
ATOM      5  C   UNL     1      34.148 -23.404 -15.032  0.00  0.00    +0.117 C 
ATOM      6  C   UNL     1      35.481 -23.456 -14.585  0.00  0.00    +0.001 C 
ATOM      7  C   UNL     1      33.085 -23.726 -14.173  0.00  0.00    +0.067 C 
ATOM      8  C   UNL     1      33.801 -23.037 -16.329  0.00  0.00    +0.115 C 
ATOM      9  C   UNL     1      34.716 -24.151 -12.415  0.00  0.00    +0.016 C 
ATOM     10  C   UNL     1      33.394 -24.096 -12.867  0.00  0.00    +0.016 C 
ATOM     11  C   UNL     1      31.601 -23.310 -15.870  0.00  0.00    +0.251 C 
ATOM     12  H   UNL     1      35.672 -23.164 -17.093  0.00  0.00    +0.153 HD
ENDROOT
BRANCH   4  15
ATOM     13  O   UNL     1      39.307 -24.427 -12.689  0.00  0.00    -0.448 OA
ATOM     14  N   UNL     1      38.132 -25.309 -14.437  0.00  0.00    -0.222 NA
ATOM     15  N   UNL     1      37.093 -23.883 -12.821  0.00  0.00    -0.269 N 
ATOM     16  C   UNL     1      39.541 -25.703 -14.597  0.00  0.00    +0.151 C 
ATOM     17  C   UNL     1      40.174 -25.400 -13.256  0.00  0.00    +0.233 C 
ATOM     18  C   UNL     1      38.135 -24.563 -13.375  0.00  0.00    +0.284 C 
ATOM     19  C   UNL     1      39.639 -27.165 -14.988  0.00  0.00    +0.030 C 
ATOM     20  H   UNL     1      37.295 -23.368 -12.006  0.00  0.00    +0.157 HD
ENDBRANCH   4  15
BRANCH   1  22
ATOM     21 CL   UNL     1      32.201 -20.112 -20.805  0.00  0.00    -0.079 Cl
ATOM     22  C   UNL     1      34.849 -21.825 -18.353  0.00  0.00    +0.050 C 
ATOM     23  C   UNL     1      33.659 -21.440 -18.969  0.00  0.00    +0.029 C 
ATOM     24  C   UNL     1      36.068 -21.344 -18.828  0.00  0.00    +0.018 C 
ATOM     25  C   UNL     1      34.909 -20.090 -20.537  0.00  0.00    +0.150 C 
ATOM     26  C   UNL     1      33.688 -20.572 -20.061  0.00  0.00    +0.093 C 
ATOM     27  C   UNL     1      36.098 -20.476 -19.920  0.00  0.00    +0.039 C 
BRANCH  25  28
ATOM     28  O   UNL     1      34.967 -19.242 -21.602  0.00  0.00    -0.468 OA
BRANCH  28  29
ATOM     29  C   UNL     1      35.658 -18.008 -21.409  0.00  0.00    +0.257 C 
BRANCH  29  32
ATOM     30  S   UNL     1      34.617 -17.523 -23.935  0.00  0.00    -0.067 S 
ATOM     31  N   UNL     1      35.043 -15.708 -22.145  0.00  0.00    -0.237 NA
ATOM     32  C   UNL     1      35.136 -16.996 -22.386  0.00  0.00    +0.132 C 
ATOM     33  C   UNL     1      34.230 -15.900 -24.329  0.00  0.00    +0.057 C 
ATOM     34  C   UNL     1      34.524 -15.080 -23.260  0.00  0.00    +0.106 C 
ENDBRANCH  29  32
ENDBRANCH  28  29
ENDBRANCH  25  28
ENDBRANCH   1  22
TORSDOF 5
ENDMDL
MODEL 3
REMARK VINA RESULT:     -11.9      1.691      2.191
REMARK  Name = 42642648
REMARK  5 active torsions:
REMARK  status: ('A' for Active; 'I' for Inactive)
REMARK    1  A    between atoms: N_1  and  C_22
REMARK    2  A    between atoms: C_4  and  N_15
REMARK    3  A    between atoms: C_25  and  O_28
REMARK    4  A    between atoms: O_28  and  C_29
REMARK    5  A    between atoms: C_29  and  C_32
REMARK                            x       y       z     vdW  Elec       q    Type
REMARK                         _______ _______ _______ _____ _____    ______ ____
ROOT
ATOM      1  N   UNL     1      33.059 -22.859 -17.203  0.00  0.00    -0.301 N 
ATOM      2  N   UNL     1      29.514 -22.973 -15.069  0.00  0.00    -0.248 NA
ATOM      3  N   UNL     1      30.739 -22.485 -17.087  0.00  0.00    -0.233 NA
ATOM      4  C   UNL     1      33.011 -24.254 -13.198  0.00  0.00    +0.048 C 
ATOM      5  C   UNL     1      31.878 -23.368 -15.146  0.00  0.00    +0.117 C 
ATOM      6  C   UNL     1      33.056 -23.802 -14.512  0.00  0.00    +0.001 C 
ATOM      7  C   UNL     1      30.646 -23.384 -14.472  0.00  0.00    +0.067 C 
ATOM      8  C   UNL     1      31.854 -22.904 -16.458  0.00  0.00    +0.115 C 
ATOM      9  C   UNL     1      31.798 -24.274 -12.519  0.00  0.00    +0.016 C 
ATOM     10  C   UNL     1      30.632 -23.841 -13.156  0.00  0.00    +0.016 C 
ATOM     11  C   UNL     1      29.622 -22.546 -16.343  0.00  0.00    +0.251 C 
ATOM     12  H   UNL     1      33.711 -23.550 -16.945  0.00  0.00    +0.153 HD
ENDROOT
BRANCH   4  15
ATOM     13  O   UNL     1      36.400 -24.942 -12.045  0.00  0.00    -0.448 OA
ATOM     14  N   UNL     1      35.895 -23.525 -13.764  0.00  0.00    -0.222 NA
ATOM     15  N   UNL     1      34.188 -24.689 -12.556  0.00  0.00    -0.269 N 
ATOM     16  C   UNL     1      37.348 -23.465 -13.543  0.00  0.00    +0.151 C 
ATOM     17  C   UNL     1      37.648 -24.660 -12.663  0.00  0.00    +0.233 C 
ATOM     18  C   UNL     1      35.472 -24.336 -12.842  0.00  0.00    +0.284 C 
ATOM     19  C   UNL     1      38.085 -23.499 -14.868  0.00  0.00    +0.030 C 
ATOM     20  H   UNL     1      34.068 -25.324 -11.813  0.00  0.00    +0.157 HD
ENDBRANCH   4  15
BRANCH   1  22
ATOM     21 CL   UNL     1      37.000 -20.915 -19.821  0.00  0.00    -0.079 Cl
ATOM     22  C   UNL     1      33.502 -22.018 -18.237  0.00  0.00    +0.050 C 
ATOM     23  C   UNL     1      34.867 -21.890 -18.495  0.00  0.00    +0.029 C 
ATOM     24  C   UNL     1      32.578 -21.312 -19.004  0.00  0.00    +0.018 C 
ATOM     25  C   UNL     1      34.381 -20.349 -20.292  0.00  0.00    +0.150 C 
ATOM     26  C   UNL     1      35.307 -21.056 -19.523  0.00  0.00    +0.093 C 
ATOM     27  C   UNL     1      33.017 -20.477 -20.032  0.00  0.00    +0.039 C 
BRANCH  25  28
ATOM     28  O   UNL     1      34.782 -19.526 -21.301  0.00  0.00    -0.468 OA
BRANCH  28  29
ATOM     29  C   UNL     1      35.214 -18.216 -20.935  0.00  0.00    +0.257 C 
BRANCH  29  32
ATOM     30  S   UNL     1      34.633 -17.961 -23.637  0.00  0.00    -0.067 S 
ATOM     31  N   UNL     1      35.156 -15.988 -22.051  0.00  0.00    -0.237 NA
ATOM     32  C   UNL     1      35.031 -17.295 -22.106  0.00  0.00    +0.132 C 
ATOM     33  C   UNL     1      34.621 -16.377 -24.294  0.00  0.00    +0.057 C 
ATOM     34  C   UNL     1      34.921 -15.463 -23.307  0.00  0.00    +0.106 C 
ENDBRANCH  29  32
ENDBRANCH  28  29
ENDBRANCH  25  28
ENDBRANCH   1  22
TORSDOF 5
ENDMDL
MODEL 4
REMARK VINA RESULT:     -11.2      8.950     16.999
REMARK  Name = 42642648
REMARK  5 active torsions:
REMARK  status: ('A' for Active; 'I' for Inactive)
REMARK    1  A    between atoms: N_1  and  C_22
REMARK    2  A    between atoms: C_4  and  N_15
REMARK    3  A    between atoms: C_25  and  O_28
REMARK    4  A    between atoms: O_28  and  C_29
REMARK    5  A    between atoms: C_29  and  C_32
REMARK                            x       y       z     vdW  Elec       q    Type
REMARK                         _______ _______ _______ _____ _____    ______ ____
ROOT
ATOM      1  N   UNL     1      33.462  -8.569 -23.137  0.00  0.00    -0.301 N 
ATOM      2  N   UNL     1      31.929  -5.792 -20.479  0.00  0.00    -0.248 NA
ATOM      3  N   UNL     1      32.792  -7.990 -20.957  0.00  0.00    -0.233 NA
ATOM      4  C   UNL     1      32.409  -4.682 -24.468  0.00  0.00    +0.048 C 
ATOM      5  C   UNL     1      32.602  -6.341 -22.714  0.00  0.00    +0.117 C 
ATOM      6  C   UNL     1      32.763  -5.963 -24.059  0.00  0.00    +0.001 C 
ATOM      7  C   UNL     1      32.086  -5.441 -21.767  0.00  0.00    +0.067 C 
ATOM      8  C   UNL     1      32.936  -7.606 -22.240  0.00  0.00    +0.115 C 
ATOM      9  C   UNL     1      31.896  -3.782 -23.540  0.00  0.00    +0.016 C 
ATOM     10  C   UNL     1      31.739  -4.165 -22.205  0.00  0.00    +0.016 C 
ATOM     11  C   UNL     1      32.289  -7.047 -20.144  0.00  0.00    +0.251 C 
ATOM     12  H   UNL     1      33.975  -8.179 -23.881  0.00  0.00    +0.153 HD
ENDROOT
BRANCH   4  15
ATOM     13  O   UNL     1      33.552  -3.762 -27.804  0.00  0.00    -0.448 OA
ATOM     14  N   UNL     1      34.942  -4.366 -26.094  0.00  0.00    -0.222 NA
ATOM     15  N   UNL     1      32.567  -4.297 -25.814  0.00  0.00    -0.269 N 
ATOM     16  C   UNL     1      35.767  -4.160 -27.295  0.00  0.00    +0.151 C 
ATOM     17  C   UNL     1      34.857  -3.434 -28.262  0.00  0.00    +0.233 C 
ATOM     18  C   UNL     1      33.729  -4.166 -26.512  0.00  0.00    +0.284 C 
ATOM     19  C   UNL     1      37.018  -3.376 -26.947  0.00  0.00    +0.030 C 
ATOM     20  H   UNL     1      31.739  -4.099 -26.309  0.00  0.00    +0.157 HD
ENDBRANCH   4  15
BRANCH   1  22
ATOM     21 CL   UNL     1      32.002 -12.890 -20.824  0.00  0.00    -0.079 Cl
ATOM     22  C   UNL     1      33.393  -9.971 -23.169  0.00  0.00    +0.050 C 
ATOM     23  C   UNL     1      32.804 -10.664 -22.113  0.00  0.00    +0.029 C 
ATOM     24  C   UNL     1      33.914 -10.669 -24.258  0.00  0.00    +0.018 C 
ATOM     25  C   UNL     1      33.256 -12.756 -23.235  0.00  0.00    +0.150 C 
ATOM     26  C   UNL     1      32.735 -12.057 -22.145  0.00  0.00    +0.093 C 
ATOM     27  C   UNL     1      33.845 -12.062 -24.291  0.00  0.00    +0.039 C 
BRANCH  25  28
ATOM     28  O   UNL     1      33.203 -14.117 -23.293  0.00  0.00    -0.468 OA
BRANCH  28  29
ATOM     29  C   UNL     1      33.811 -14.740 -24.423  0.00  0.00    +0.257 C 
BRANCH  29  32
ATOM     30  S   UNL     1      35.130 -16.508 -22.739  0.00  0.00    -0.067 S 
ATOM     31  N   UNL     1      33.675 -17.207 -24.758  0.00  0.00    -0.237 NA
ATOM     32  C   UNL     1      34.122 -16.169 -24.086  0.00  0.00    +0.132 C 
ATOM     33  C   UNL     1      34.962 -18.182 -23.066  0.00  0.00    +0.057 C 
ATOM     34  C   UNL     1      34.157 -18.360 -24.172  0.00  0.00    +0.106 C 
ENDBRANCH  29  32
ENDBRANCH  28  29
ENDBRANCH  25  28
ENDBRANCH   1  22
TORSDOF 5
ENDMDL
MODEL 5
REMARK VINA RESULT:     -11.1      8.620     16.865
REMARK  Name = 42642648
REMARK  5 active torsions:
REMARK  status: ('A' for Active; 'I' for Inactive)
REMARK    1  A    between atoms: N_1  and  C_22
REMARK    2  A    between atoms: C_4  and  N_15
REMARK    3  A    between atoms: C_25  and  O_28
REMARK    4  A    between atoms: O_28  and  C_29
REMARK    5  A    between atoms: C_29  and  C_32
REMARK                            x       y       z     vdW  Elec       q    Type
REMARK                         _______ _______ _______ _____ _____    ______ ____
ROOT
ATOM      1  N   UNL     1      34.083  -9.369 -23.543  0.00  0.00    -0.301 N 
ATOM      2  N   UNL     1      31.453  -6.543 -22.049  0.00  0.00    -0.248 NA
ATOM      3  N   UNL     1      32.255  -8.812 -22.169  0.00  0.00    -0.233 NA
ATOM      4  C   UNL     1      34.380  -5.314 -24.750  0.00  0.00    +0.048 C 
ATOM      5  C   UNL     1      33.319  -7.068 -23.460  0.00  0.00    +0.117 C 
ATOM      6  C   UNL     1      34.306  -6.650 -24.371  0.00  0.00    +0.001 C 
ATOM      7  C   UNL     1      32.400  -6.154 -22.921  0.00  0.00    +0.067 C 
ATOM      8  C   UNL     1      33.190  -8.389 -23.041  0.00  0.00    +0.115 C 
ATOM      9  C   UNL     1      33.475  -4.399 -24.224  0.00  0.00    +0.016 C 
ATOM     10  C   UNL     1      32.497  -4.823 -23.319  0.00  0.00    +0.016 C 
ATOM     11  C   UNL     1      31.432  -7.850 -21.721  0.00  0.00    +0.251 C 
ATOM     12  H   UNL     1      34.974  -9.016 -23.766  0.00  0.00    +0.153 HD
ENDROOT
BRANCH   4  15
ATOM     13  O   UNL     1      36.343  -4.086 -27.565  0.00  0.00    -0.448 OA
ATOM     14  N   UNL     1      34.063  -4.219 -27.555  0.00  0.00    -0.222 NA
ATOM     15  N   UNL     1      35.366  -4.888 -25.663  0.00  0.00    -0.269 N 
ATOM     16  C   UNL     1      34.472  -3.593 -28.822  0.00  0.00    +0.151 C 
ATOM     17  C   UNL     1      35.960  -3.859 -28.914  0.00  0.00    +0.233 C 
ATOM     18  C   UNL     1      35.181  -4.400 -26.921  0.00  0.00    +0.284 C 
ATOM     19  C   UNL     1      33.687  -4.180 -29.979  0.00  0.00    +0.030 C 
ATOM     20  H   UNL     1      36.299  -4.952 -25.355  0.00  0.00    +0.157 HD
ENDBRANCH   4  15
BRANCH   1  22
ATOM     21 CL   UNL     1      33.958 -14.110 -21.628  0.00  0.00    -0.079 Cl
ATOM     22  C   UNL     1      33.941 -10.745 -23.782  0.00  0.00    +0.050 C 
ATOM     23  C   UNL     1      34.010 -11.648 -22.721  0.00  0.00    +0.029 C 
ATOM     24  C   UNL     1      33.731 -11.209 -25.080  0.00  0.00    +0.018 C 
ATOM     25  C   UNL     1      33.658 -13.479 -24.258  0.00  0.00    +0.150 C 
ATOM     26  C   UNL     1      33.868 -13.015 -22.958  0.00  0.00    +0.093 C 
ATOM     27  C   UNL     1      33.590 -12.576 -25.318  0.00  0.00    +0.039 C 
BRANCH  25  28
ATOM     28  O   UNL     1      33.517 -14.809 -24.519  0.00  0.00    -0.468 OA
BRANCH  28  29
ATOM     29  C   UNL     1      34.714 -15.578 -24.628  0.00  0.00    +0.257 C 
BRANCH  29  32
ATOM     30  S   UNL     1      35.192 -17.603 -22.792  0.00  0.00    -0.067 S 
ATOM     31  N   UNL     1      33.627 -17.811 -24.839  0.00  0.00    -0.237 NA
ATOM     32  C   UNL     1      34.431 -16.989 -24.202  0.00  0.00    +0.132 C 
ATOM     33  C   UNL     1      34.388 -19.097 -23.039  0.00  0.00    +0.057 C 
ATOM     34  C   UNL     1      33.604 -19.020 -24.171  0.00  0.00    +0.106 C 
ENDBRANCH  29  32
ENDBRANCH  28  29
ENDBRANCH  25  28
ENDBRANCH   1  22
TORSDOF 5
ENDMDL
MODEL 6
REMARK VINA RESULT:     -10.9      1.680      2.281
REMARK  Name = 42642648
REMARK  5 active torsions:
REMARK  status: ('A' for Active; 'I' for Inactive)
REMARK    1  A    between atoms: N_1  and  C_22
REMARK    2  A    between atoms: C_4  and  N_15
REMARK    3  A    between atoms: C_25  and  O_28
REMARK    4  A    between atoms: O_28  and  C_29
REMARK    5  A    between atoms: C_29  and  C_32
REMARK                            x       y       z     vdW  Elec       q    Type
REMARK                         _______ _______ _______ _____ _____    ______ ____
ROOT
ATOM      1  N   UNL     1      35.341 -21.202 -19.470  0.00  0.00    -0.301 N 
ATOM      2  N   UNL     1      32.215 -22.517 -17.098  0.00  0.00    -0.248 NA
ATOM      3  N   UNL     1      33.032 -21.480 -19.114  0.00  0.00    -0.233 NA
ATOM      4  C   UNL     1      36.116 -23.031 -15.723  0.00  0.00    +0.048 C 
ATOM      5  C   UNL     1      34.576 -22.253 -17.423  0.00  0.00    +0.117 C 
ATOM      6  C   UNL     1      35.891 -22.429 -16.956  0.00  0.00    +0.001 C 
ATOM      7  C   UNL     1      33.476 -22.679 -16.661  0.00  0.00    +0.067 C 
ATOM      8  C   UNL     1      34.282 -21.658 -18.646  0.00  0.00    +0.115 C 
ATOM      9  C   UNL     1      35.035 -23.457 -14.959  0.00  0.00    +0.016 C 
ATOM     10  C   UNL     1      33.731 -23.278 -15.429  0.00  0.00    +0.016 C 
ATOM     11  C   UNL     1      32.061 -21.926 -18.300  0.00  0.00    +0.251 C 
ATOM     12  H   UNL     1      36.172 -21.719 -19.370  0.00  0.00    +0.153 HD
ENDROOT
BRANCH   4  15
ATOM     13  O   UNL     1      39.275 -24.181 -14.316  0.00  0.00    -0.448 OA
ATOM     14  N   UNL     1      37.396 -25.470 -14.467  0.00  0.00    -0.222 NA
ATOM     15  N   UNL     1      37.431 -23.209 -15.249  0.00  0.00    -0.269 N 
ATOM     16  C   UNL     1      38.478 -26.312 -13.933  0.00  0.00    +0.151 C 
ATOM     17  C   UNL     1      39.559 -25.331 -13.531  0.00  0.00    +0.233 C 
ATOM     18  C   UNL     1      37.971 -24.327 -14.689  0.00  0.00    +0.284 C 
ATOM     19  C   UNL     1      37.971 -27.150 -12.775  0.00  0.00    +0.030 C 
ATOM     20  H   UNL     1      38.032 -22.433 -15.333  0.00  0.00    +0.157 HD
ENDBRANCH   4  15
BRANCH   1  22
ATOM     21 CL   UNL     1      33.639 -19.104 -23.813  0.00  0.00    -0.079 Cl
ATOM     22  C   UNL     1      35.433 -20.156 -20.402  0.00  0.00    +0.050 C 
ATOM     23  C   UNL     1      34.596 -20.139 -21.517  0.00  0.00    +0.029 C 
ATOM     24  C   UNL     1      36.361 -19.133 -20.212  0.00  0.00    +0.018 C 
ATOM     25  C   UNL     1      35.616 -18.075 -22.252  0.00  0.00    +0.150 C 
ATOM     26  C   UNL     1      34.686 -19.099 -22.442  0.00  0.00    +0.093 C 
ATOM     27  C   UNL     1      36.453 -18.093 -21.136  0.00  0.00    +0.039 C 
BRANCH  25  28
ATOM     28  O   UNL     1      35.727 -17.047 -23.139  0.00  0.00    -0.468 OA
BRANCH  28  29
ATOM     29  C   UNL     1      34.680 -16.906 -24.099  0.00  0.00    +0.257 C 
BRANCH  29  32
ATOM     30  S   UNL     1      34.358 -14.541 -22.682  0.00  0.00    -0.067 S 
ATOM     31  N   UNL     1      33.704 -14.873 -25.161  0.00  0.00    -0.237 NA
ATOM     32  C   UNL     1      34.219 -15.478 -24.114  0.00  0.00    +0.132 C 
ATOM     33  C   UNL     1      33.676 -13.209 -23.518  0.00  0.00    +0.057 C 
ATOM     34  C   UNL     1      33.393 -13.572 -24.818  0.00  0.00    +0.106 C 
ENDBRANCH  29  32
ENDBRANCH  28  29
ENDBRANCH  25  28
ENDBRANCH   1  22
TORSDOF 5
ENDMDL
MODEL 7
REMARK VINA RESULT:     -10.9      4.886      9.003
REMARK  Name = 42642648
REMARK  5 active torsions:
REMARK  status: ('A' for Active; 'I' for Inactive)
REMARK    1  A    between atoms: N_1  and  C_22
REMARK    2  A    between atoms: C_4  and  N_15
REMARK    3  A    between atoms: C_25  and  O_28
REMARK    4  A    between atoms: O_28  and  C_29
REMARK    5  A    between atoms: C_29  and  C_32
REMARK                            x       y       z     vdW  Elec       q    Type
REMARK                         _______ _______ _______ _____ _____    ______ ____
ROOT
ATOM      1  N   UNL     1      34.494 -14.844 -22.194  0.00  0.00    -0.301 N 
ATOM      2  N   UNL     1      33.847 -17.849 -24.967  0.00  0.00    -0.248 NA
ATOM      3  N   UNL     1      33.611 -15.559 -24.255  0.00  0.00    -0.233 NA
ATOM      4  C   UNL     1      35.915 -18.774 -21.467  0.00  0.00    +0.048 C 
ATOM      5  C   UNL     1      34.762 -17.162 -22.859  0.00  0.00    +0.117 C 
ATOM      6  C   UNL     1      35.460 -17.477 -21.680  0.00  0.00    +0.001 C 
ATOM      7  C   UNL     1      34.513 -18.140 -23.835  0.00  0.00    +0.067 C 
ATOM      8  C   UNL     1      34.281 -15.885 -23.133  0.00  0.00    +0.115 C 
ATOM      9  C   UNL     1      35.674 -19.752 -22.426  0.00  0.00    +0.016 C 
ATOM     10  C   UNL     1      34.979 -19.431 -23.595  0.00  0.00    +0.016 C 
ATOM     11  C   UNL     1      33.432 -16.575 -25.115  0.00  0.00    +0.251 C 
ATOM     12  H   UNL     1      35.318 -14.949 -21.666  0.00  0.00    +0.153 HD
ENDROOT
BRANCH   4  15
ATOM     13  O   UNL     1      37.232 -20.177 -18.372  0.00  0.00    -0.448 OA
ATOM     14  N   UNL     1      35.482 -21.067 -19.539  0.00  0.00    -0.222 NA
ATOM     15  N   UNL     1      36.614 -19.097 -20.288  0.00  0.00    -0.269 N 
ATOM     16  C   UNL     1      35.771 -21.963 -18.408  0.00  0.00    +0.151 C 
ATOM     17  C   UNL     1      36.673 -21.151 -17.502  0.00  0.00    +0.233 C 
ATOM     18  C   UNL     1      36.388 -20.142 -19.444  0.00  0.00    +0.284 C 
ATOM     19  C   UNL     1      34.483 -22.398 -17.736  0.00  0.00    +0.030 C 
ATOM     20  H   UNL     1      37.355 -18.495 -20.044  0.00  0.00    +0.157 HD
ENDBRANCH   4  15
BRANCH   1  22
ATOM     21 CL   UNL     1      33.048 -10.115 -23.499  0.00  0.00    -0.079 Cl
ATOM     22  C   UNL     1      33.756 -13.694 -21.871  0.00  0.00    +0.050 C 
ATOM     23  C   UNL     1      33.759 -12.599 -22.734  0.00  0.00    +0.029 C 
ATOM     24  C   UNL     1      33.020 -13.648 -20.688  0.00  0.00    +0.018 C 
ATOM     25  C   UNL     1      32.289 -11.410 -21.229  0.00  0.00    +0.150 C 
ATOM     26  C   UNL     1      33.026 -11.457 -22.414  0.00  0.00    +0.093 C 
ATOM     27  C   UNL     1      32.287 -12.505 -20.367  0.00  0.00    +0.039 C 
BRANCH  25  28
ATOM     28  O   UNL     1      31.564 -10.307 -20.891  0.00  0.00    -0.468 OA
BRANCH  28  29
ATOM     29  C   UNL     1      31.894  -9.669 -19.658  0.00  0.00    +0.257 C 
BRANCH  29  32
ATOM     30  S   UNL     1      31.830  -7.574 -21.477  0.00  0.00    -0.067 S 
ATOM     31  N   UNL     1      32.539  -7.352 -19.001  0.00  0.00    -0.237 NA
ATOM     32  C   UNL     1      32.122  -8.207 -19.909  0.00  0.00    +0.132 C 
ATOM     33  C   UNL     1      32.294  -6.024 -20.910  0.00  0.00    +0.057 C 
ATOM     34  C   UNL     1      32.637  -6.101 -19.577  0.00  0.00    +0.106 C 
ENDBRANCH  29  32
ENDBRANCH  28  29
ENDBRANCH  25  28
ENDBRANCH   1  22
TORSDOF 5
ENDMDL
MODEL 8
REMARK VINA RESULT:     -10.2      9.301     17.966
REMARK  Name = 42642648
REMARK  5 active torsions:
REMARK  status: ('A' for Active; 'I' for Inactive)
REMARK    1  A    between atoms: N_1  and  C_22
REMARK    2  A    between atoms: C_4  and  N_15
REMARK    3  A    between atoms: C_25  and  O_28
REMARK    4  A    between atoms: O_28  and  C_29
REMARK    5  A    between atoms: C_29  and  C_32
REMARK                            x       y       z     vdW  Elec       q    Type
REMARK                         _______ _______ _______ _____ _____    ______ ____
ROOT
ATOM      1  N   UNL     1      33.486  -7.267 -22.964  0.00  0.00    -0.301 N 
ATOM      2  N   UNL     1      30.765  -4.331 -21.909  0.00  0.00    -0.248 NA
ATOM      3  N   UNL     1      31.668  -6.550 -21.652  0.00  0.00    -0.233 NA
ATOM      4  C   UNL     1      33.565  -3.483 -24.878  0.00  0.00    +0.048 C 
ATOM      5  C   UNL     1      32.618  -5.022 -23.265  0.00  0.00    +0.117 C 
ATOM      6  C   UNL     1      33.562  -4.732 -24.267  0.00  0.00    +0.001 C 
ATOM      7  C   UNL     1      31.671  -4.065 -22.866  0.00  0.00    +0.067 C 
ATOM      8  C   UNL     1      32.561  -6.251 -22.614  0.00  0.00    +0.115 C 
ATOM      9  C   UNL     1      32.632  -2.527 -24.492  0.00  0.00    +0.016 C 
ATOM     10  C   UNL     1      31.697  -2.823 -23.496  0.00  0.00    +0.016 C 
ATOM     11  C   UNL     1      30.813  -5.559 -21.354  0.00  0.00    +0.251 C 
ATOM     12  H   UNL     1      34.354  -6.923 -23.275  0.00  0.00    +0.153 HD
ENDROOT
BRANCH   4  15
ATOM     13  O   UNL     1      35.496  -3.033 -27.936  0.00  0.00    -0.448 OA
ATOM     14  N   UNL     1      33.416  -3.974 -27.862  0.00  0.00    -0.222 NA
ATOM     15  N   UNL     1      34.507  -3.187 -25.883  0.00  0.00    -0.269 N 
ATOM     16  C   UNL     1      33.821  -3.886 -29.274  0.00  0.00    +0.151 C 
ATOM     17  C   UNL     1      35.306  -3.598 -29.226  0.00  0.00    +0.233 C 
ATOM     18  C   UNL     1      34.402  -3.424 -27.220  0.00  0.00    +0.284 C 
ATOM     19  C   UNL     1      33.484  -5.174 -30.000  0.00  0.00    +0.030 C 
ATOM     20  H   UNL     1      35.341  -2.757 -25.583  0.00  0.00    +0.157 HD
ENDBRANCH   4  15
BRANCH   1  22
ATOM     21 CL   UNL     1      31.207 -11.456 -21.114  0.00  0.00    -0.079 Cl
ATOM     22  C   UNL     1      33.402  -8.668 -22.951  0.00  0.00    +0.050 C 
ATOM     23  C   UNL     1      32.462  -9.303 -22.140  0.00  0.00    +0.029 C 
ATOM     24  C   UNL     1      34.258  -9.425 -23.750  0.00  0.00    +0.018 C 
ATOM     25  C   UNL     1      33.236 -11.453 -22.927  0.00  0.00    +0.150 C 
ATOM     26  C   UNL     1      32.378 -10.696 -22.128  0.00  0.00    +0.093 C 
ATOM     27  C   UNL     1      34.175 -10.817 -23.738  0.00  0.00    +0.039 C 
BRANCH  25  28
ATOM     28  O   UNL     1      33.177 -12.815 -22.935  0.00  0.00    -0.468 OA
BRANCH  28  29
ATOM     29  C   UNL     1      34.178 -13.509 -22.193  0.00  0.00    +0.257 C 
BRANCH  29  32
ATOM     30  S   UNL     1      33.878 -15.118 -24.434  0.00  0.00    -0.067 S 
ATOM     31  N   UNL     1      35.021 -15.855 -22.236  0.00  0.00    -0.237 NA
ATOM     32  C   UNL     1      34.417 -14.848 -22.828  0.00  0.00    +0.132 C 
ATOM     33  C   UNL     1      34.499 -16.714 -24.348  0.00  0.00    +0.057 C 
ATOM     34  C   UNL     1      35.066 -16.924 -23.109  0.00  0.00    +0.106 C 
ENDBRANCH  29  32
ENDBRANCH  28  29
ENDBRANCH  25  28
ENDBRANCH   1  22
TORSDOF 5
ENDMDL
MODEL 9
REMARK VINA RESULT:      -9.9      8.952     17.113
REMARK  Name = 42642648
REMARK  5 active torsions:
REMARK  status: ('A' for Active; 'I' for Inactive)
REMARK    1  A    between atoms: N_1  and  C_22
REMARK    2  A    between atoms: C_4  and  N_15
REMARK    3  A    between atoms: C_25  and  O_28
REMARK    4  A    between atoms: O_28  and  C_29
REMARK    5  A    between atoms: C_29  and  C_32
REMARK                            x       y       z     vdW  Elec       q    Type
REMARK                         _______ _______ _______ _____ _____    ______ ____
ROOT
ATOM      1  N   UNL     1      33.616  -9.010 -23.101  0.00  0.00    -0.301 N 
ATOM      2  N   UNL     1      31.779  -6.992 -19.988  0.00  0.00    -0.248 NA
ATOM      3  N   UNL     1      32.821  -8.971 -20.886  0.00  0.00    -0.233 NA
ATOM      4  C   UNL     1      32.329  -5.001 -23.609  0.00  0.00    +0.048 C 
ATOM      5  C   UNL     1      32.577  -6.991 -22.250  0.00  0.00    +0.117 C 
ATOM      6  C   UNL     1      32.761  -6.316 -23.470  0.00  0.00    +0.001 C 
ATOM      7  C   UNL     1      31.960  -6.356 -21.159  0.00  0.00    +0.067 C 
ATOM      8  C   UNL     1      32.985  -8.305 -22.045  0.00  0.00    +0.115 C 
ATOM      9  C   UNL     1      31.716  -4.363 -22.537  0.00  0.00    +0.016 C 
ATOM     10  C   UNL     1      31.536  -5.040 -21.328  0.00  0.00    +0.016 C 
ATOM     11  C   UNL     1      32.219  -8.265 -19.915  0.00  0.00    +0.251 C 
ATOM     12  H   UNL     1      34.127  -8.434 -23.713  0.00  0.00    +0.153 HD
ENDROOT
BRANCH   4  15
ATOM     13  O   UNL     1      32.156  -2.892 -26.576  0.00  0.00    -0.448 OA
ATOM     14  N   UNL     1      30.630  -2.840 -24.878  0.00  0.00    -0.222 NA
ATOM     15  N   UNL     1      32.510  -4.319 -24.829  0.00  0.00    -0.269 N 
ATOM     16  C   UNL     1      30.269  -1.787 -25.840  0.00  0.00    +0.151 C 
ATOM     17  C   UNL     1      31.082  -2.108 -27.076  0.00  0.00    +0.233 C 
ATOM     18  C   UNL     1      31.720  -3.349 -25.367  0.00  0.00    +0.284 C 
ATOM     19  C   UNL     1      28.773  -1.791 -26.090  0.00  0.00    +0.030 C 
ATOM     20  H   UNL     1      33.302  -4.575 -25.356  0.00  0.00    +0.157 HD
ENDBRANCH   4  15
BRANCH   1  22
ATOM     21 CL   UNL     1      33.717 -12.558 -26.784  0.00  0.00    -0.079 Cl
ATOM     22  C   UNL     1      33.652 -10.372 -23.441  0.00  0.00    +0.050 C 
ATOM     23  C   UNL     1      33.665 -10.757 -24.781  0.00  0.00    +0.029 C 
ATOM     24  C   UNL     1      33.675 -11.340 -22.437  0.00  0.00    +0.018 C 
ATOM     25  C   UNL     1      33.725 -13.079 -24.114  0.00  0.00    +0.150 C 
ATOM     26  C   UNL     1      33.702 -12.110 -25.118  0.00  0.00    +0.093 C 
ATOM     27  C   UNL     1      33.711 -12.693 -22.774  0.00  0.00    +0.039 C 
BRANCH  25  28
ATOM     28  O   UNL     1      33.760 -14.408 -24.414  0.00  0.00    -0.468 OA
BRANCH  28  29
ATOM     29  C   UNL     1      34.872 -15.153 -23.920  0.00  0.00    +0.257 C 
BRANCH  29  32
ATOM     30  S   UNL     1      35.096 -17.598 -22.627  0.00  0.00    -0.067 S 
ATOM     31  N   UNL     1      33.780 -17.206 -24.816  0.00  0.00    -0.237 NA
ATOM     32  C   UNL     1      34.517 -16.611 -23.905  0.00  0.00    +0.132 C 
ATOM     33  C   UNL     1      34.301 -18.941 -23.337  0.00  0.00    +0.057 C 
ATOM     34  C   UNL     1      33.658 -18.542 -24.489  0.00  0.00    +0.106 C 
ENDBRANCH  29  32
ENDBRANCH  28  29
ENDBRANCH  25  28
ENDBRANCH   1  22
TORSDOF 5
ENDMDL
