MODEL 1
REMARK VINA RESULT:     -11.2      0.000      0.000
REMARK  Name = 10050566
REMARK  9 active torsions:
REMARK  status: ('A' for Active; 'I' for Inactive)
REMARK    1  A    between atoms: C_2  and  N_11
REMARK    2  A    between atoms: C_3  and  O_22
REMARK    3  A    between atoms: C_12  and  C_14
REMARK    4  A    between atoms: C_19  and  O_20
REMARK    5  A    between atoms: O_22  and  C_24
REMARK    6  A    between atoms: C_24  and  C_25
REMARK    7  A    between atoms: C_30  and  C_32
REMARK    8  A    between atoms: C_32  and  C_33
REMARK    9  A    between atoms: C_34  and  O_39
REMARK                            x       y       z     vdW  Elec       q    Type
REMARK                         _______ _______ _______ _____ _____    ______ ____
ROOT
ATOM      1  N   UNL     1      31.929 -21.983 -13.804  0.00  0.00    +0.385 N 
ATOM      2  C   UNL     1      33.712 -23.541 -14.612  0.00  0.00    +0.091 C 
ATOM      3  C   UNL     1      32.945 -23.956 -15.880  0.00  0.00    +0.185 C 
ATOM      4  C   UNL     1      31.482 -24.372 -15.687  0.00  0.00    +0.043 C 
ATOM      5  C   UNL     1      32.869 -23.041 -13.435  0.00  0.00    -0.058 C 
ATOM      6  C   UNL     1      30.497 -23.222 -15.460  0.00  0.00    -0.020 C 
ATOM      7  C   UNL     1      30.605 -22.527 -14.108  0.00  0.00    -0.082 C 
ATOM      8  H   UNL     1      32.284 -21.496 -14.627  0.00  0.00    -0.084 HD
ATOM      9  H   UNL     1      31.839 -21.344 -13.015  0.00  0.00    -0.084 HD
ENDROOT
BRANCH   2  11
ATOM     10  O   UNL     1      36.467 -23.995 -15.273  0.00  0.00    -0.270 OA
ATOM     11  N   UNL     1      34.540 -24.642 -14.159  0.00  0.00    -0.301 N 
ATOM     12  C   UNL     1      35.863 -24.770 -14.537  0.00  0.00    +0.246 C 
ATOM     13  H   UNL     1      34.147 -25.321 -13.564  0.00  0.00    +0.150 HD
BRANCH  12  14
ATOM     14  C   UNL     1      36.567 -25.968 -14.010  0.00  0.00    +0.054 C 
ATOM     15  C   UNL     1      36.924 -25.997 -12.677  0.00  0.00    +0.008 C 
ATOM     16  C   UNL     1      36.842 -27.012 -14.868  0.00  0.00    +0.008 C 
ATOM     17  C   UNL     1      37.585 -27.121 -12.181  0.00  0.00    +0.037 C 
ATOM     18  C   UNL     1      37.502 -28.136 -14.372  0.00  0.00    +0.037 C 
ATOM     19  C   UNL     1      37.874 -28.190 -13.028  0.00  0.00    +0.134 C 
BRANCH  19  20
ATOM     20  O   UNL     1      38.516 -29.288 -12.545  0.00  0.00    -0.506 OA
ATOM     21  H   UNL     1      38.085 -30.120 -12.544  0.00  0.00    +0.292 HD
ENDBRANCH  19  20
ENDBRANCH  12  14
ENDBRANCH   2  11
BRANCH   3  22
ATOM     22  O   UNL     1      33.031 -22.908 -16.851  0.00  0.00    -0.448 OA
BRANCH  22  24
ATOM     23  O   UNL     1      33.451 -24.407 -18.546  0.00  0.00    -0.245 OA
ATOM     24  C   UNL     1      33.477 -23.280 -18.076  0.00  0.00    +0.341 C 
BRANCH  24  25
ATOM     25  C   UNL     1      34.024 -22.108 -18.804  0.00  0.00    +0.076 C 
ATOM     26  C   UNL     1      33.149 -21.246 -19.433  0.00  0.00    +0.007 C 
ATOM     27  C   UNL     1      35.390 -21.916 -18.830  0.00  0.00    +0.007 C 
ATOM     28  C   UNL     1      33.663 -20.144 -20.118  0.00  0.00    +0.003 C 
ATOM     29  C   UNL     1      35.905 -20.815 -19.514  0.00  0.00    +0.003 C 
ATOM     30  C   UNL     1      35.041 -19.928 -20.159  0.00  0.00    +0.039 C 
BRANCH  30  32
ATOM     31  O   UNL     1      36.501 -18.115 -20.382  0.00  0.00    -0.286 OA
ATOM     32  C   UNL     1      35.576 -18.781 -20.872  0.00  0.00    +0.198 C 
BRANCH  32  33
ATOM     33  C   UNL     1      35.053 -18.351 -22.204  0.00  0.00    +0.073 C 
ATOM     34  C   UNL     1      34.945 -17.009 -22.490  0.00  0.00    +0.137 C 
ATOM     35  C   UNL     1      34.697 -19.333 -23.101  0.00  0.00    +0.006 C 
ATOM     36  C   UNL     1      34.454 -16.629 -23.738  0.00  0.00    +0.037 C 
ATOM     37  C   UNL     1      34.207 -18.954 -24.350  0.00  0.00    +0.000 C 
ATOM     38  C   UNL     1      34.085 -17.601 -24.668  0.00  0.00    +0.003 C 
BRANCH  34  39
ATOM     39  O   UNL     1      35.300 -16.045 -21.595  0.00  0.00    -0.505 OA
ATOM     40  H   UNL     1      34.732 -15.838 -20.878  0.00  0.00    +0.292 HD
ENDBRANCH  34  39
ENDBRANCH  32  33
ENDBRANCH  30  32
ENDBRANCH  24  25
ENDBRANCH  22  24
ENDBRANCH   3  22
TORSDOF 9
ENDMDL
MODEL 2
REMARK VINA RESULT:     -11.2      2.243      9.310
REMARK  Name = 10050566
REMARK  9 active torsions:
REMARK  status: ('A' for Active; 'I' for Inactive)
REMARK    1  A    between atoms: C_2  and  N_11
REMARK    2  A    between atoms: C_3  and  O_22
REMARK    3  A    between atoms: C_12  and  C_14
REMARK    4  A    between atoms: C_19  and  O_20
REMARK    5  A    between atoms: O_22  and  C_24
REMARK    6  A    between atoms: C_24  and  C_25
REMARK    7  A    between atoms: C_30  and  C_32
REMARK    8  A    between atoms: C_32  and  C_33
REMARK    9  A    between atoms: C_34  and  O_39
REMARK                            x       y       z     vdW  Elec       q    Type
REMARK                         _______ _______ _______ _____ _____    ______ ____
ROOT
ATOM      1  N   UNL     1      30.190 -24.568 -15.502  0.00  0.00    +0.385 N 
ATOM      2  C   UNL     1      32.360 -23.491 -16.127  0.00  0.00    +0.091 C 
ATOM      3  C   UNL     1      32.731 -23.118 -14.681  0.00  0.00    +0.185 C 
ATOM      4  C   UNL     1      31.645 -22.418 -13.856  0.00  0.00    +0.043 C 
ATOM      5  C   UNL     1      30.867 -23.661 -16.429  0.00  0.00    -0.058 C 
ATOM      6  C   UNL     1      30.525 -23.324 -13.342  0.00  0.00    -0.020 C 
ATOM      7  C   UNL     1      29.558 -23.837 -14.404  0.00  0.00    -0.082 C 
ATOM      8  H   UNL     1      30.874 -25.220 -15.117  0.00  0.00    -0.084 HD
ATOM      9  H   UNL     1      29.463 -25.066 -16.016  0.00  0.00    -0.084 HD
ENDROOT
BRANCH   2  11
ATOM     10  O   UNL     1      33.645 -24.023 -18.637  0.00  0.00    -0.270 OA
ATOM     11  N   UNL     1      32.912 -22.509 -17.042  0.00  0.00    -0.301 N 
ATOM     12  C   UNL     1      33.513 -22.871 -18.232  0.00  0.00    +0.246 C 
ATOM     13  H   UNL     1      32.856 -21.555 -16.807  0.00  0.00    +0.150 HD
BRANCH  12  14
ATOM     14  C   UNL     1      34.052 -21.750 -19.045  0.00  0.00    +0.054 C 
ATOM     15  C   UNL     1      33.169 -20.932 -19.719  0.00  0.00    +0.008 C 
ATOM     16  C   UNL     1      35.417 -21.562 -19.100  0.00  0.00    +0.008 C 
ATOM     17  C   UNL     1      33.674 -19.879 -20.482  0.00  0.00    +0.037 C 
ATOM     18  C   UNL     1      35.922 -20.509 -19.862  0.00  0.00    +0.037 C 
ATOM     19  C   UNL     1      35.050 -19.667 -20.553  0.00  0.00    +0.134 C 
BRANCH  19  20
ATOM     20  O   UNL     1      35.543 -18.639 -21.295  0.00  0.00    -0.506 OA
ATOM     21  H   UNL     1      35.403 -17.754 -21.020  0.00  0.00    +0.292 HD
ENDBRANCH  19  20
ENDBRANCH  12  14
ENDBRANCH   2  11
BRANCH   3  22
ATOM     22  O   UNL     1      33.189 -24.287 -13.994  0.00  0.00    -0.448 OA
BRANCH  22  24
ATOM     23  O   UNL     1      33.577 -23.510 -11.862  0.00  0.00    -0.245 OA
ATOM     24  C   UNL     1      33.943 -24.059 -12.889  0.00  0.00    +0.341 C 
BRANCH  24  25
ATOM     25  C   UNL     1      35.320 -24.576 -13.090  0.00  0.00    +0.076 C 
ATOM     26  C   UNL     1      36.202 -24.552 -12.028  0.00  0.00    +0.007 C 
ATOM     27  C   UNL     1      35.677 -25.064 -14.330  0.00  0.00    +0.007 C 
ATOM     28  C   UNL     1      37.497 -25.036 -12.217  0.00  0.00    +0.003 C 
ATOM     29  C   UNL     1      36.970 -25.549 -14.519  0.00  0.00    +0.003 C 
ATOM     30  C   UNL     1      37.882 -25.535 -13.461  0.00  0.00    +0.039 C 
BRANCH  30  32
ATOM     31  O   UNL     1      40.210 -25.343 -13.353  0.00  0.00    -0.286 OA
ATOM     32  C   UNL     1      39.230 -26.040 -13.657  0.00  0.00    +0.198 C 
BRANCH  32  33
ATOM     33  C   UNL     1      39.503 -27.395 -14.226  0.00  0.00    +0.073 C 
ATOM     34  C   UNL     1      40.131 -27.506 -15.445  0.00  0.00    +0.137 C 
ATOM     35  C   UNL     1      39.108 -28.490 -13.490  0.00  0.00    +0.006 C 
ATOM     36  C   UNL     1      40.376 -28.779 -15.957  0.00  0.00    +0.037 C 
ATOM     37  C   UNL     1      39.354 -29.764 -14.002  0.00  0.00    +0.000 C 
ATOM     38  C   UNL     1      39.987 -29.908 -15.236  0.00  0.00    +0.003 C 
BRANCH  34  39
ATOM     39  O   UNL     1      40.518 -26.416 -16.165  0.00  0.00    -0.505 OA
ATOM     40  H   UNL     1      41.095 -26.517 -16.897  0.00  0.00    +0.292 HD
ENDBRANCH  34  39
ENDBRANCH  32  33
ENDBRANCH  30  32
ENDBRANCH  24  25
ENDBRANCH  22  24
ENDBRANCH   3  22
TORSDOF 9
ENDMDL
MODEL 3
REMARK VINA RESULT:     -10.8      7.806     15.343
REMARK  Name = 10050566
REMARK  9 active torsions:
REMARK  status: ('A' for Active; 'I' for Inactive)
REMARK    1  A    between atoms: C_2  and  N_11
REMARK    2  A    between atoms: C_3  and  O_22
REMARK    3  A    between atoms: C_12  and  C_14
REMARK    4  A    between atoms: C_19  and  O_20
REMARK    5  A    between atoms: O_22  and  C_24
REMARK    6  A    between atoms: C_24  and  C_25
REMARK    7  A    between atoms: C_30  and  C_32
REMARK    8  A    between atoms: C_32  and  C_33
REMARK    9  A    between atoms: C_34  and  O_39
REMARK                            x       y       z     vdW  Elec       q    Type
REMARK                         _______ _______ _______ _____ _____    ______ ____
ROOT
ATOM      1  N   UNL     1      36.013 -10.223 -25.508  0.00  0.00    +0.385 N 
ATOM      2  C   UNL     1      34.403  -9.478 -23.744  0.00  0.00    +0.091 C 
ATOM      3  C   UNL     1      33.535 -10.746 -23.828  0.00  0.00    +0.185 C 
ATOM      4  C   UNL     1      33.107 -11.187 -25.233  0.00  0.00    +0.043 C 
ATOM      5  C   UNL     1      35.208  -9.114 -24.996  0.00  0.00    -0.058 C 
ATOM      6  C   UNL     1      34.194 -11.868 -26.067  0.00  0.00    -0.020 C 
ATOM      7  C   UNL     1      35.308 -10.953 -26.562  0.00  0.00    -0.082 C 
ATOM      8  H   UNL     1      36.220 -10.864 -24.742  0.00  0.00    -0.084 HD
ATOM      9  H   UNL     1      36.872  -9.840 -25.903  0.00  0.00    -0.084 HD
ENDROOT
BRANCH   2  11
ATOM     10  O   UNL     1      35.291  -7.044 -22.511  0.00  0.00    -0.270 OA
ATOM     11  N   UNL     1      33.577  -8.343 -23.374  0.00  0.00    -0.301 N 
ATOM     12  C   UNL     1      34.106  -7.212 -22.782  0.00  0.00    +0.246 C 
ATOM     13  H   UNL     1      32.609  -8.381 -23.551  0.00  0.00    +0.150 HD
BRANCH  12  14
ATOM     14  C   UNL     1      33.124  -6.150 -22.440  0.00  0.00    +0.054 C 
ATOM     15  C   UNL     1      32.372  -6.284 -21.291  0.00  0.00    +0.008 C 
ATOM     16  C   UNL     1      32.995  -5.065 -23.282  0.00  0.00    +0.008 C 
ATOM     17  C   UNL     1      31.451  -5.288 -20.969  0.00  0.00    +0.037 C 
ATOM     18  C   UNL     1      32.074  -4.068 -22.960  0.00  0.00    +0.037 C 
ATOM     19  C   UNL     1      31.302  -4.180 -21.803  0.00  0.00    +0.134 C 
BRANCH  19  20
ATOM     20  O   UNL     1      30.405  -3.206 -21.488  0.00  0.00    -0.506 OA
ATOM     21  H   UNL     1      30.692  -2.320 -21.389  0.00  0.00    +0.292 HD
ENDBRANCH  19  20
ENDBRANCH  12  14
ENDBRANCH   2  11
BRANCH   3  22
ATOM     22  O   UNL     1      34.201 -11.821 -23.160  0.00  0.00    -0.448 OA
BRANCH  22  24
ATOM     23  O   UNL     1      32.424 -12.338 -21.792  0.00  0.00    -0.245 OA
ATOM     24  C   UNL     1      33.400 -12.657 -22.453  0.00  0.00    +0.341 C 
BRANCH  24  25
ATOM     25  C   UNL     1      33.873 -14.058 -22.584  0.00  0.00    +0.076 C 
ATOM     26  C   UNL     1      33.742 -14.695 -23.801  0.00  0.00    +0.007 C 
ATOM     27  C   UNL     1      34.428 -14.680 -21.484  0.00  0.00    +0.007 C 
ATOM     28  C   UNL     1      34.186 -16.012 -23.923  0.00  0.00    +0.003 C 
ATOM     29  C   UNL     1      34.871 -15.996 -21.606  0.00  0.00    +0.003 C 
ATOM     30  C   UNL     1      34.751 -16.663 -22.827  0.00  0.00    +0.039 C 
BRANCH  30  32
ATOM     31  O   UNL     1      35.424 -18.523 -24.074  0.00  0.00    -0.286 OA
ATOM     32  C   UNL     1      35.213 -18.035 -22.954  0.00  0.00    +0.198 C 
BRANCH  32  33
ATOM     33  C   UNL     1      35.451 -18.913 -21.768  0.00  0.00    +0.073 C 
ATOM     34  C   UNL     1      36.720 -19.022 -21.248  0.00  0.00    +0.137 C 
ATOM     35  C   UNL     1      34.370 -19.583 -21.239  0.00  0.00    +0.006 C 
ATOM     36  C   UNL     1      36.921 -19.846 -20.142  0.00  0.00    +0.037 C 
ATOM     37  C   UNL     1      34.571 -20.407 -20.132  0.00  0.00    +0.000 C 
ATOM     38  C   UNL     1      35.846 -20.539 -19.584  0.00  0.00    +0.003 C 
BRANCH  34  39
ATOM     39  O   UNL     1      37.783 -18.354 -21.780  0.00  0.00    -0.505 OA
ATOM     40  H   UNL     1      37.844 -18.232 -22.707  0.00  0.00    +0.292 HD
ENDBRANCH  34  39
ENDBRANCH  32  33
ENDBRANCH  30  32
ENDBRANCH  24  25
ENDBRANCH  22  24
ENDBRANCH   3  22
TORSDOF 9
ENDMDL
MODEL 4
REMARK VINA RESULT:     -10.5      2.243      5.599
REMARK  Name = 10050566
REMARK  9 active torsions:
REMARK  status: ('A' for Active; 'I' for Inactive)
REMARK    1  A    between atoms: C_2  and  N_11
REMARK    2  A    between atoms: C_3  and  O_22
REMARK    3  A    between atoms: C_12  and  C_14
REMARK    4  A    between atoms: C_19  and  O_20
REMARK    5  A    between atoms: O_22  and  C_24
REMARK    6  A    between atoms: C_24  and  C_25
REMARK    7  A    between atoms: C_30  and  C_32
REMARK    8  A    between atoms: C_32  and  C_33
REMARK    9  A    between atoms: C_34  and  O_39
REMARK                            x       y       z     vdW  Elec       q    Type
REMARK                         _______ _______ _______ _____ _____    ______ ____
ROOT
ATOM      1  N   UNL     1      34.974 -25.148 -14.043  0.00  0.00    +0.385 N 
ATOM      2  C   UNL     1      33.058 -24.134 -15.292  0.00  0.00    +0.091 C 
ATOM      3  C   UNL     1      33.835 -22.871 -15.703  0.00  0.00    +0.185 C 
ATOM      4  C   UNL     1      34.597 -22.146 -14.588  0.00  0.00    +0.043 C 
ATOM      5  C   UNL     1      33.541 -24.856 -14.030  0.00  0.00    -0.058 C 
ATOM      6  C   UNL     1      35.901 -22.812 -14.143  0.00  0.00    -0.020 C 
ATOM      7  C   UNL     1      35.738 -24.107 -13.355  0.00  0.00    -0.082 C 
ATOM      8  H   UNL     1      35.291 -25.208 -15.011  0.00  0.00    -0.084 HD
ATOM      9  H   UNL     1      35.125 -26.031 -13.556  0.00  0.00    -0.084 HD
ENDROOT
BRANCH   2  11
ATOM     10  O   UNL     1      31.413 -22.707 -17.160  0.00  0.00    -0.270 OA
ATOM     11  N   UNL     1      31.651 -23.814 -15.138  0.00  0.00    -0.301 N 
ATOM     12  C   UNL     1      30.946 -23.119 -16.101  0.00  0.00    +0.246 C 
ATOM     13  H   UNL     1      31.184 -24.101 -14.320  0.00  0.00    +0.150 HD
BRANCH  12  14
ATOM     14  C   UNL     1      29.521 -22.846 -15.781  0.00  0.00    +0.054 C 
ATOM     15  C   UNL     1      28.577 -22.985 -16.777  0.00  0.00    +0.008 C 
ATOM     16  C   UNL     1      29.187 -22.463 -14.499  0.00  0.00    +0.008 C 
ATOM     17  C   UNL     1      27.239 -22.729 -16.478  0.00  0.00    +0.037 C 
ATOM     18  C   UNL     1      27.849 -22.209 -14.198  0.00  0.00    +0.037 C 
ATOM     19  C   UNL     1      26.875 -22.342 -15.188  0.00  0.00    +0.134 C 
BRANCH  19  20
ATOM     20  O   UNL     1      25.569 -22.095 -14.895  0.00  0.00    -0.506 OA
ATOM     21  H   UNL     1      25.217 -21.234 -15.014  0.00  0.00    +0.292 HD
ENDBRANCH  19  20
ENDBRANCH  12  14
ENDBRANCH   2  11
BRANCH   3  22
ATOM     22  O   UNL     1      34.727 -23.191 -16.775  0.00  0.00    -0.448 OA
BRANCH  22  24
ATOM     23  O   UNL     1      33.427 -24.090 -18.448  0.00  0.00    -0.245 OA
ATOM     24  C   UNL     1      34.169 -23.225 -18.011  0.00  0.00    +0.341 C 
BRANCH  24  25
ATOM     25  C   UNL     1      34.588 -22.038 -18.798  0.00  0.00    +0.076 C 
ATOM     26  C   UNL     1      35.926 -21.700 -18.833  0.00  0.00    +0.007 C 
ATOM     27  C   UNL     1      33.628 -21.309 -19.469  0.00  0.00    +0.007 C 
ATOM     28  C   UNL     1      36.319 -20.584 -19.572  0.00  0.00    +0.003 C 
ATOM     29  C   UNL     1      34.021 -20.194 -20.208  0.00  0.00    +0.003 C 
ATOM     30  C   UNL     1      35.368 -19.831 -20.260  0.00  0.00    +0.039 C 
BRANCH  30  32
ATOM     31  O   UNL     1      36.690 -17.936 -20.619  0.00  0.00    -0.286 OA
ATOM     32  C   UNL     1      35.778 -18.668 -21.030  0.00  0.00    +0.198 C 
BRANCH  32  33
ATOM     33  C   UNL     1      35.135 -18.300 -22.328  0.00  0.00    +0.073 C 
ATOM     34  C   UNL     1      34.940 -16.974 -22.637  0.00  0.00    +0.137 C 
ATOM     35  C   UNL     1      34.763 -19.323 -23.171  0.00  0.00    +0.006 C 
ATOM     36  C   UNL     1      34.339 -16.652 -23.853  0.00  0.00    +0.037 C 
ATOM     37  C   UNL     1      34.162 -19.002 -24.388  0.00  0.00    +0.000 C 
ATOM     38  C   UNL     1      33.950 -17.666 -24.729  0.00  0.00    +0.003 C 
BRANCH  34  39
ATOM     39  O   UNL     1      35.312 -15.969 -21.795  0.00  0.00    -0.505 OA
ATOM     40  H   UNL     1      34.807 -15.180 -21.753  0.00  0.00    +0.292 HD
ENDBRANCH  34  39
ENDBRANCH  32  33
ENDBRANCH  30  32
ENDBRANCH  24  25
ENDBRANCH  22  24
ENDBRANCH   3  22
TORSDOF 9
ENDMDL
MODEL 5
REMARK VINA RESULT:     -10.2      1.632      2.209
REMARK  Name = 10050566
REMARK  9 active torsions:
REMARK  status: ('A' for Active; 'I' for Inactive)
REMARK    1  A    between atoms: C_2  and  N_11
REMARK    2  A    between atoms: C_3  and  O_22
REMARK    3  A    between atoms: C_12  and  C_14
REMARK    4  A    between atoms: C_19  and  O_20
REMARK    5  A    between atoms: O_22  and  C_24
REMARK    6  A    between atoms: C_24  and  C_25
REMARK    7  A    between atoms: C_30  and  C_32
REMARK    8  A    between atoms: C_32  and  C_33
REMARK    9  A    between atoms: C_34  and  O_39
REMARK                            x       y       z     vdW  Elec       q    Type
REMARK                         _______ _______ _______ _____ _____    ______ ____
ROOT
ATOM      1  N   UNL     1      32.677 -22.335 -14.260  0.00  0.00    +0.385 N 
ATOM      2  C   UNL     1      34.730 -23.446 -15.159  0.00  0.00    +0.091 C 
ATOM      3  C   UNL     1      34.256 -23.411 -16.623  0.00  0.00    +0.185 C 
ATOM      4  C   UNL     1      32.834 -23.915 -16.892  0.00  0.00    +0.043 C 
ATOM      5  C   UNL     1      33.638 -23.423 -14.084  0.00  0.00    -0.058 C 
ATOM      6  C   UNL     1      31.711 -22.954 -16.498  0.00  0.00    -0.020 C 
ATOM      7  C   UNL     1      31.495 -22.778 -14.999  0.00  0.00    -0.082 C 
ATOM      8  H   UNL     1      33.125 -21.576 -14.775  0.00  0.00    -0.084 HD
ATOM      9  H   UNL     1      32.379 -22.019 -13.337  0.00  0.00    -0.084 HD
ENDROOT
BRANCH   2  11
ATOM     10  O   UNL     1      37.450 -23.447 -14.245  0.00  0.00    -0.270 OA
ATOM     11  N   UNL     1      35.571 -24.609 -14.945  0.00  0.00    -0.301 N 
ATOM     12  C   UNL     1      36.875 -24.501 -14.500  0.00  0.00    +0.246 C 
ATOM     13  H   UNL     1      35.201 -25.504 -15.123  0.00  0.00    +0.150 HD
BRANCH  12  14
ATOM     14  C   UNL     1      37.611 -25.784 -14.357  0.00  0.00    +0.054 C 
ATOM     15  C   UNL     1      36.935 -26.967 -14.574  0.00  0.00    +0.008 C 
ATOM     16  C   UNL     1      38.946 -25.752 -14.013  0.00  0.00    +0.008 C 
ATOM     17  C   UNL     1      37.626 -28.171 -14.440  0.00  0.00    +0.037 C 
ATOM     18  C   UNL     1      39.637 -26.956 -13.880  0.00  0.00    +0.037 C 
ATOM     19  C   UNL     1      38.976 -28.166 -14.094  0.00  0.00    +0.134 C 
BRANCH  19  20
ATOM     20  O   UNL     1      39.651 -29.341 -13.965  0.00  0.00    -0.506 OA
ATOM     21  H   UNL     1      39.181 -30.137 -13.812  0.00  0.00    +0.292 HD
ENDBRANCH  19  20
ENDBRANCH  12  14
ENDBRANCH   2  11
BRANCH   3  22
ATOM     22  O   UNL     1      34.410 -22.085 -17.139  0.00  0.00    -0.448 OA
BRANCH  22  24
ATOM     23  O   UNL     1      36.705 -22.130 -17.308  0.00  0.00    -0.245 OA
ATOM     24  C   UNL     1      35.602 -21.822 -17.731  0.00  0.00    +0.341 C 
BRANCH  24  25
ATOM     25  C   UNL     1      35.394 -21.083 -19.001  0.00  0.00    +0.076 C 
ATOM     26  C   UNL     1      34.109 -20.935 -19.484  0.00  0.00    +0.007 C 
ATOM     27  C   UNL     1      36.491 -20.569 -19.661  0.00  0.00    +0.007 C 
ATOM     28  C   UNL     1      33.914 -20.241 -20.679  0.00  0.00    +0.003 C 
ATOM     29  C   UNL     1      36.296 -19.875 -20.856  0.00  0.00    +0.003 C 
ATOM     30  C   UNL     1      35.007 -19.711 -21.365  0.00  0.00    +0.039 C 
BRANCH  30  32
ATOM     31  O   UNL     1      34.692 -19.606 -23.680  0.00  0.00    -0.286 OA
ATOM     32  C   UNL     1      34.803 -18.989 -22.610  0.00  0.00    +0.198 C 
BRANCH  32  33
ATOM     33  C   UNL     1      34.721 -17.498 -22.666  0.00  0.00    +0.073 C 
ATOM     34  C   UNL     1      34.322 -16.883 -23.831  0.00  0.00    +0.137 C 
ATOM     35  C   UNL     1      35.053 -16.795 -21.530  0.00  0.00    +0.006 C 
ATOM     36  C   UNL     1      34.252 -15.492 -23.862  0.00  0.00    +0.037 C 
ATOM     37  C   UNL     1      34.982 -15.402 -21.561  0.00  0.00    +0.000 C 
ATOM     38  C   UNL     1      34.582 -14.751 -22.727  0.00  0.00    +0.003 C 
BRANCH  34  39
ATOM     39  O   UNL     1      33.996 -17.590 -24.950  0.00  0.00    -0.505 OA
ATOM     40  H   UNL     1      34.188 -17.240 -25.798  0.00  0.00    +0.292 HD
ENDBRANCH  34  39
ENDBRANCH  32  33
ENDBRANCH  30  32
ENDBRANCH  24  25
ENDBRANCH  22  24
ENDBRANCH   3  22
TORSDOF 9
ENDMDL
MODEL 6
REMARK VINA RESULT:     -10.1      8.632     13.778
REMARK  Name = 10050566
REMARK  9 active torsions:
REMARK  status: ('A' for Active; 'I' for Inactive)
REMARK    1  A    between atoms: C_2  and  N_11
REMARK    2  A    between atoms: C_3  and  O_22
REMARK    3  A    between atoms: C_12  and  C_14
REMARK    4  A    between atoms: C_19  and  O_20
REMARK    5  A    between atoms: O_22  and  C_24
REMARK    6  A    between atoms: C_24  and  C_25
REMARK    7  A    between atoms: C_30  and  C_32
REMARK    8  A    between atoms: C_32  and  C_33
REMARK    9  A    between atoms: C_34  and  O_39
REMARK                            x       y       z     vdW  Elec       q    Type
REMARK                         _______ _______ _______ _____ _____    ______ ____
ROOT
ATOM      1  N   UNL     1      33.374 -12.249 -25.924  0.00  0.00    +0.385 N 
ATOM      2  C   UNL     1      33.225 -13.535 -23.784  0.00  0.00    +0.091 C 
ATOM      3  C   UNL     1      33.393 -12.297 -22.886  0.00  0.00    +0.185 C 
ATOM      4  C   UNL     1      34.554 -11.357 -23.230  0.00  0.00    +0.043 C 
ATOM      5  C   UNL     1      33.809 -13.441 -25.197  0.00  0.00    -0.058 C 
ATOM      6  C   UNL     1      34.331 -10.454 -24.445  0.00  0.00    -0.020 C 
ATOM      7  C   UNL     1      34.343 -11.160 -25.796  0.00  0.00    -0.082 C 
ATOM      8  H   UNL     1      32.477 -11.940 -25.549  0.00  0.00    -0.084 HD
ATOM      9  H   UNL     1      33.290 -12.489 -26.912  0.00  0.00    -0.084 HD
ENDROOT
BRANCH   2  11
ATOM     10  O   UNL     1      34.004 -16.001 -25.028  0.00  0.00    -0.270 OA
ATOM     11  N   UNL     1      33.787 -14.698 -23.123  0.00  0.00    -0.301 N 
ATOM     12  C   UNL     1      34.131 -15.842 -23.817  0.00  0.00    +0.246 C 
ATOM     13  H   UNL     1      33.928 -14.671 -22.149  0.00  0.00    +0.150 HD
BRANCH  12  14
ATOM     14  C   UNL     1      34.669 -16.955 -22.992  0.00  0.00    +0.054 C 
ATOM     15  C   UNL     1      35.280 -16.657 -21.791  0.00  0.00    +0.008 C 
ATOM     16  C   UNL     1      34.543 -18.249 -23.452  0.00  0.00    +0.008 C 
ATOM     17  C   UNL     1      35.786 -17.700 -21.015  0.00  0.00    +0.037 C 
ATOM     18  C   UNL     1      35.047 -19.292 -22.676  0.00  0.00    +0.037 C 
ATOM     19  C   UNL     1      35.669 -19.018 -21.458  0.00  0.00    +0.134 C 
BRANCH  19  20
ATOM     20  O   UNL     1      36.160 -20.036 -20.701  0.00  0.00    -0.506 OA
ATOM     21  H   UNL     1      36.624 -20.741 -21.109  0.00  0.00    +0.292 HD
ENDBRANCH  19  20
ENDBRANCH  12  14
ENDBRANCH   2  11
BRANCH   3  22
ATOM     22  O   UNL     1      32.164 -11.564 -22.855  0.00  0.00    -0.448 OA
BRANCH  22  24
ATOM     23  O   UNL     1      31.611 -11.470 -20.623  0.00  0.00    -0.245 OA
ATOM     24  C   UNL     1      31.886 -10.935 -21.686  0.00  0.00    +0.341 C 
BRANCH  24  25
ATOM     25  C   UNL     1      31.958  -9.463 -21.862  0.00  0.00    +0.076 C 
ATOM     26  C   UNL     1      31.540  -8.914 -23.058  0.00  0.00    +0.007 C 
ATOM     27  C   UNL     1      32.440  -8.689 -20.827  0.00  0.00    +0.007 C 
ATOM     28  C   UNL     1      31.608  -7.530 -23.224  0.00  0.00    +0.003 C 
ATOM     29  C   UNL     1      32.508  -7.307 -20.992  0.00  0.00    +0.003 C 
ATOM     30  C   UNL     1      32.092  -6.726 -22.191  0.00  0.00    +0.039 C 
BRANCH  30  32
ATOM     31  O   UNL     1      31.756  -4.527 -21.472  0.00  0.00    -0.286 OA
ATOM     32  C   UNL     1      32.163  -5.285 -22.365  0.00  0.00    +0.198 C 
BRANCH  32  33
ATOM     33  C   UNL     1      32.717  -4.653 -23.601  0.00  0.00    +0.073 C 
ATOM     34  C   UNL     1      32.057  -3.591 -24.175  0.00  0.00    +0.137 C 
ATOM     35  C   UNL     1      33.883  -5.171 -24.118  0.00  0.00    +0.006 C 
ATOM     36  C   UNL     1      32.590  -3.016 -25.327  0.00  0.00    +0.037 C 
ATOM     37  C   UNL     1      34.417  -4.596 -25.270  0.00  0.00    +0.000 C 
ATOM     38  C   UNL     1      33.770  -3.519 -25.875  0.00  0.00    +0.003 C 
BRANCH  34  39
ATOM     39  O   UNL     1      30.903  -3.086 -23.654  0.00  0.00    -0.505 OA
ATOM     40  H   UNL     1      30.089  -3.221 -24.099  0.00  0.00    +0.292 HD
ENDBRANCH  34  39
ENDBRANCH  32  33
ENDBRANCH  30  32
ENDBRANCH  24  25
ENDBRANCH  22  24
ENDBRANCH   3  22
TORSDOF 9
ENDMDL
MODEL 7
REMARK VINA RESULT:      -9.6      2.541      8.580
REMARK  Name = 10050566
REMARK  9 active torsions:
REMARK  status: ('A' for Active; 'I' for Inactive)
REMARK    1  A    between atoms: C_2  and  N_11
REMARK    2  A    between atoms: C_3  and  O_22
REMARK    3  A    between atoms: C_12  and  C_14
REMARK    4  A    between atoms: C_19  and  O_20
REMARK    5  A    between atoms: O_22  and  C_24
REMARK    6  A    between atoms: C_24  and  C_25
REMARK    7  A    between atoms: C_30  and  C_32
REMARK    8  A    between atoms: C_32  and  C_33
REMARK    9  A    between atoms: C_34  and  O_39
REMARK                            x       y       z     vdW  Elec       q    Type
REMARK                         _______ _______ _______ _____ _____    ______ ____
ROOT
ATOM      1  N   UNL     1      29.465 -24.724 -15.720  0.00  0.00    +0.385 N 
ATOM      2  C   UNL     1      31.519 -23.302 -15.853  0.00  0.00    +0.091 C 
ATOM      3  C   UNL     1      31.194 -22.500 -14.581  0.00  0.00    +0.185 C 
ATOM      4  C   UNL     1      29.775 -21.929 -14.477  0.00  0.00    +0.043 C 
ATOM      5  C   UNL     1      30.330 -23.929 -16.590  0.00  0.00    -0.058 C 
ATOM      6  C   UNL     1      28.684 -22.942 -14.124  0.00  0.00    -0.020 C 
ATOM      7  C   UNL     1      28.334 -23.937 -15.226  0.00  0.00    -0.082 C 
ATOM      8  H   UNL     1      30.010 -25.057 -14.924  0.00  0.00    -0.084 HD
ATOM      9  H   UNL     1      29.098 -25.507 -16.261  0.00  0.00    -0.084 HD
ENDROOT
BRANCH   2  11
ATOM     10  O   UNL     1      33.430 -24.187 -17.802  0.00  0.00    -0.270 OA
ATOM     11  N   UNL     1      32.256 -22.467 -16.783  0.00  0.00    -0.301 N 
ATOM     12  C   UNL     1      33.159 -22.995 -17.687  0.00  0.00    +0.246 C 
ATOM     13  H   UNL     1      32.109 -21.494 -16.769  0.00  0.00    +0.150 HD
BRANCH  12  14
ATOM     14  C   UNL     1      33.852 -22.005 -18.551  0.00  0.00    +0.054 C 
ATOM     15  C   UNL     1      33.094 -21.152 -19.327  0.00  0.00    +0.008 C 
ATOM     16  C   UNL     1      35.231 -21.970 -18.551  0.00  0.00    +0.008 C 
ATOM     17  C   UNL     1      33.745 -20.223 -20.138  0.00  0.00    +0.037 C 
ATOM     18  C   UNL     1      35.882 -21.040 -19.362  0.00  0.00    +0.037 C 
ATOM     19  C   UNL     1      35.138 -20.167 -20.156  0.00  0.00    +0.134 C 
BRANCH  19  20
ATOM     20  O   UNL     1      35.773 -19.258 -20.946  0.00  0.00    -0.506 OA
ATOM     21  H   UNL     1      35.588 -19.226 -21.864  0.00  0.00    +0.292 HD
ENDBRANCH  19  20
ENDBRANCH  12  14
ENDBRANCH   2  11
BRANCH   3  22
ATOM     22  O   UNL     1      31.484 -23.299 -13.430  0.00  0.00    -0.448 OA
BRANCH  22  24
ATOM     23  O   UNL     1      31.417 -25.532 -13.982  0.00  0.00    -0.245 OA
ATOM     24  C   UNL     1      32.025 -24.516 -13.684  0.00  0.00    +0.341 C 
BRANCH  24  25
ATOM     25  C   UNL     1      33.502 -24.463 -13.547  0.00  0.00    +0.076 C 
ATOM     26  C   UNL     1      34.284 -24.740 -14.650  0.00  0.00    +0.007 C 
ATOM     27  C   UNL     1      34.048 -24.140 -12.322  0.00  0.00    +0.007 C 
ATOM     28  C   UNL     1      35.673 -24.690 -14.522  0.00  0.00    +0.003 C 
ATOM     29  C   UNL     1      35.436 -24.090 -12.193  0.00  0.00    +0.003 C 
ATOM     30  C   UNL     1      36.249 -24.366 -13.294  0.00  0.00    +0.039 C 
BRANCH  30  32
ATOM     31  O   UNL     1      38.239 -23.347 -12.606  0.00  0.00    -0.286 OA
ATOM     32  C   UNL     1      37.696 -24.315 -13.160  0.00  0.00    +0.198 C 
BRANCH  32  33
ATOM     33  C   UNL     1      38.586 -25.400 -13.673  0.00  0.00    +0.073 C 
ATOM     34  C   UNL     1      39.494 -25.120 -14.667  0.00  0.00    +0.137 C 
ATOM     35  C   UNL     1      38.455 -26.652 -13.116  0.00  0.00    +0.006 C 
ATOM     36  C   UNL     1      40.315 -26.146 -15.131  0.00  0.00    +0.037 C 
ATOM     37  C   UNL     1      39.277 -27.679 -13.580  0.00  0.00    +0.000 C 
ATOM     38  C   UNL     1      40.206 -27.426 -14.588  0.00  0.00    +0.003 C 
BRANCH  34  39
ATOM     39  O   UNL     1      39.615 -23.876 -15.211  0.00  0.00    -0.505 OA
ATOM     40  H   UNL     1      38.887 -23.285 -15.199  0.00  0.00    +0.292 HD
ENDBRANCH  34  39
ENDBRANCH  32  33
ENDBRANCH  30  32
ENDBRANCH  24  25
ENDBRANCH  22  24
ENDBRANCH   3  22
TORSDOF 9
ENDMDL
MODEL 8
REMARK VINA RESULT:      -9.5      1.842      2.199
REMARK  Name = 10050566
REMARK  9 active torsions:
REMARK  status: ('A' for Active; 'I' for Inactive)
REMARK    1  A    between atoms: C_2  and  N_11
REMARK    2  A    between atoms: C_3  and  O_22
REMARK    3  A    between atoms: C_12  and  C_14
REMARK    4  A    between atoms: C_19  and  O_20
REMARK    5  A    between atoms: O_22  and  C_24
REMARK    6  A    between atoms: C_24  and  C_25
REMARK    7  A    between atoms: C_30  and  C_32
REMARK    8  A    between atoms: C_32  and  C_33
REMARK    9  A    between atoms: C_34  and  O_39
REMARK                            x       y       z     vdW  Elec       q    Type
REMARK                         _______ _______ _______ _____ _____    ______ ____
ROOT
ATOM      1  N   UNL     1      30.139 -21.836 -14.866  0.00  0.00    +0.385 N 
ATOM      2  C   UNL     1      32.530 -22.552 -14.700  0.00  0.00    +0.091 C 
ATOM      3  C   UNL     1      32.479 -23.440 -15.956  0.00  0.00    +0.185 C 
ATOM      4  C   UNL     1      31.306 -24.422 -16.050  0.00  0.00    +0.043 C 
ATOM      5  C   UNL     1      31.201 -22.308 -13.978  0.00  0.00    -0.058 C 
ATOM      6  C   UNL     1      29.958 -23.801 -16.425  0.00  0.00    -0.020 C 
ATOM      7  C   UNL     1      29.310 -22.942 -15.345  0.00  0.00    -0.082 C 
ATOM      8  H   UNL     1      30.561 -21.366 -15.668  0.00  0.00    -0.084 HD
ATOM      9  H   UNL     1      29.545 -21.194 -14.342  0.00  0.00    -0.084 HD
ENDROOT
BRANCH   2  11
ATOM     10  O   UNL     1      35.387 -22.593 -14.973  0.00  0.00    -0.270 OA
ATOM     11  N   UNL     1      33.482 -23.101 -13.752  0.00  0.00    -0.301 N 
ATOM     12  C   UNL     1      34.845 -23.070 -13.979  0.00  0.00    +0.246 C 
ATOM     13  H   UNL     1      33.146 -23.508 -12.921  0.00  0.00    +0.150 HD
BRANCH  12  14
ATOM     14  C   UNL     1      35.684 -23.697 -12.925  0.00  0.00    +0.054 C 
ATOM     15  C   UNL     1      35.084 -24.103 -11.751  0.00  0.00    +0.008 C 
ATOM     16  C   UNL     1      37.035 -23.854 -13.153  0.00  0.00    +0.008 C 
ATOM     17  C   UNL     1      35.871 -24.692 -10.761  0.00  0.00    +0.037 C 
ATOM     18  C   UNL     1      37.822 -24.443 -12.164  0.00  0.00    +0.037 C 
ATOM     19  C   UNL     1      37.239 -24.862 -10.968  0.00  0.00    +0.134 C 
BRANCH  19  20
ATOM     20  O   UNL     1      38.007 -25.439 -10.003  0.00  0.00    -0.506 OA
ATOM     21  H   UNL     1      38.365 -24.914  -9.314  0.00  0.00    +0.292 HD
ENDBRANCH  19  20
ENDBRANCH  12  14
ENDBRANCH   2  11
BRANCH   3  22
ATOM     22  O   UNL     1      32.518 -22.612 -17.123  0.00  0.00    -0.448 OA
BRANCH  22  24
ATOM     23  O   UNL     1      33.355 -24.257 -18.497  0.00  0.00    -0.245 OA
ATOM     24  C   UNL     1      33.257 -23.089 -18.155  0.00  0.00    +0.341 C 
BRANCH  24  25
ATOM     25  C   UNL     1      33.960 -21.977 -18.843  0.00  0.00    +0.076 C 
ATOM     26  C   UNL     1      33.211 -20.995 -19.460  0.00  0.00    +0.007 C 
ATOM     27  C   UNL     1      35.340 -21.960 -18.845  0.00  0.00    +0.007 C 
ATOM     28  C   UNL     1      33.872 -19.951 -20.107  0.00  0.00    +0.003 C 
ATOM     29  C   UNL     1      36.000 -20.916 -19.492  0.00  0.00    +0.003 C 
ATOM     30  C   UNL     1      35.267 -19.911 -20.124  0.00  0.00    +0.039 C 
BRANCH  30  32
ATOM     31  O   UNL     1      37.080 -18.465 -20.420  0.00  0.00    -0.286 OA
ATOM     32  C   UNL     1      35.955 -18.823 -20.798  0.00  0.00    +0.198 C 
BRANCH  32  33
ATOM     33  C   UNL     1      35.356 -18.093 -21.957  0.00  0.00    +0.073 C 
ATOM     34  C   UNL     1      34.920 -18.801 -23.053  0.00  0.00    +0.137 C 
ATOM     35  C   UNL     1      35.266 -16.722 -21.873  0.00  0.00    +0.006 C 
ATOM     36  C   UNL     1      34.364 -18.101 -24.123  0.00  0.00    +0.037 C 
ATOM     37  C   UNL     1      34.709 -16.022 -22.943  0.00  0.00    +0.000 C 
ATOM     38  C   UNL     1      34.259 -16.711 -24.068  0.00  0.00    +0.003 C 
BRANCH  34  39
ATOM     39  O   UNL     1      35.014 -20.159 -23.125  0.00  0.00    -0.505 OA
ATOM     40  H   UNL     1      35.742 -20.556 -23.562  0.00  0.00    +0.292 HD
ENDBRANCH  34  39
ENDBRANCH  32  33
ENDBRANCH  30  32
ENDBRANCH  24  25
ENDBRANCH  22  24
ENDBRANCH   3  22
TORSDOF 9
ENDMDL
MODEL 9
REMARK VINA RESULT:      -9.4      6.646     14.240
REMARK  Name = 10050566
REMARK  9 active torsions:
REMARK  status: ('A' for Active; 'I' for Inactive)
REMARK    1  A    between atoms: C_2  and  N_11
REMARK    2  A    between atoms: C_3  and  O_22
REMARK    3  A    between atoms: C_12  and  C_14
REMARK    4  A    between atoms: C_19  and  O_20
REMARK    5  A    between atoms: O_22  and  C_24
REMARK    6  A    between atoms: C_24  and  C_25
REMARK    7  A    between atoms: C_30  and  C_32
REMARK    8  A    between atoms: C_32  and  C_33
REMARK    9  A    between atoms: C_34  and  O_39
REMARK                            x       y       z     vdW  Elec       q    Type
REMARK                         _______ _______ _______ _____ _____    ______ ____
ROOT
ATOM      1  N   UNL     1      31.307 -12.326 -20.763  0.00  0.00    +0.385 N 
ATOM      2  C   UNL     1      32.308 -11.255 -22.790  0.00  0.00    +0.091 C 
ATOM      3  C   UNL     1      33.389 -12.334 -22.977  0.00  0.00    +0.185 C 
ATOM      4  C   UNL     1      34.200 -12.710 -21.731  0.00  0.00    +0.043 C 
ATOM      5  C   UNL     1      31.757 -11.075 -21.372  0.00  0.00    -0.058 C 
ATOM      6  C   UNL     1      33.475 -13.602 -20.721  0.00  0.00    -0.020 C 
ATOM      7  C   UNL     1      32.355 -12.926 -19.937  0.00  0.00    -0.082 C 
ATOM      8  H   UNL     1      31.052 -12.982 -21.502  0.00  0.00    -0.084 HD
ATOM      9  H   UNL     1      30.506 -12.123 -20.166  0.00  0.00    -0.084 HD
ENDROOT
BRANCH   2  11
ATOM     10  O   UNL     1      31.212  -8.668 -22.204  0.00  0.00    -0.270 OA
ATOM     11  N   UNL     1      32.805  -9.977 -23.263  0.00  0.00    -0.301 N 
ATOM     12  C   UNL     1      32.202  -8.781 -22.921  0.00  0.00    +0.246 C 
ATOM     13  H   UNL     1      33.598  -9.960 -23.846  0.00  0.00    +0.150 HD
BRANCH  12  14
ATOM     14  C   UNL     1      32.817  -7.562 -23.508  0.00  0.00    +0.054 C 
ATOM     15  C   UNL     1      34.192  -7.459 -23.539  0.00  0.00    +0.008 C 
ATOM     16  C   UNL     1      31.993  -6.573 -24.003  0.00  0.00    +0.008 C 
ATOM     17  C   UNL     1      34.770  -6.316 -24.090  0.00  0.00    +0.037 C 
ATOM     18  C   UNL     1      32.570  -5.429 -24.555  0.00  0.00    +0.037 C 
ATOM     19  C   UNL     1      33.959  -5.301 -24.598  0.00  0.00    +0.134 C 
BRANCH  19  20
ATOM     20  O   UNL     1      34.522  -4.186 -25.138  0.00  0.00    -0.506 OA
ATOM     21  H   UNL     1      34.004  -3.609 -25.665  0.00  0.00    +0.292 HD
ENDBRANCH  19  20
ENDBRANCH  12  14
ENDBRANCH   2  11
BRANCH   3  22
ATOM     22  O   UNL     1      32.797 -13.505 -23.546  0.00  0.00    -0.448 OA
BRANCH  22  24
ATOM     23  O   UNL     1      33.786 -13.845 -25.596  0.00  0.00    -0.245 OA
ATOM     24  C   UNL     1      33.566 -14.174 -24.441  0.00  0.00    +0.341 C 
BRANCH  24  25
ATOM     25  C   UNL     1      34.125 -15.402 -23.823  0.00  0.00    +0.076 C 
ATOM     26  C   UNL     1      33.912 -16.617 -24.443  0.00  0.00    +0.007 C 
ATOM     27  C   UNL     1      34.839 -15.292 -22.647  0.00  0.00    +0.007 C 
ATOM     28  C   UNL     1      34.437 -17.772 -23.861  0.00  0.00    +0.003 C 
ATOM     29  C   UNL     1      35.364 -16.446 -22.066  0.00  0.00    +0.003 C 
ATOM     30  C   UNL     1      35.163 -17.687 -22.673  0.00  0.00    +0.039 C 
BRANCH  30  32
ATOM     31  O   UNL     1      36.847 -19.282 -22.370  0.00  0.00    -0.286 OA
ATOM     32  C   UNL     1      35.710 -18.890 -22.067  0.00  0.00    +0.198 C 
BRANCH  32  33
ATOM     33  C   UNL     1      34.948 -19.701 -21.070  0.00  0.00    +0.073 C 
ATOM     34  C   UNL     1      35.625 -20.351 -20.064  0.00  0.00    +0.137 C 
ATOM     35  C   UNL     1      33.579 -19.761 -21.205  0.00  0.00    +0.006 C 
ATOM     36  C   UNL     1      34.895 -21.102 -19.144  0.00  0.00    +0.037 C 
ATOM     37  C   UNL     1      32.849 -20.512 -20.284  0.00  0.00    +0.000 C 
ATOM     38  C   UNL     1      33.507 -21.183 -19.254  0.00  0.00    +0.003 C 
BRANCH  34  39
ATOM     39  O   UNL     1      36.981 -20.284 -19.940  0.00  0.00    -0.505 OA
ATOM     40  H   UNL     1      37.447 -20.975 -19.511  0.00  0.00    +0.292 HD
ENDBRANCH  34  39
ENDBRANCH  32  33
ENDBRANCH  30  32
ENDBRANCH  24  25
ENDBRANCH  22  24
ENDBRANCH   3  22
TORSDOF 9
ENDMDL
