MODEL 1
REMARK VINA RESULT:     -11.3      0.000      0.000
REMARK  Name = 15602701
REMARK  5 active torsions:
REMARK  status: ('A' for Active; 'I' for Inactive)
REMARK    1  A    between atoms: N_5  and  C_12
REMARK    2  A    between atoms: C_6  and  C_22
REMARK    3  A    between atoms: C_13  and  C_21
REMARK    4  A    between atoms: C_22  and  C_23
REMARK    5  A    between atoms: C_23  and  N_24
REMARK                            x       y       z     vdW  Elec       q    Type
REMARK                         _______ _______ _______ _____ _____    ______ ____
ROOT
ATOM      1  S   UNL     1      34.983 -15.814 -21.997  0.00  0.00    -0.056 S 
ATOM      2  O   UNL     1      33.307 -12.217 -24.408  0.00  0.00    -0.252 OA
ATOM      3  N   UNL     1      34.199 -15.023 -24.330  0.00  0.00    -0.223 NA
ATOM      4  N   UNL     1      34.104 -13.406 -22.546  0.00  0.00    -0.248 N 
ATOM      5  N   UNL     1      33.467 -11.194 -22.313  0.00  0.00    -0.268 N 
ATOM      6  C   UNL     1      35.027 -16.909 -23.293  0.00  0.00    +0.031 C 
ATOM      7  C   UNL     1      34.587 -16.344 -24.444  0.00  0.00    +0.103 C 
ATOM      8  C   UNL     1      34.365 -14.639 -23.085  0.00  0.00    +0.166 C 
ATOM      9  C   UNL     1      33.594 -12.263 -23.217  0.00  0.00    +0.310 C 
ATOM     10  H   UNL     1      34.292 -13.301 -21.584  0.00  0.00    +0.158 HD
ATOM     11  H   UNL     1      33.738 -11.379 -21.385  0.00  0.00    +0.156 HD
ENDROOT
BRANCH   5  12
ATOM     12  C   UNL     1      32.999  -9.884 -22.574  0.00  0.00    +0.052 C 
ATOM     13  C   UNL     1      33.440  -7.613 -23.211  0.00  0.00    +0.073 C 
ATOM     14  C   UNL     1      33.902  -8.905 -22.954  0.00  0.00    +0.019 C 
ATOM     15  C   UNL     1      31.648  -9.609 -22.444  0.00  0.00    +0.015 C 
ATOM     16  C   UNL     1      32.082  -7.320 -23.086  0.00  0.00    +0.004 C 
ATOM     17  C   UNL     1      31.186  -8.318 -22.701  0.00  0.00    +0.001 C 
BRANCH  13  21
ATOM     18  F   UNL     1      34.712  -6.575 -24.952  0.00  0.00    -0.166 F 
ATOM     19  F   UNL     1      33.938  -5.281 -23.392  0.00  0.00    -0.166 F 
ATOM     20  F   UNL     1      35.591  -6.628 -22.964  0.00  0.00    -0.166 F 
ATOM     21  C   UNL     1      34.398  -6.546 -23.623  0.00  0.00    +0.419 C 
ENDBRANCH  13  21
ENDBRANCH   5  12
BRANCH   6  22
ATOM     22  C   UNL     1      35.521 -18.318 -23.062  0.00  0.00    +0.056 C 
BRANCH  22  23
ATOM     23  C   UNL     1      35.934 -18.567 -21.611  0.00  0.00    +0.093 C 
BRANCH  23  24
ATOM     24  N   UNL     1      34.970 -19.381 -20.933  0.00  0.00    -0.320 N 
ATOM     25  N   UNL     1      33.008 -21.187 -19.391  0.00  0.00    -0.220 N 
ATOM     26  N   UNL     1      32.471 -22.080 -18.539  0.00  0.00    -0.178 NA
ATOM     27  N   UNL     1      36.595 -20.390 -19.499  0.00  0.00    -0.232 NA
ATOM     28  N   UNL     1      36.002 -22.057 -17.822  0.00  0.00    -0.245 NA
ATOM     29  C   UNL     1      34.358 -21.045 -19.262  0.00  0.00    +0.185 C 
ATOM     30  C   UNL     1      35.309 -20.270 -19.899  0.00  0.00    +0.128 C 
ATOM     31  C   UNL     1      34.725 -21.913 -18.246  0.00  0.00    +0.103 C 
ATOM     32  C   UNL     1      33.524 -22.521 -17.842  0.00  0.00    +0.134 C 
ATOM     33  C   UNL     1      32.138 -20.500 -20.317  0.00  0.00    +0.135 C 
ATOM     34  C   UNL     1      36.859 -21.264 -18.499  0.00  0.00    +0.251 C 
ATOM     35  H   UNL     1      34.026 -19.314 -21.204  0.00  0.00    +0.148 HD
ENDBRANCH  23  24
ENDBRANCH  22  23
ENDBRANCH   6  22
TORSDOF 5
ENDMDL
MODEL 2
REMARK VINA RESULT:     -11.0      1.439      1.951
REMARK  Name = 15602701
REMARK  5 active torsions:
REMARK  status: ('A' for Active; 'I' for Inactive)
REMARK    1  A    between atoms: N_5  and  C_12
REMARK    2  A    between atoms: C_6  and  C_22
REMARK    3  A    between atoms: C_13  and  C_21
REMARK    4  A    between atoms: C_22  and  C_23
REMARK    5  A    between atoms: C_23  and  N_24
REMARK                            x       y       z     vdW  Elec       q    Type
REMARK                         _______ _______ _______ _____ _____    ______ ____
ROOT
ATOM      1  S   UNL     1      34.934 -15.520 -22.460  0.00  0.00    -0.056 S 
ATOM      2  O   UNL     1      33.508 -11.802 -24.849  0.00  0.00    -0.252 OA
ATOM      3  N   UNL     1      33.890 -14.719 -24.685  0.00  0.00    -0.223 NA
ATOM      4  N   UNL     1      34.409 -13.022 -23.055  0.00  0.00    -0.248 N 
ATOM      5  N   UNL     1      34.226 -10.720 -22.907  0.00  0.00    -0.268 N 
ATOM      6  C   UNL     1      34.547 -16.670 -23.646  0.00  0.00    +0.031 C 
ATOM      7  C   UNL     1      34.011 -16.093 -24.751  0.00  0.00    +0.103 C 
ATOM      8  C   UNL     1      34.345 -14.308 -23.523  0.00  0.00    +0.166 C 
ATOM      9  C   UNL     1      33.995 -11.839 -23.724  0.00  0.00    +0.310 C 
ATOM     10  H   UNL     1      34.784 -12.903 -22.152  0.00  0.00    +0.158 HD
ATOM     11  H   UNL     1      34.624 -10.904 -22.025  0.00  0.00    +0.156 HD
ENDROOT
BRANCH   5  12
ATOM     12  C   UNL     1      33.957  -9.361 -23.194  0.00  0.00    +0.052 C 
ATOM     13  C   UNL     1      32.436  -7.505 -23.201  0.00  0.00    +0.073 C 
ATOM     14  C   UNL     1      32.700  -8.845 -22.918  0.00  0.00    +0.019 C 
ATOM     15  C   UNL     1      34.955  -8.574 -23.744  0.00  0.00    +0.015 C 
ATOM     16  C   UNL     1      33.430  -6.699 -23.755  0.00  0.00    +0.004 C 
ATOM     17  C   UNL     1      34.690  -7.234 -24.027  0.00  0.00    +0.001 C 
BRANCH  13  21
ATOM     18  F   UNL     1      30.991  -6.369 -21.669  0.00  0.00    -0.166 F 
ATOM     19  F   UNL     1      30.715  -5.948 -23.778  0.00  0.00    -0.166 F 
ATOM     20  F   UNL     1      30.097  -7.868 -22.966  0.00  0.00    -0.166 F 
ATOM     21  C   UNL     1      31.089  -6.932 -22.909  0.00  0.00    +0.419 C 
ENDBRANCH  13  21
ENDBRANCH   5  12
BRANCH   6  22
ATOM     22  C   UNL     1      34.819 -18.133 -23.384  0.00  0.00    +0.056 C 
BRANCH  22  23
ATOM     23  C   UNL     1      35.456 -18.377 -22.016  0.00  0.00    +0.093 C 
BRANCH  23  24
ATOM     24  N   UNL     1      34.645 -19.249 -21.218  0.00  0.00    -0.320 N 
ATOM     25  N   UNL     1      33.026 -21.166 -19.432  0.00  0.00    -0.220 N 
ATOM     26  N   UNL     1      32.665 -22.081 -18.512  0.00  0.00    -0.178 NA
ATOM     27  N   UNL     1      36.502 -20.101 -19.977  0.00  0.00    -0.232 NA
ATOM     28  N   UNL     1      36.243 -21.773 -18.222  0.00  0.00    -0.245 NA
ATOM     29  C   UNL     1      34.367 -20.919 -19.467  0.00  0.00    +0.185 C 
ATOM     30  C   UNL     1      35.172 -20.087 -20.222  0.00  0.00    +0.128 C 
ATOM     31  C   UNL     1      34.918 -21.735 -18.492  0.00  0.00    +0.103 C 
ATOM     32  C   UNL     1      33.824 -22.425 -17.940  0.00  0.00    +0.134 C 
ATOM     33  C   UNL     1      32.001 -20.567 -20.255  0.00  0.00    +0.135 C 
ATOM     34  C   UNL     1      36.949 -20.931 -19.006  0.00  0.00    +0.251 C 
ATOM     35  H   UNL     1      33.673 -19.260 -21.376  0.00  0.00    +0.148 HD
ENDBRANCH  23  24
ENDBRANCH  22  23
ENDBRANCH   6  22
TORSDOF 5
ENDMDL
MODEL 3
REMARK VINA RESULT:     -10.9      5.556     11.751
REMARK  Name = 15602701
REMARK  5 active torsions:
REMARK  status: ('A' for Active; 'I' for Inactive)
REMARK    1  A    between atoms: N_5  and  C_12
REMARK    2  A    between atoms: C_6  and  C_22
REMARK    3  A    between atoms: C_13  and  C_21
REMARK    4  A    between atoms: C_22  and  C_23
REMARK    5  A    between atoms: C_23  and  N_24
REMARK                            x       y       z     vdW  Elec       q    Type
REMARK                         _______ _______ _______ _____ _____    ______ ____
ROOT
ATOM      1  S   UNL     1      33.936 -15.042 -24.697  0.00  0.00    -0.056 S 
ATOM      2  O   UNL     1      35.157 -16.642 -20.513  0.00  0.00    -0.252 OA
ATOM      3  N   UNL     1      34.471 -14.371 -22.259  0.00  0.00    -0.223 NA
ATOM      4  N   UNL     1      34.594 -16.717 -22.792  0.00  0.00    -0.248 N 
ATOM      5  N   UNL     1      35.091 -18.675 -21.663  0.00  0.00    -0.268 N 
ATOM      6  C   UNL     1      33.865 -13.402 -24.263  0.00  0.00    +0.031 C 
ATOM      7  C   UNL     1      34.173 -13.215 -22.955  0.00  0.00    +0.103 C 
ATOM      8  C   UNL     1      34.379 -15.395 -23.077  0.00  0.00    +0.166 C 
ATOM      9  C   UNL     1      34.969 -17.281 -21.543  0.00  0.00    +0.310 C 
ATOM     10  H   UNL     1      34.477 -17.350 -23.539  0.00  0.00    +0.158 HD
ATOM     11  H   UNL     1      34.908 -19.049 -22.556  0.00  0.00    +0.156 HD
ENDROOT
BRANCH   5  12
ATOM     12  C   UNL     1      35.444 -19.608 -20.660  0.00  0.00    +0.052 C 
ATOM     13  C   UNL     1      34.801 -21.295 -19.079  0.00  0.00    +0.073 C 
ATOM     14  C   UNL     1      34.453 -20.375 -20.068  0.00  0.00    +0.019 C 
ATOM     15  C   UNL     1      36.773 -19.738 -20.292  0.00  0.00    +0.015 C 
ATOM     16  C   UNL     1      36.136 -21.438 -18.697  0.00  0.00    +0.004 C 
ATOM     17  C   UNL     1      37.121 -20.659 -19.304  0.00  0.00    +0.001 C 
BRANCH  13  21
ATOM     18  F   UNL     1      34.062 -22.517 -17.159  0.00  0.00    -0.166 F 
ATOM     19  F   UNL     1      32.541 -21.499 -18.324  0.00  0.00    -0.166 F 
ATOM     20  F   UNL     1      33.498 -23.284 -19.114  0.00  0.00    -0.166 F 
ATOM     21  C   UNL     1      33.748 -22.129 -18.431  0.00  0.00    +0.419 C 
ENDBRANCH  13  21
ENDBRANCH   5  12
BRANCH   6  22
ATOM     22  C   UNL     1      33.495 -12.370 -25.302  0.00  0.00    +0.056 C 
BRANCH  22  23
ATOM     23  C   UNL     1      34.002 -10.972 -24.950  0.00  0.00    +0.093 C 
BRANCH  23  24
ATOM     24  N   UNL     1      33.363 -10.475 -23.768  0.00  0.00    -0.320 N 
ATOM     25  N   UNL     1      32.068  -9.278 -21.243  0.00  0.00    -0.220 N 
ATOM     26  N   UNL     1      31.730  -8.463 -20.225  0.00  0.00    -0.178 NA
ATOM     27  N   UNL     1      34.536  -8.392 -23.818  0.00  0.00    -0.232 NA
ATOM     28  N   UNL     1      34.190  -6.657 -22.141  0.00  0.00    -0.245 NA
ATOM     29  C   UNL     1      33.004  -8.751 -22.084  0.00  0.00    +0.185 C 
ATOM     30  C   UNL     1      33.634  -9.207 -23.226  0.00  0.00    +0.128 C 
ATOM     31  C   UNL     1      33.294  -7.497 -21.573  0.00  0.00    +0.103 C 
ATOM     32  C   UNL     1      32.482  -7.376 -20.432  0.00  0.00    +0.134 C 
ATOM     33  C   UNL     1      31.433 -10.572 -21.335  0.00  0.00    +0.135 C 
ATOM     34  C   UNL     1      34.755  -7.184 -23.248  0.00  0.00    +0.251 C 
ATOM     35  H   UNL     1      32.703 -11.047 -23.315  0.00  0.00    +0.148 HD
ENDBRANCH  23  24
ENDBRANCH  22  23
ENDBRANCH   6  22
TORSDOF 5
ENDMDL
MODEL 4
REMARK VINA RESULT:     -10.8      7.144     12.688
REMARK  Name = 15602701
REMARK  5 active torsions:
REMARK  status: ('A' for Active; 'I' for Inactive)
REMARK    1  A    between atoms: N_5  and  C_12
REMARK    2  A    between atoms: C_6  and  C_22
REMARK    3  A    between atoms: C_13  and  C_21
REMARK    4  A    between atoms: C_22  and  C_23
REMARK    5  A    between atoms: C_23  and  N_24
REMARK                            x       y       z     vdW  Elec       q    Type
REMARK                         _______ _______ _______ _____ _____    ______ ____
ROOT
ATOM      1  S   UNL     1      35.958 -20.483 -19.892  0.00  0.00    -0.056 S 
ATOM      2  O   UNL     1      32.042 -22.021 -17.930  0.00  0.00    -0.252 OA
ATOM      3  N   UNL     1      33.381 -20.530 -20.089  0.00  0.00    -0.223 NA
ATOM      4  N   UNL     1      34.350 -21.687 -18.209  0.00  0.00    -0.248 N 
ATOM      5  N   UNL     1      33.573 -22.910 -16.405  0.00  0.00    -0.268 N 
ATOM      6  C   UNL     1      35.219 -19.686 -21.196  0.00  0.00    +0.031 C 
ATOM      7  C   UNL     1      33.869 -19.802 -21.156  0.00  0.00    +0.103 C 
ATOM      8  C   UNL     1      34.393 -20.939 -19.356  0.00  0.00    +0.166 C 
ATOM      9  C   UNL     1      33.195 -22.191 -17.551  0.00  0.00    +0.310 C 
ATOM     10  H   UNL     1      35.217 -21.899 -17.793  0.00  0.00    +0.158 HD
ATOM     11  H   UNL     1      34.540 -22.962 -16.227  0.00  0.00    +0.156 HD
ENDROOT
BRANCH   5  12
ATOM     12  C   UNL     1      32.735 -23.570 -15.476  0.00  0.00    +0.052 C 
ATOM     13  C   UNL     1      30.542 -24.264 -14.789  0.00  0.00    +0.073 C 
ATOM     14  C   UNL     1      31.369 -23.613 -15.705  0.00  0.00    +0.019 C 
ATOM     15  C   UNL     1      33.297 -24.162 -14.357  0.00  0.00    +0.015 C 
ATOM     16  C   UNL     1      31.093 -24.865 -13.657  0.00  0.00    +0.004 C 
ATOM     17  C   UNL     1      32.471 -24.813 -13.441  0.00  0.00    +0.001 C 
BRANCH  13  21
ATOM     18  F   UNL     1      28.728 -24.746 -16.272  0.00  0.00    -0.166 F 
ATOM     19  F   UNL     1      28.415 -25.161 -14.167  0.00  0.00    -0.166 F 
ATOM     20  F   UNL     1      28.468 -23.104 -14.871  0.00  0.00    -0.166 F 
ATOM     21  C   UNL     1      29.070 -24.320 -15.020  0.00  0.00    +0.419 C 
ENDBRANCH  13  21
ENDBRANCH   5  12
BRANCH   6  22
ATOM     22  C   UNL     1      36.075 -18.966 -22.212  0.00  0.00    +0.056 C 
BRANCH  22  23
ATOM     23  C   UNL     1      35.249 -18.151 -23.206  0.00  0.00    +0.093 C 
BRANCH  23  24
ATOM     24  N   UNL     1      34.864 -16.890 -22.643  0.00  0.00    -0.320 N 
ATOM     25  N   UNL     1      33.998 -14.136 -21.571  0.00  0.00    -0.220 N 
ATOM     26  N   UNL     1      33.547 -12.870 -21.471  0.00  0.00    -0.178 NA
ATOM     27  N   UNL     1      34.224 -15.964 -24.752  0.00  0.00    -0.232 NA
ATOM     28  N   UNL     1      33.358 -13.696 -24.974  0.00  0.00    -0.245 NA
ATOM     29  C   UNL     1      33.998 -14.622 -22.845  0.00  0.00    +0.185 C 
ATOM     30  C   UNL     1      34.362 -15.828 -23.414  0.00  0.00    +0.128 C 
ATOM     31  C   UNL     1      33.508 -13.593 -23.633  0.00  0.00    +0.103 C 
ATOM     32  C   UNL     1      33.249 -12.544 -22.734  0.00  0.00    +0.134 C 
ATOM     33  C   UNL     1      34.419 -14.819 -20.370  0.00  0.00    +0.135 C 
ATOM     34  C   UNL     1      33.737 -14.904 -25.440  0.00  0.00    +0.251 C 
ATOM     35  H   UNL     1      34.954 -16.763 -21.671  0.00  0.00    +0.148 HD
ENDBRANCH  23  24
ENDBRANCH  22  23
ENDBRANCH   6  22
TORSDOF 5
ENDMDL
MODEL 5
REMARK VINA RESULT:     -10.8      7.649     13.375
REMARK  Name = 15602701
REMARK  5 active torsions:
REMARK  status: ('A' for Active; 'I' for Inactive)
REMARK    1  A    between atoms: N_5  and  C_12
REMARK    2  A    between atoms: C_6  and  C_22
REMARK    3  A    between atoms: C_13  and  C_21
REMARK    4  A    between atoms: C_22  and  C_23
REMARK    5  A    between atoms: C_23  and  N_24
REMARK                            x       y       z     vdW  Elec       q    Type
REMARK                         _______ _______ _______ _____ _____    ______ ____
ROOT
ATOM      1  S   UNL     1      36.599 -20.251 -19.740  0.00  0.00    -0.056 S 
ATOM      2  O   UNL     1      35.423 -23.020 -16.203  0.00  0.00    -0.252 OA
ATOM      3  N   UNL     1      34.645 -21.511 -18.611  0.00  0.00    -0.223 NA
ATOM      4  N   UNL     1      36.813 -21.722 -17.581  0.00  0.00    -0.248 N 
ATOM      5  N   UNL     1      37.703 -22.807 -15.741  0.00  0.00    -0.268 N 
ATOM      6  C   UNL     1      35.048 -20.140 -20.421  0.00  0.00    +0.031 C 
ATOM      7  C   UNL     1      34.136 -20.853 -19.714  0.00  0.00    +0.103 C 
ATOM      8  C   UNL     1      35.933 -21.265 -18.526  0.00  0.00    +0.166 C 
ATOM      9  C   UNL     1      36.529 -22.567 -16.475  0.00  0.00    +0.310 C 
ATOM     10  H   UNL     1      37.750 -21.431 -17.679  0.00  0.00    +0.158 HD
ATOM     11  H   UNL     1      38.520 -22.374 -16.080  0.00  0.00    +0.156 HD
ENDROOT
BRANCH   5  12
ATOM     12  C   UNL     1      37.856 -23.592 -14.574  0.00  0.00    +0.052 C 
ATOM     13  C   UNL     1      37.306 -24.022 -12.278  0.00  0.00    +0.073 C 
ATOM     14  C   UNL     1      37.156 -23.248 -13.429  0.00  0.00    +0.019 C 
ATOM     15  C   UNL     1      38.700 -24.690 -14.601  0.00  0.00    +0.015 C 
ATOM     16  C   UNL     1      38.152 -25.131 -12.289  0.00  0.00    +0.004 C 
ATOM     17  C   UNL     1      38.850 -25.464 -13.451  0.00  0.00    +0.001 C 
BRANCH  13  21
ATOM     18  F   UNL     1      35.223 -23.470 -11.238  0.00  0.00    -0.166 F 
ATOM     19  F   UNL     1      36.637 -24.620 -10.061  0.00  0.00    -0.166 F 
ATOM     20  F   UNL     1      37.016 -22.517 -10.461  0.00  0.00    -0.166 F 
ATOM     21  C   UNL     1      36.560 -23.667 -11.037  0.00  0.00    +0.419 C 
ENDBRANCH  13  21
ENDBRANCH   5  12
BRANCH   6  22
ATOM     22  C   UNL     1      34.838 -19.310 -21.666  0.00  0.00    +0.056 C 
BRANCH  22  23
ATOM     23  C   UNL     1      35.894 -18.218 -21.831  0.00  0.00    +0.093 C 
BRANCH  23  24
ATOM     24  N   UNL     1      35.308 -16.915 -21.724  0.00  0.00    -0.320 N 
ATOM     25  N   UNL     1      34.023 -14.116 -21.644  0.00  0.00    -0.220 N 
ATOM     26  N   UNL     1      33.433 -12.954 -21.983  0.00  0.00    -0.178 NA
ATOM     27  N   UNL     1      34.860 -16.751 -24.067  0.00  0.00    -0.232 NA
ATOM     28  N   UNL     1      33.797 -14.794 -25.060  0.00  0.00    -0.245 NA
ATOM     29  C   UNL     1      34.244 -14.951 -22.699  0.00  0.00    +0.185 C 
ATOM     30  C   UNL     1      34.804 -16.208 -22.829  0.00  0.00    +0.128 C 
ATOM     31  C   UNL     1      33.757 -14.280 -23.809  0.00  0.00    +0.103 C 
ATOM     32  C   UNL     1      33.273 -13.059 -23.307  0.00  0.00    +0.134 C 
ATOM     33  C   UNL     1      34.351 -14.349 -20.256  0.00  0.00    +0.135 C 
ATOM     34  C   UNL     1      34.360 -16.020 -25.092  0.00  0.00    +0.251 C 
ATOM     35  H   UNL     1      35.255 -16.495 -20.835  0.00  0.00    +0.148 HD
ENDBRANCH  23  24
ENDBRANCH  22  23
ENDBRANCH   6  22
TORSDOF 5
ENDMDL
MODEL 6
REMARK VINA RESULT:     -10.7      8.584     14.129
REMARK  Name = 15602701
REMARK  5 active torsions:
REMARK  status: ('A' for Active; 'I' for Inactive)
REMARK    1  A    between atoms: N_5  and  C_12
REMARK    2  A    between atoms: C_6  and  C_22
REMARK    3  A    between atoms: C_13  and  C_21
REMARK    4  A    between atoms: C_22  and  C_23
REMARK    5  A    between atoms: C_23  and  N_24
REMARK                            x       y       z     vdW  Elec       q    Type
REMARK                         _______ _______ _______ _____ _____    ______ ____
ROOT
ATOM      1  S   UNL     1      36.471 -20.628 -19.077  0.00  0.00    -0.056 S 
ATOM      2  O   UNL     1      35.080 -23.477 -15.686  0.00  0.00    -0.252 OA
ATOM      3  N   UNL     1      34.463 -21.951 -18.129  0.00  0.00    -0.223 NA
ATOM      4  N   UNL     1      36.545 -22.126 -16.928  0.00  0.00    -0.248 N 
ATOM      5  N   UNL     1      37.309 -23.217 -15.036  0.00  0.00    -0.268 N 
ATOM      6  C   UNL     1      34.979 -20.543 -19.881  0.00  0.00    +0.031 C 
ATOM      7  C   UNL     1      34.030 -21.288 -19.261  0.00  0.00    +0.103 C 
ATOM      8  C   UNL     1      35.734 -21.676 -17.936  0.00  0.00    +0.166 C 
ATOM      9  C   UNL     1      36.193 -22.994 -15.860  0.00  0.00    +0.310 C 
ATOM     10  H   UNL     1      37.479 -21.811 -16.945  0.00  0.00    +0.158 HD
ATOM     11  H   UNL     1      38.140 -22.760 -15.301  0.00  0.00    +0.156 HD
ENDROOT
BRANCH   5  12
ATOM     12  C   UNL     1      37.385 -24.015 -13.870  0.00  0.00    +0.052 C 
ATOM     13  C   UNL     1      37.611 -26.175 -12.848  0.00  0.00    +0.073 C 
ATOM     14  C   UNL     1      37.534 -25.387 -13.997  0.00  0.00    +0.019 C 
ATOM     15  C   UNL     1      37.312 -23.410 -12.627  0.00  0.00    +0.015 C 
ATOM     16  C   UNL     1      37.538 -25.580 -11.588  0.00  0.00    +0.004 C 
ATOM     17  C   UNL     1      37.388 -24.197 -11.478  0.00  0.00    +0.001 C 
BRANCH  13  21
ATOM     18  F   UNL     1      37.547 -28.323 -11.796  0.00  0.00    -0.166 F 
ATOM     19  F   UNL     1      36.925 -28.224 -13.872  0.00  0.00    -0.166 F 
ATOM     20  F   UNL     1      39.028 -28.015 -13.358  0.00  0.00    -0.166 F 
ATOM     21  C   UNL     1      37.772 -27.653 -12.965  0.00  0.00    +0.419 C 
ENDBRANCH  13  21
ENDBRANCH   5  12
BRANCH   6  22
ATOM     22  C   UNL     1      34.850 -19.700 -21.129  0.00  0.00    +0.056 C 
BRANCH  22  23
ATOM     23  C   UNL     1      35.962 -18.660 -21.253  0.00  0.00    +0.093 C 
BRANCH  23  24
ATOM     24  N   UNL     1      35.421 -17.337 -21.355  0.00  0.00    -0.320 N 
ATOM     25  N   UNL     1      34.235 -14.518 -21.721  0.00  0.00    -0.220 N 
ATOM     26  N   UNL     1      33.693 -13.401 -22.243  0.00  0.00    -0.178 NA
ATOM     27  N   UNL     1      35.023 -17.509 -23.706  0.00  0.00    -0.232 NA
ATOM     28  N   UNL     1      34.049 -15.689 -25.003  0.00  0.00    -0.245 NA
ATOM     29  C   UNL     1      34.445 -15.507 -22.635  0.00  0.00    +0.185 C 
ATOM     30  C   UNL     1      34.963 -16.787 -22.564  0.00  0.00    +0.128 C 
ATOM     31  C   UNL     1      34.003 -14.993 -23.843  0.00  0.00    +0.103 C 
ATOM     32  C   UNL     1      33.553 -13.697 -23.540  0.00  0.00    +0.134 C 
ATOM     33  C   UNL     1      34.528 -14.551 -20.307  0.00  0.00    +0.135 C 
ATOM     34  C   UNL     1      34.569 -16.924 -24.839  0.00  0.00    +0.251 C 
ATOM     35  H   UNL     1      35.366 -16.788 -20.540  0.00  0.00    +0.148 HD
ENDBRANCH  23  24
ENDBRANCH  22  23
ENDBRANCH   6  22
TORSDOF 5
ENDMDL
MODEL 7
REMARK VINA RESULT:     -10.5      7.644     13.253
REMARK  Name = 15602701
REMARK  5 active torsions:
REMARK  status: ('A' for Active; 'I' for Inactive)
REMARK    1  A    between atoms: N_5  and  C_12
REMARK    2  A    between atoms: C_6  and  C_22
REMARK    3  A    between atoms: C_13  and  C_21
REMARK    4  A    between atoms: C_22  and  C_23
REMARK    5  A    between atoms: C_23  and  N_24
REMARK                            x       y       z     vdW  Elec       q    Type
REMARK                         _______ _______ _______ _____ _____    ______ ____
ROOT
ATOM      1  S   UNL     1      34.366 -20.817 -20.130  0.00  0.00    -0.056 S 
ATOM      2  O   UNL     1      37.585 -21.421 -16.839  0.00  0.00    -0.252 OA
ATOM      3  N   UNL     1      36.731 -20.129 -19.345  0.00  0.00    -0.223 NA
ATOM      4  N   UNL     1      35.542 -21.705 -17.962  0.00  0.00    -0.248 N 
ATOM      5  N   UNL     1      35.945 -22.856 -15.996  0.00  0.00    -0.268 N 
ATOM      6  C   UNL     1      35.251 -19.710 -21.064  0.00  0.00    +0.031 C 
ATOM      7  C   UNL     1      36.468 -19.454 -20.521  0.00  0.00    +0.103 C 
ATOM      8  C   UNL     1      35.693 -20.877 -19.044  0.00  0.00    +0.166 C 
ATOM      9  C   UNL     1      36.477 -21.941 -16.920  0.00  0.00    +0.310 C 
ATOM     10  H   UNL     1      34.687 -22.192 -17.901  0.00  0.00    +0.158 HD
ATOM     11  H   UNL     1      35.040 -23.191 -16.193  0.00  0.00    +0.156 HD
ENDROOT
BRANCH   5  12
ATOM     12  C   UNL     1      36.549 -23.357 -14.819  0.00  0.00    +0.052 C 
ATOM     13  C   UNL     1      38.295 -24.617 -13.760  0.00  0.00    +0.073 C 
ATOM     14  C   UNL     1      37.699 -24.124 -14.921  0.00  0.00    +0.019 C 
ATOM     15  C   UNL     1      35.980 -23.070 -13.590  0.00  0.00    +0.015 C 
ATOM     16  C   UNL     1      37.735 -24.336 -12.514  0.00  0.00    +0.004 C 
ATOM     17  C   UNL     1      36.577 -23.563 -12.429  0.00  0.00    +0.001 C 
BRANCH  13  21
ATOM     18  F   UNL     1      40.526 -25.038 -13.003  0.00  0.00    -0.166 F 
ATOM     19  F   UNL     1      39.333 -26.762 -13.558  0.00  0.00    -0.166 F 
ATOM     20  F   UNL     1      40.088 -25.425 -15.097  0.00  0.00    -0.166 F 
ATOM     21  C   UNL     1      39.534 -25.443 -13.850  0.00  0.00    +0.419 C 
ENDBRANCH  13  21
ENDBRANCH   5  12
BRANCH   6  22
ATOM     22  C   UNL     1      34.646 -19.150 -22.330  0.00  0.00    +0.056 C 
BRANCH  22  23
ATOM     23  C   UNL     1      35.467 -18.002 -22.916  0.00  0.00    +0.093 C 
BRANCH  23  24
ATOM     24  N   UNL     1      34.986 -16.735 -22.450  0.00  0.00    -0.320 N 
ATOM     25  N   UNL     1      33.914 -13.979 -21.589  0.00  0.00    -0.220 N 
ATOM     26  N   UNL     1      33.377 -12.744 -21.585  0.00  0.00    -0.178 NA
ATOM     27  N   UNL     1      34.325 -16.005 -24.628  0.00  0.00    -0.232 NA
ATOM     28  N   UNL     1      33.310 -13.823 -25.023  0.00  0.00    -0.245 NA
ATOM     29  C   UNL     1      33.972 -14.552 -22.825  0.00  0.00    +0.185 C 
ATOM     30  C   UNL     1      34.428 -15.767 -23.301  0.00  0.00    +0.128 C 
ATOM     31  C   UNL     1      33.428 -13.617 -23.690  0.00  0.00    +0.103 C 
ATOM     32  C   UNL     1      33.081 -12.528 -22.872  0.00  0.00    +0.134 C 
ATOM     33  C   UNL     1      34.358 -14.546 -20.336  0.00  0.00    +0.135 C 
ATOM     34  C   UNL     1      33.780 -15.032 -25.396  0.00  0.00    +0.251 C 
ATOM     35  H   UNL     1      35.049 -16.535 -21.488  0.00  0.00    +0.148 HD
ENDBRANCH  23  24
ENDBRANCH  22  23
ENDBRANCH   6  22
TORSDOF 5
ENDMDL
MODEL 8
REMARK VINA RESULT:     -10.4      5.829      9.583
REMARK  Name = 15602701
REMARK  5 active torsions:
REMARK  status: ('A' for Active; 'I' for Inactive)
REMARK    1  A    between atoms: N_5  and  C_12
REMARK    2  A    between atoms: C_6  and  C_22
REMARK    3  A    between atoms: C_13  and  C_21
REMARK    4  A    between atoms: C_22  and  C_23
REMARK    5  A    between atoms: C_23  and  N_24
REMARK                            x       y       z     vdW  Elec       q    Type
REMARK                         _______ _______ _______ _____ _____    ______ ____
ROOT
ATOM      1  S   UNL     1      36.830 -22.025 -16.639  0.00  0.00    -0.056 S 
ATOM      2  O   UNL     1      33.860 -20.853 -20.011  0.00  0.00    -0.252 OA
ATOM      3  N   UNL     1      34.421 -22.332 -17.525  0.00  0.00    -0.223 NA
ATOM      4  N   UNL     1      35.878 -20.905 -18.809  0.00  0.00    -0.248 N 
ATOM      5  N   UNL     1      35.721 -19.647 -20.745  0.00  0.00    -0.268 N 
ATOM      6  C   UNL     1      35.758 -23.018 -15.776  0.00  0.00    +0.031 C 
ATOM      7  C   UNL     1      34.539 -23.077 -16.368  0.00  0.00    +0.103 C 
ATOM      8  C   UNL     1      35.567 -21.735 -17.765  0.00  0.00    +0.166 C 
ATOM      9  C   UNL     1      35.027 -20.503 -19.874  0.00  0.00    +0.310 C 
ATOM     10  H   UNL     1      36.796 -20.547 -18.825  0.00  0.00    +0.158 HD
ATOM     11  H   UNL     1      36.657 -19.455 -20.506  0.00  0.00    +0.156 HD
ENDROOT
BRANCH   5  12
ATOM     12  C   UNL     1      35.241 -19.027 -21.923  0.00  0.00    +0.052 C 
ATOM     13  C   UNL     1      34.695 -17.033 -23.141  0.00  0.00    +0.073 C 
ATOM     14  C   UNL     1      35.167 -17.644 -21.979  0.00  0.00    +0.019 C 
ATOM     15  C   UNL     1      34.858 -19.814 -22.995  0.00  0.00    +0.015 C 
ATOM     16  C   UNL     1      34.305 -17.812 -24.230  0.00  0.00    +0.004 C 
ATOM     17  C   UNL     1      34.386 -19.203 -24.157  0.00  0.00    +0.001 C 
BRANCH  13  21
ATOM     18  F   UNL     1      34.566 -14.934 -21.998  0.00  0.00    -0.166 F 
ATOM     19  F   UNL     1      35.663 -14.971 -23.869  0.00  0.00    -0.166 F 
ATOM     20  F   UNL     1      33.494 -15.118 -23.881  0.00  0.00    -0.166 F 
ATOM     21  C   UNL     1      34.609 -15.546 -23.219  0.00  0.00    +0.419 C 
ENDBRANCH  13  21
ENDBRANCH   5  12
BRANCH   6  22
ATOM     22  C   UNL     1      36.227 -23.703 -14.513  0.00  0.00    +0.056 C 
BRANCH  22  23
ATOM     23  C   UNL     1      36.221 -25.226 -14.633  0.00  0.00    +0.093 C 
BRANCH  23  24
ATOM     24  N   UNL     1      37.553 -25.752 -14.594  0.00  0.00    -0.320 N 
ATOM     25  N   UNL     1      40.366 -27.006 -14.578  0.00  0.00    -0.220 N 
ATOM     26  N   UNL     1      41.409 -27.844 -14.732  0.00  0.00    -0.178 NA
ATOM     27  N   UNL     1      36.937 -27.822 -15.618  0.00  0.00    -0.232 NA
ATOM     28  N   UNL     1      38.553 -29.592 -16.063  0.00  0.00    -0.245 NA
ATOM     29  C   UNL     1      39.183 -27.509 -15.032  0.00  0.00    +0.185 C 
ATOM     30  C   UNL     1      37.889 -27.026 -15.082  0.00  0.00    +0.128 C 
ATOM     31  C   UNL     1      39.482 -28.771 -15.521  0.00  0.00    +0.103 C 
ATOM     32  C   UNL     1      40.863 -28.921 -15.309  0.00  0.00    +0.134 C 
ATOM     33  C   UNL     1      40.597 -25.716 -13.971  0.00  0.00    +0.135 C 
ATOM     34  C   UNL     1      37.322 -29.039 -16.069  0.00  0.00    +0.251 C 
ATOM     35  H   UNL     1      38.267 -25.194 -14.209  0.00  0.00    +0.148 HD
ENDBRANCH  23  24
ENDBRANCH  22  23
ENDBRANCH   6  22
TORSDOF 5
ENDMDL
MODEL 9
REMARK VINA RESULT:     -10.4      5.562     12.306
REMARK  Name = 15602701
REMARK  5 active torsions:
REMARK  status: ('A' for Active; 'I' for Inactive)
REMARK    1  A    between atoms: N_5  and  C_12
REMARK    2  A    between atoms: C_6  and  C_22
REMARK    3  A    between atoms: C_13  and  C_21
REMARK    4  A    between atoms: C_22  and  C_23
REMARK    5  A    between atoms: C_23  and  N_24
REMARK                            x       y       z     vdW  Elec       q    Type
REMARK                         _______ _______ _______ _____ _____    ______ ____
ROOT
ATOM      1  S   UNL     1      34.062 -13.146 -24.058  0.00  0.00    -0.056 S 
ATOM      2  O   UNL     1      34.576 -15.812 -20.292  0.00  0.00    -0.252 OA
ATOM      3  N   UNL     1      33.829 -13.224 -21.485  0.00  0.00    -0.223 NA
ATOM      4  N   UNL     1      34.608 -15.231 -22.567  0.00  0.00    -0.248 N 
ATOM      5  N   UNL     1      35.252 -17.355 -21.911  0.00  0.00    -0.268 N 
ATOM      6  C   UNL     1      33.517 -11.762 -23.241  0.00  0.00    +0.031 C 
ATOM      7  C   UNL     1      33.451 -11.962 -21.901  0.00  0.00    +0.103 C 
ATOM      8  C   UNL     1      34.171 -13.933 -22.537  0.00  0.00    +0.166 C 
ATOM      9  C   UNL     1      34.791 -16.106 -21.462  0.00  0.00    +0.310 C 
ATOM     10  H   UNL     1      34.820 -15.601 -23.456  0.00  0.00    +0.158 HD
ATOM     11  H   UNL     1      35.379 -17.445 -22.883  0.00  0.00    +0.156 HD
ENDROOT
BRANCH   5  12
ATOM     12  C   UNL     1      35.557 -18.499 -21.137  0.00  0.00    +0.052 C 
ATOM     13  C   UNL     1      34.833 -20.470 -19.976  0.00  0.00    +0.073 C 
ATOM     14  C   UNL     1      34.532 -19.341 -20.738  0.00  0.00    +0.019 C 
ATOM     15  C   UNL     1      36.875 -18.756 -20.797  0.00  0.00    +0.015 C 
ATOM     16  C   UNL     1      36.156 -20.743 -19.624  0.00  0.00    +0.004 C 
ATOM     17  C   UNL     1      37.177 -19.885 -20.034  0.00  0.00    +0.001 C 
BRANCH  13  21
ATOM     18  F   UNL     1      34.053 -22.712 -19.672  0.00  0.00    -0.166 F 
ATOM     19  F   UNL     1      33.393 -21.236 -18.226  0.00  0.00    -0.166 F 
ATOM     20  F   UNL     1      32.590 -21.210 -20.246  0.00  0.00    -0.166 F 
ATOM     21  C   UNL     1      33.742 -21.388 -19.538  0.00  0.00    +0.419 C 
ENDBRANCH  13  21
ENDBRANCH   5  12
BRANCH   6  22
ATOM     22  C   UNL     1      33.182 -10.516 -24.026  0.00  0.00    +0.056 C 
BRANCH  22  23
ATOM     23  C   UNL     1      34.010  -9.306 -23.594  0.00  0.00    +0.093 C 
BRANCH  23  24
ATOM     24  N   UNL     1      33.196  -8.131 -23.499  0.00  0.00    -0.320 N 
ATOM     25  N   UNL     1      31.453  -5.616 -23.146  0.00  0.00    -0.220 N 
ATOM     26  N   UNL     1      30.740  -4.600 -22.623  0.00  0.00    -0.178 NA
ATOM     27  N   UNL     1      33.170  -8.149 -21.109  0.00  0.00    -0.232 NA
ATOM     28  N   UNL     1      31.984  -6.466 -19.803  0.00  0.00    -0.245 NA
ATOM     29  C   UNL     1      32.006  -6.440 -22.210  0.00  0.00    +0.185 C 
ATOM     30  C   UNL     1      32.793  -7.575 -22.274  0.00  0.00    +0.128 C 
ATOM     31  C   UNL     1      31.624  -5.917 -20.986  0.00  0.00    +0.103 C 
ATOM     32  C   UNL     1      30.848  -4.788 -21.303  0.00  0.00    +0.134 C 
ATOM     33  C   UNL     1      31.553  -5.727 -24.583  0.00  0.00    +0.135 C 
ATOM     34  C   UNL     1      32.748  -7.568 -19.961  0.00  0.00    +0.251 C 
ATOM     35  H   UNL     1      32.906  -7.693 -24.332  0.00  0.00    +0.148 HD
ENDBRANCH  23  24
ENDBRANCH  22  23
ENDBRANCH   6  22
TORSDOF 5
ENDMDL
