MODEL 1
REMARK VINA RESULT:     -11.0      0.000      0.000
REMARK  Name = 25113615
REMARK  7 active torsions:
REMARK  status: ('A' for Active; 'I' for Inactive)
REMARK    1  A    between atoms: N_2  and  C_20
REMARK    2  A    between atoms: C_3  and  C_7
REMARK    3  A    between atoms: C_11  and  C_12
REMARK    4  A    between atoms: C_12  and  C_13
REMARK    5  A    between atoms: C_13  and  C_14
REMARK    6  A    between atoms: C_20  and  C_21
REMARK    7  A    between atoms: C_26  and  C_29
REMARK                            x       y       z     vdW  Elec       q    Type
REMARK                         _______ _______ _______ _____ _____    ______ ____
ROOT
ATOM      1  O   UNL     1      35.575 -23.492 -12.902  0.00  0.00    -0.273 OA
ATOM      2  N   UNL     1      33.889 -24.750 -13.900  0.00  0.00    -0.299 N 
ATOM      3  C   UNL     1      35.188 -24.297 -13.746  0.00  0.00    +0.241 C 
ATOM      4  H   UNL     1      33.700 -25.398 -14.616  0.00  0.00    +0.150 HD
ENDROOT
BRANCH   3   7
ATOM      5  O   UNL     1      38.601 -22.356 -15.628  0.00  0.00    -0.275 OA
ATOM      6  N   UNL     1      37.333 -24.099 -14.794  0.00  0.00    -0.273 N 
ATOM      7  C   UNL     1      36.128 -24.922 -14.731  0.00  0.00    +0.152 C 
ATOM      8  C   UNL     1      36.618 -26.276 -14.225  0.00  0.00    +0.031 C 
ATOM      9  C   UNL     1      37.827 -25.916 -13.365  0.00  0.00    +0.024 C 
ATOM     10  C   UNL     1      38.445 -24.744 -14.110  0.00  0.00    +0.094 C 
ATOM     11  C   UNL     1      37.514 -22.929 -15.512  0.00  0.00    +0.226 C 
BRANCH  11  12
ATOM     12  C   UNL     1      36.286 -22.360 -16.177  0.00  0.00    +0.090 C 
BRANCH  12  13
ATOM     13  C   UNL     1      36.604 -21.912 -17.596  0.00  0.00    +0.036 C 
BRANCH  13  14
ATOM     14  C   UNL     1      35.378 -21.545 -18.395  0.00  0.00    -0.022 C 
ATOM     15  C   UNL     1      34.136 -22.079 -18.051  0.00  0.00    -0.004 C 
ATOM     16  C   UNL     1      35.486 -20.673 -19.478  0.00  0.00    -0.004 C 
ATOM     17  C   UNL     1      33.001 -21.740 -18.789  0.00  0.00    -0.000 C 
ATOM     18  C   UNL     1      34.352 -20.335 -20.216  0.00  0.00    -0.000 C 
ATOM     19  C   UNL     1      33.110 -20.868 -19.872  0.00  0.00    -0.000 C 
ENDBRANCH  13  14
ENDBRANCH  12  13
ENDBRANCH  11  12
ENDBRANCH   3   7
BRANCH   2  20
ATOM     20  C   UNL     1      32.796 -24.317 -13.058  0.00  0.00    +0.116 C 
BRANCH  20  21
ATOM     21  C   UNL     1      31.543 -24.072 -13.848  0.00  0.00    -0.003 C 
ATOM     22  C   UNL     1      31.504 -23.043 -14.790  0.00  0.00    -0.003 C 
ATOM     23  C   UNL     1      30.418 -24.870 -13.639  0.00  0.00    -0.003 C 
ATOM     24  C   UNL     1      30.338 -22.813 -15.522  0.00  0.00    +0.002 C 
ATOM     25  C   UNL     1      29.254 -24.640 -14.372  0.00  0.00    +0.002 C 
ATOM     26  C   UNL     1      29.214 -23.612 -15.314  0.00  0.00    +0.031 C 
BRANCH  26  29
ATOM     27  N   UNL     1      27.069 -22.416 -15.680  0.00  0.00    -0.343 N 
ATOM     28  N   UNL     1      27.764 -24.073 -17.174  0.00  0.00    -0.285 NA
ATOM     29  C   UNL     1      28.001 -23.372 -16.079  0.00  0.00    +0.117 C 
ATOM     30  H   UNL     1      26.254 -22.271 -16.213  0.00  0.00    +0.144 HD
ATOM     31  H   UNL     1      27.225 -21.886 -14.866  0.00  0.00    +0.144 HD
ATOM     32  H   UNL     1      26.944 -23.912 -17.693  0.00  0.00    +0.188 HD
ENDBRANCH  26  29
ENDBRANCH  20  21
ENDBRANCH   2  20
TORSDOF 7
ENDMDL
MODEL 2
REMARK VINA RESULT:     -10.6      2.948      6.313
REMARK  Name = 25113615
REMARK  7 active torsions:
REMARK  status: ('A' for Active; 'I' for Inactive)
REMARK    1  A    between atoms: N_2  and  C_20
REMARK    2  A    between atoms: C_3  and  C_7
REMARK    3  A    between atoms: C_11  and  C_12
REMARK    4  A    between atoms: C_12  and  C_13
REMARK    5  A    between atoms: C_13  and  C_14
REMARK    6  A    between atoms: C_20  and  C_21
REMARK    7  A    between atoms: C_26  and  C_29
REMARK                            x       y       z     vdW  Elec       q    Type
REMARK                         _______ _______ _______ _____ _____    ______ ____
ROOT
ATOM      1  O   UNL     1      34.949 -24.665 -15.684  0.00  0.00    -0.273 OA
ATOM      2  N   UNL     1      34.468 -22.507 -16.413  0.00  0.00    -0.299 N 
ATOM      3  C   UNL     1      34.967 -23.446 -15.527  0.00  0.00    +0.241 C 
ATOM      4  H   UNL     1      34.540 -21.554 -16.175  0.00  0.00    +0.150 HD
ENDROOT
BRANCH   3   7
ATOM      5  O   UNL     1      34.706 -24.934 -11.444  0.00  0.00    -0.275 OA
ATOM      6  N   UNL     1      35.612 -23.813 -13.249  0.00  0.00    -0.273 N 
ATOM      7  C   UNL     1      35.581 -22.814 -14.315  0.00  0.00    +0.152 C 
ATOM      8  C   UNL     1      37.049 -22.479 -14.566  0.00  0.00    +0.031 C 
ATOM      9  C   UNL     1      37.775 -23.773 -14.206  0.00  0.00    +0.024 C 
ATOM     10  C   UNL     1      36.965 -24.309 -13.036  0.00  0.00    +0.094 C 
ATOM     11  C   UNL     1      34.573 -24.180 -12.411  0.00  0.00    +0.226 C 
BRANCH  11  12
ATOM     12  C   UNL     1      33.221 -23.598 -12.735  0.00  0.00    +0.090 C 
BRANCH  12  13
ATOM     13  C   UNL     1      32.221 -24.703 -13.042  0.00  0.00    +0.036 C 
BRANCH  13  14
ATOM     14  C   UNL     1      31.144 -24.282 -14.012  0.00  0.00    -0.022 C 
ATOM     15  C   UNL     1      29.934 -24.973 -14.054  0.00  0.00    -0.004 C 
ATOM     16  C   UNL     1      31.360 -23.200 -14.866  0.00  0.00    -0.004 C 
ATOM     17  C   UNL     1      28.938 -24.584 -14.950  0.00  0.00    -0.000 C 
ATOM     18  C   UNL     1      30.364 -22.811 -15.762  0.00  0.00    -0.000 C 
ATOM     19  C   UNL     1      29.153 -23.503 -15.805  0.00  0.00    -0.000 C 
ENDBRANCH  13  14
ENDBRANCH  12  13
ENDBRANCH  11  12
ENDBRANCH   3   7
BRANCH   2  20
ATOM     20  C   UNL     1      33.846 -22.858 -17.669  0.00  0.00    +0.116 C 
BRANCH  20  21
ATOM     21  C   UNL     1      34.112 -21.831 -18.732  0.00  0.00    -0.003 C 
ATOM     22  C   UNL     1      35.425 -21.496 -19.064  0.00  0.00    -0.003 C 
ATOM     23  C   UNL     1      33.046 -21.210 -19.386  0.00  0.00    -0.003 C 
ATOM     24  C   UNL     1      35.672 -20.541 -20.050  0.00  0.00    +0.002 C 
ATOM     25  C   UNL     1      33.295 -20.255 -20.372  0.00  0.00    +0.002 C 
ATOM     26  C   UNL     1      34.608 -19.921 -20.704  0.00  0.00    +0.031 C 
BRANCH  26  29
ATOM     27  N   UNL     1      35.610 -17.779 -21.461  0.00  0.00    -0.343 N 
ATOM     28  N   UNL     1      34.390 -19.101 -22.952  0.00  0.00    -0.285 NA
ATOM     29  C   UNL     1      34.867 -18.926 -21.733  0.00  0.00    +0.117 C 
ATOM     30  H   UNL     1      35.772 -17.118 -22.172  0.00  0.00    +0.144 HD
ATOM     31  H   UNL     1      35.971 -17.628 -20.558  0.00  0.00    +0.144 HD
ATOM     32  H   UNL     1      34.564 -18.428 -23.650  0.00  0.00    +0.188 HD
ENDBRANCH  26  29
ENDBRANCH  20  21
ENDBRANCH   2  20
TORSDOF 7
ENDMDL
MODEL 3
REMARK VINA RESULT:      -9.6     11.610     15.244
REMARK  Name = 25113615
REMARK  7 active torsions:
REMARK  status: ('A' for Active; 'I' for Inactive)
REMARK    1  A    between atoms: N_2  and  C_20
REMARK    2  A    between atoms: C_3  and  C_7
REMARK    3  A    between atoms: C_11  and  C_12
REMARK    4  A    between atoms: C_12  and  C_13
REMARK    5  A    between atoms: C_13  and  C_14
REMARK    6  A    between atoms: C_20  and  C_21
REMARK    7  A    between atoms: C_26  and  C_29
REMARK                            x       y       z     vdW  Elec       q    Type
REMARK                         _______ _______ _______ _____ _____    ______ ____
ROOT
ATOM      1  O   UNL     1      32.281 -12.713 -22.365  0.00  0.00    -0.273 OA
ATOM      2  N   UNL     1      32.898 -10.473 -22.516  0.00  0.00    -0.299 N 
ATOM      3  C   UNL     1      33.011 -11.824 -22.797  0.00  0.00    +0.241 C 
ATOM      4  H   UNL     1      33.546  -9.854 -22.923  0.00  0.00    +0.150 HD
ENDROOT
BRANCH   3   7
ATOM      5  O   UNL     1      33.561 -15.481 -25.094  0.00  0.00    -0.275 OA
ATOM      6  N   UNL     1      33.744 -13.234 -24.590  0.00  0.00    -0.273 N 
ATOM      7  C   UNL     1      34.141 -12.115 -23.737  0.00  0.00    +0.152 C 
ATOM      8  C   UNL     1      34.351 -10.954 -24.705  0.00  0.00    +0.031 C 
ATOM      9  C   UNL     1      33.381 -11.262 -25.843  0.00  0.00    +0.024 C 
ATOM     10  C   UNL     1      33.427 -12.778 -25.937  0.00  0.00    +0.094 C 
ATOM     11  C   UNL     1      33.784 -14.583 -24.279  0.00  0.00    +0.226 C 
BRANCH  11  12
ATOM     12  C   UNL     1      34.127 -14.925 -22.851  0.00  0.00    +0.090 C 
BRANCH  12  13
ATOM     13  C   UNL     1      35.415 -15.733 -22.789  0.00  0.00    +0.036 C 
BRANCH  13  14
ATOM     14  C   UNL     1      35.202 -17.164 -22.359  0.00  0.00    -0.022 C 
ATOM     15  C   UNL     1      34.687 -18.094 -23.261  0.00  0.00    -0.004 C 
ATOM     16  C   UNL     1      35.521 -17.555 -21.059  0.00  0.00    -0.004 C 
ATOM     17  C   UNL     1      34.490 -19.417 -22.864  0.00  0.00    -0.000 C 
ATOM     18  C   UNL     1      35.324 -18.878 -20.661  0.00  0.00    -0.000 C 
ATOM     19  C   UNL     1      34.808 -19.809 -21.564  0.00  0.00    -0.000 C 
ENDBRANCH  13  14
ENDBRANCH  12  13
ENDBRANCH  11  12
ENDBRANCH   3   7
BRANCH   2  20
ATOM     20  C   UNL     1      31.874  -9.929 -21.653  0.00  0.00    +0.116 C 
BRANCH  20  21
ATOM     21  C   UNL     1      31.759  -8.438 -21.792  0.00  0.00    -0.003 C 
ATOM     22  C   UNL     1      31.230  -7.886 -22.959  0.00  0.00    -0.003 C 
ATOM     23  C   UNL     1      32.182  -7.605 -20.755  0.00  0.00    -0.003 C 
ATOM     24  C   UNL     1      31.125  -6.501 -23.090  0.00  0.00    +0.002 C 
ATOM     25  C   UNL     1      32.076  -6.220 -20.886  0.00  0.00    +0.002 C 
ATOM     26  C   UNL     1      31.547  -5.668 -22.054  0.00  0.00    +0.031 C 
BRANCH  26  29
ATOM     27  N   UNL     1      32.217  -3.520 -23.104  0.00  0.00    -0.343 N 
ATOM     28  N   UNL     1      30.583  -3.556 -21.434  0.00  0.00    -0.285 NA
ATOM     29  C   UNL     1      31.436  -4.225 -22.190  0.00  0.00    +0.117 C 
ATOM     30  H   UNL     1      32.126  -2.543 -23.179  0.00  0.00    +0.144 HD
ATOM     31  H   UNL     1      32.860  -3.999 -23.674  0.00  0.00    +0.144 HD
ATOM     32  H   UNL     1      30.506  -2.579 -21.524  0.00  0.00    +0.188 HD
ENDBRANCH  26  29
ENDBRANCH  20  21
ENDBRANCH   2  20
TORSDOF 7
ENDMDL
MODEL 4
REMARK VINA RESULT:      -9.6      9.169     12.629
REMARK  Name = 25113615
REMARK  7 active torsions:
REMARK  status: ('A' for Active; 'I' for Inactive)
REMARK    1  A    between atoms: N_2  and  C_20
REMARK    2  A    between atoms: C_3  and  C_7
REMARK    3  A    between atoms: C_11  and  C_12
REMARK    4  A    between atoms: C_12  and  C_13
REMARK    5  A    between atoms: C_13  and  C_14
REMARK    6  A    between atoms: C_20  and  C_21
REMARK    7  A    between atoms: C_26  and  C_29
REMARK                            x       y       z     vdW  Elec       q    Type
REMARK                         _______ _______ _______ _____ _____    ______ ____
ROOT
ATOM      1  O   UNL     1      34.071 -14.732 -20.499  0.00  0.00    -0.273 OA
ATOM      2  N   UNL     1      32.950 -13.184 -21.829  0.00  0.00    -0.299 N 
ATOM      3  C   UNL     1      33.916 -14.139 -21.564  0.00  0.00    +0.241 C 
ATOM      4  H   UNL     1      32.926 -12.778 -22.725  0.00  0.00    +0.150 HD
ENDROOT
BRANCH   3   7
ATOM      5  O   UNL     1      34.334 -17.965 -23.600  0.00  0.00    -0.275 OA
ATOM      6  N   UNL     1      34.331 -15.666 -23.363  0.00  0.00    -0.273 N 
ATOM      7  C   UNL     1      34.782 -14.416 -22.756  0.00  0.00    +0.152 C 
ATOM      8  C   UNL     1      34.561 -13.365 -23.840  0.00  0.00    +0.031 C 
ATOM      9  C   UNL     1      33.374 -13.913 -24.629  0.00  0.00    +0.024 C 
ATOM     10  C   UNL     1      33.604 -15.415 -24.600  0.00  0.00    +0.094 C 
ATOM     11  C   UNL     1      34.640 -16.955 -22.961  0.00  0.00    +0.226 C 
BRANCH  11  12
ATOM     12  C   UNL     1      35.397 -17.083 -21.663  0.00  0.00    +0.090 C 
BRANCH  12  13
ATOM     13  C   UNL     1      36.224 -18.360 -21.650  0.00  0.00    +0.036 C 
BRANCH  13  14
ATOM     14  C   UNL     1      35.660 -19.426 -20.743  0.00  0.00    -0.022 C 
ATOM     15  C   UNL     1      34.284 -19.644 -20.695  0.00  0.00    -0.004 C 
ATOM     16  C   UNL     1      36.516 -20.193 -19.952  0.00  0.00    -0.004 C 
ATOM     17  C   UNL     1      33.761 -20.630 -19.857  0.00  0.00    -0.000 C 
ATOM     18  C   UNL     1      35.994 -21.179 -19.114  0.00  0.00    -0.000 C 
ATOM     19  C   UNL     1      34.617 -21.397 -19.066  0.00  0.00    -0.000 C 
ENDBRANCH  13  14
ENDBRANCH  12  13
ENDBRANCH  11  12
ENDBRANCH   3   7
BRANCH   2  20
ATOM     20  C   UNL     1      31.974 -12.755 -20.852  0.00  0.00    +0.116 C 
BRANCH  20  21
ATOM     21  C   UNL     1      32.041 -11.275 -20.606  0.00  0.00    -0.003 C 
ATOM     22  C   UNL     1      32.091 -10.391 -21.684  0.00  0.00    -0.003 C 
ATOM     23  C   UNL     1      32.055 -10.785 -19.299  0.00  0.00    -0.003 C 
ATOM     24  C   UNL     1      32.156  -9.016 -21.455  0.00  0.00    +0.002 C 
ATOM     25  C   UNL     1      32.119  -9.410 -19.072  0.00  0.00    +0.002 C 
ATOM     26  C   UNL     1      32.170  -8.526 -20.149  0.00  0.00    +0.031 C 
BRANCH  26  29
ATOM     27  N   UNL     1      31.513  -6.195 -20.694  0.00  0.00    -0.343 N 
ATOM     28  N   UNL     1      32.996  -6.621 -18.940  0.00  0.00    -0.285 NA
ATOM     29  C   UNL     1      32.235  -7.093 -19.912  0.00  0.00    +0.117 C 
ATOM     30  H   UNL     1      31.573  -5.228 -20.517  0.00  0.00    +0.144 HD
ATOM     31  H   UNL     1      30.944  -6.526 -21.426  0.00  0.00    +0.144 HD
ATOM     32  H   UNL     1      33.042  -5.652 -18.778  0.00  0.00    +0.188 HD
ENDBRANCH  26  29
ENDBRANCH  20  21
ENDBRANCH   2  20
TORSDOF 7
ENDMDL
MODEL 5
REMARK VINA RESULT:      -9.5     12.129     15.795
REMARK  Name = 25113615
REMARK  7 active torsions:
REMARK  status: ('A' for Active; 'I' for Inactive)
REMARK    1  A    between atoms: N_2  and  C_20
REMARK    2  A    between atoms: C_3  and  C_7
REMARK    3  A    between atoms: C_11  and  C_12
REMARK    4  A    between atoms: C_12  and  C_13
REMARK    5  A    between atoms: C_13  and  C_14
REMARK    6  A    between atoms: C_20  and  C_21
REMARK    7  A    between atoms: C_26  and  C_29
REMARK                            x       y       z     vdW  Elec       q    Type
REMARK                         _______ _______ _______ _____ _____    ______ ____
ROOT
ATOM      1  O   UNL     1      33.884 -11.362 -23.664  0.00  0.00    -0.273 OA
ATOM      2  N   UNL     1      32.948  -9.536 -22.564  0.00  0.00    -0.299 N 
ATOM      3  C   UNL     1      33.040 -10.871 -22.918  0.00  0.00    +0.241 C 
ATOM      4  H   UNL     1      32.224  -9.261 -21.956  0.00  0.00    +0.150 HD
ENDROOT
BRANCH   3   7
ATOM      5  O   UNL     1      33.721 -14.365 -20.412  0.00  0.00    -0.275 OA
ATOM      6  N   UNL     1      32.620 -12.497 -21.210  0.00  0.00    -0.273 N 
ATOM      7  C   UNL     1      31.984 -11.707 -22.261  0.00  0.00    +0.152 C 
ATOM      8  C   UNL     1      30.981 -10.826 -21.522  0.00  0.00    +0.031 C 
ATOM      9  C   UNL     1      31.622 -10.634 -20.149  0.00  0.00    +0.024 C 
ATOM     10  C   UNL     1      32.292 -11.974 -19.890  0.00  0.00    +0.094 C 
ATOM     11  C   UNL     1      33.326 -13.680 -21.358  0.00  0.00    +0.226 C 
BRANCH  11  12
ATOM     12  C   UNL     1      33.600 -14.117 -22.775  0.00  0.00    +0.090 C 
BRANCH  12  13
ATOM     13  C   UNL     1      34.948 -14.816 -22.868  0.00  0.00    +0.036 C 
BRANCH  13  14
ATOM     14  C   UNL     1      34.833 -16.313 -23.026  0.00  0.00    -0.022 C 
ATOM     15  C   UNL     1      35.336 -17.159 -22.038  0.00  0.00    -0.004 C 
ATOM     16  C   UNL     1      34.225 -16.850 -24.160  0.00  0.00    -0.004 C 
ATOM     17  C   UNL     1      35.230 -18.543 -22.183  0.00  0.00    -0.000 C 
ATOM     18  C   UNL     1      34.120 -18.233 -24.306  0.00  0.00    -0.000 C 
ATOM     19  C   UNL     1      34.622 -19.080 -23.318  0.00  0.00    -0.000 C 
ENDBRANCH  13  14
ENDBRANCH  12  13
ENDBRANCH  11  12
ENDBRANCH   3   7
BRANCH   2  20
ATOM     20  C   UNL     1      33.864  -8.526 -23.044  0.00  0.00    +0.116 C 
BRANCH  20  21
ATOM     21  C   UNL     1      33.288  -7.145 -22.924  0.00  0.00    -0.003 C 
ATOM     22  C   UNL     1      32.306  -6.880 -21.969  0.00  0.00    -0.003 C 
ATOM     23  C   UNL     1      33.733  -6.126 -23.768  0.00  0.00    -0.003 C 
ATOM     24  C   UNL     1      31.770  -5.597 -21.858  0.00  0.00    +0.002 C 
ATOM     25  C   UNL     1      33.197  -4.844 -23.656  0.00  0.00    +0.002 C 
ATOM     26  C   UNL     1      32.215  -4.579 -22.701  0.00  0.00    +0.031 C 
BRANCH  26  29
ATOM     27  N   UNL     1      30.606  -2.969 -21.709  0.00  0.00    -0.343 N 
ATOM     28  N   UNL     1      32.143  -2.258 -23.319  0.00  0.00    -0.285 NA
ATOM     29  C   UNL     1      31.656  -3.242 -22.584  0.00  0.00    +0.117 C 
ATOM     30  H   UNL     1      30.242  -2.056 -21.647  0.00  0.00    +0.144 HD
ATOM     31  H   UNL     1      30.227  -3.688 -21.155  0.00  0.00    +0.144 HD
ATOM     32  H   UNL     1      31.766  -1.352 -23.241  0.00  0.00    +0.188 HD
ENDBRANCH  26  29
ENDBRANCH  20  21
ENDBRANCH   2  20
TORSDOF 7
ENDMDL
MODEL 6
REMARK VINA RESULT:      -9.4      3.539      7.311
REMARK  Name = 25113615
REMARK  7 active torsions:
REMARK  status: ('A' for Active; 'I' for Inactive)
REMARK    1  A    between atoms: N_2  and  C_20
REMARK    2  A    between atoms: C_3  and  C_7
REMARK    3  A    between atoms: C_11  and  C_12
REMARK    4  A    between atoms: C_12  and  C_13
REMARK    5  A    between atoms: C_13  and  C_14
REMARK    6  A    between atoms: C_20  and  C_21
REMARK    7  A    between atoms: C_26  and  C_29
REMARK                            x       y       z     vdW  Elec       q    Type
REMARK                         _______ _______ _______ _____ _____    ______ ____
ROOT
ATOM      1  O   UNL     1      34.578 -23.205 -17.075  0.00  0.00    -0.273 OA
ATOM      2  N   UNL     1      36.002 -21.629 -18.027  0.00  0.00    -0.299 N 
ATOM      3  C   UNL     1      35.441 -22.336 -16.978  0.00  0.00    +0.241 C 
ATOM      4  H   UNL     1      36.688 -20.953 -17.823  0.00  0.00    +0.150 HD
ENDROOT
BRANCH   3   7
ATOM      5  O   UNL     1      35.248 -24.660 -13.302  0.00  0.00    -0.275 OA
ATOM      6  N   UNL     1      36.102 -23.144 -14.822  0.00  0.00    -0.273 N 
ATOM      7  C   UNL     1      36.024 -21.945 -15.654  0.00  0.00    +0.152 C 
ATOM      8  C   UNL     1      37.474 -21.497 -15.814  0.00  0.00    +0.031 C 
ATOM      9  C   UNL     1      38.260 -22.804 -15.726  0.00  0.00    +0.024 C 
ATOM     10  C   UNL     1      37.476 -23.611 -14.703  0.00  0.00    +0.094 C 
ATOM     11  C   UNL     1      35.080 -23.726 -14.090  0.00  0.00    +0.226 C 
BRANCH  11  12
ATOM     12  C   UNL     1      33.702 -23.151 -14.299  0.00  0.00    +0.090 C 
BRANCH  12  13
ATOM     13  C   UNL     1      32.672 -23.922 -13.486  0.00  0.00    +0.036 C 
BRANCH  13  14
ATOM     14  C   UNL     1      31.320 -23.996 -14.153  0.00  0.00    -0.022 C 
ATOM     15  C   UNL     1      30.959 -23.042 -15.104  0.00  0.00    -0.004 C 
ATOM     16  C   UNL     1      30.431 -25.016 -13.816  0.00  0.00    -0.004 C 
ATOM     17  C   UNL     1      29.709 -23.109 -15.721  0.00  0.00    -0.000 C 
ATOM     18  C   UNL     1      29.182 -25.084 -14.432  0.00  0.00    -0.000 C 
ATOM     19  C   UNL     1      28.820 -24.130 -15.385  0.00  0.00    -0.000 C 
ENDBRANCH  13  14
ENDBRANCH  12  13
ENDBRANCH  11  12
ENDBRANCH   3   7
BRANCH   2  20
ATOM     20  C   UNL     1      35.629 -21.835 -19.408  0.00  0.00    +0.116 C 
BRANCH  20  21
ATOM     21  C   UNL     1      35.531 -20.540 -20.162  0.00  0.00    -0.003 C 
ATOM     22  C   UNL     1      36.625 -19.676 -20.207  0.00  0.00    -0.003 C 
ATOM     23  C   UNL     1      34.345 -20.199 -20.814  0.00  0.00    -0.003 C 
ATOM     24  C   UNL     1      36.533 -18.471 -20.905  0.00  0.00    +0.002 C 
ATOM     25  C   UNL     1      34.254 -18.995 -21.512  0.00  0.00    +0.002 C 
ATOM     26  C   UNL     1      35.348 -18.131 -21.558  0.00  0.00    +0.031 C 
BRANCH  26  29
ATOM     27  N   UNL     1      34.972 -15.678 -21.633  0.00  0.00    -0.343 N 
ATOM     28  N   UNL     1      35.434 -16.860 -23.595  0.00  0.00    -0.285 NA
ATOM     29  C   UNL     1      35.254 -16.876 -22.286  0.00  0.00    +0.117 C 
ATOM     30  H   UNL     1      34.912 -14.840 -22.146  0.00  0.00    +0.144 HD
ATOM     31  H   UNL     1      34.832 -15.669 -20.659  0.00  0.00    +0.144 HD
ATOM     32  H   UNL     1      35.370 -16.011 -24.090  0.00  0.00    +0.188 HD
ENDBRANCH  26  29
ENDBRANCH  20  21
ENDBRANCH   2  20
TORSDOF 7
ENDMDL
MODEL 7
REMARK VINA RESULT:      -9.1      2.592      6.606
REMARK  Name = 25113615
REMARK  7 active torsions:
REMARK  status: ('A' for Active; 'I' for Inactive)
REMARK    1  A    between atoms: N_2  and  C_20
REMARK    2  A    between atoms: C_3  and  C_7
REMARK    3  A    between atoms: C_11  and  C_12
REMARK    4  A    between atoms: C_12  and  C_13
REMARK    5  A    between atoms: C_13  and  C_14
REMARK    6  A    between atoms: C_20  and  C_21
REMARK    7  A    between atoms: C_26  and  C_29
REMARK                            x       y       z     vdW  Elec       q    Type
REMARK                         _______ _______ _______ _____ _____    ______ ____
ROOT
ATOM      1  O   UNL     1      34.264 -24.691 -15.689  0.00  0.00    -0.273 OA
ATOM      2  N   UNL     1      35.466 -23.376 -14.190  0.00  0.00    -0.299 N 
ATOM      3  C   UNL     1      34.317 -23.827 -14.816  0.00  0.00    +0.241 C 
ATOM      4  H   UNL     1      35.381 -22.677 -13.503  0.00  0.00    +0.150 HD
ENDROOT
BRANCH   3   7
ATOM      5  O   UNL     1      30.550 -23.357 -16.947  0.00  0.00    -0.275 OA
ATOM      6  N   UNL     1      31.956 -23.567 -15.126  0.00  0.00    -0.273 N 
ATOM      7  C   UNL     1      33.084 -23.155 -14.294  0.00  0.00    +0.152 C 
ATOM      8  C   UNL     1      32.738 -23.670 -12.900  0.00  0.00    +0.031 C 
ATOM      9  C   UNL     1      31.890 -24.909 -13.181  0.00  0.00    +0.024 C 
ATOM     10  C   UNL     1      31.106 -24.518 -14.423  0.00  0.00    +0.094 C 
ATOM     11  C   UNL     1      31.592 -23.056 -16.361  0.00  0.00    +0.226 C 
BRANCH  11  12
ATOM     12  C   UNL     1      32.555 -22.078 -16.985  0.00  0.00    +0.090 C 
BRANCH  12  13
ATOM     13  C   UNL     1      33.203 -22.681 -18.223  0.00  0.00    +0.036 C 
BRANCH  13  14
ATOM     14  C   UNL     1      33.995 -21.680 -19.029  0.00  0.00    -0.022 C 
ATOM     15  C   UNL     1      35.387 -21.671 -18.956  0.00  0.00    -0.004 C 
ATOM     16  C   UNL     1      33.333 -20.763 -19.846  0.00  0.00    -0.004 C 
ATOM     17  C   UNL     1      36.120 -20.746 -19.701  0.00  0.00    -0.000 C 
ATOM     18  C   UNL     1      34.065 -19.838 -20.591  0.00  0.00    -0.000 C 
ATOM     19  C   UNL     1      35.459 -19.830 -20.518  0.00  0.00    -0.000 C 
ENDBRANCH  13  14
ENDBRANCH  12  13
ENDBRANCH  11  12
ENDBRANCH   3   7
BRANCH   2  20
ATOM     20  C   UNL     1      36.784 -23.883 -14.497  0.00  0.00    +0.116 C 
BRANCH  20  21
ATOM     21  C   UNL     1      37.053 -25.194 -13.816  0.00  0.00    -0.003 C 
ATOM     22  C   UNL     1      37.284 -25.231 -12.441  0.00  0.00    -0.003 C 
ATOM     23  C   UNL     1      37.075 -26.376 -14.559  0.00  0.00    -0.003 C 
ATOM     24  C   UNL     1      37.536 -26.449 -11.808  0.00  0.00    +0.002 C 
ATOM     25  C   UNL     1      37.327 -27.593 -13.926  0.00  0.00    +0.002 C 
ATOM     26  C   UNL     1      37.558 -27.629 -12.550  0.00  0.00    +0.031 C 
BRANCH  26  29
ATOM     27  N   UNL     1      38.591 -29.886 -12.498  0.00  0.00    -0.343 N 
ATOM     28  N   UNL     1      37.316 -29.132 -10.691  0.00  0.00    -0.285 NA
ATOM     29  C   UNL     1      37.819 -28.898 -11.890  0.00  0.00    +0.117 C 
ATOM     30  H   UNL     1      38.755 -30.738 -12.033  0.00  0.00    +0.144 HD
ATOM     31  H   UNL     1      38.972 -29.732 -13.392  0.00  0.00    +0.144 HD
ATOM     32  H   UNL     1      37.492 -29.990 -10.243  0.00  0.00    +0.188 HD
ENDBRANCH  26  29
ENDBRANCH  20  21
ENDBRANCH   2  20
TORSDOF 7
ENDMDL
MODEL 8
REMARK VINA RESULT:      -9.0      2.772      7.220
REMARK  Name = 25113615
REMARK  7 active torsions:
REMARK  status: ('A' for Active; 'I' for Inactive)
REMARK    1  A    between atoms: N_2  and  C_20
REMARK    2  A    between atoms: C_3  and  C_7
REMARK    3  A    between atoms: C_11  and  C_12
REMARK    4  A    between atoms: C_12  and  C_13
REMARK    5  A    between atoms: C_13  and  C_14
REMARK    6  A    between atoms: C_20  and  C_21
REMARK    7  A    between atoms: C_26  and  C_29
REMARK                            x       y       z     vdW  Elec       q    Type
REMARK                         _______ _______ _______ _____ _____    ______ ____
ROOT
ATOM      1  O   UNL     1      36.971 -20.671 -17.408  0.00  0.00    -0.273 OA
ATOM      2  N   UNL     1      35.867 -22.486 -16.454  0.00  0.00    -0.299 N 
ATOM      3  C   UNL     1      36.227 -21.645 -17.494  0.00  0.00    +0.241 C 
ATOM      4  H   UNL     1      35.261 -23.237 -16.648  0.00  0.00    +0.150 HD
ENDROOT
BRANCH   3   7
ATOM      5  O   UNL     1      32.111 -20.974 -18.743  0.00  0.00    -0.275 OA
ATOM      6  N   UNL     1      34.384 -21.307 -18.987  0.00  0.00    -0.273 N 
ATOM      7  C   UNL     1      35.620 -22.064 -18.799  0.00  0.00    +0.152 C 
ATOM      8  C   UNL     1      36.507 -21.642 -19.967  0.00  0.00    +0.031 C 
ATOM      9  C   UNL     1      36.050 -20.215 -20.261  0.00  0.00    +0.024 C 
ATOM     10  C   UNL     1      34.554 -20.269 -19.994  0.00  0.00    +0.094 C 
ATOM     11  C   UNL     1      33.143 -21.575 -18.435  0.00  0.00    +0.226 C 
BRANCH  11  12
ATOM     12  C   UNL     1      33.097 -22.676 -17.405  0.00  0.00    +0.090 C 
BRANCH  12  13
ATOM     13  C   UNL     1      31.725 -22.739 -16.750  0.00  0.00    +0.036 C 
BRANCH  13  14
ATOM     14  C   UNL     1      31.726 -23.479 -15.434  0.00  0.00    -0.022 C 
ATOM     15  C   UNL     1      32.858 -23.452 -14.620  0.00  0.00    -0.004 C 
ATOM     16  C   UNL     1      30.596 -24.190 -15.034  0.00  0.00    -0.004 C 
ATOM     17  C   UNL     1      32.860 -24.135 -13.403  0.00  0.00    -0.000 C 
ATOM     18  C   UNL     1      30.597 -24.874 -13.818  0.00  0.00    -0.000 C 
ATOM     19  C   UNL     1      31.729 -24.847 -13.003  0.00  0.00    -0.000 C 
ENDBRANCH  13  14
ENDBRANCH  12  13
ENDBRANCH  11  12
ENDBRANCH   3   7
BRANCH   2  20
ATOM     20  C   UNL     1      36.338 -22.313 -15.099  0.00  0.00    +0.116 C 
BRANCH  20  21
ATOM     21  C   UNL     1      36.632 -23.627 -14.435  0.00  0.00    -0.003 C 
ATOM     22  C   UNL     1      36.166 -24.813 -15.002  0.00  0.00    -0.003 C 
ATOM     23  C   UNL     1      37.369 -23.662 -13.251  0.00  0.00    -0.003 C 
ATOM     24  C   UNL     1      36.437 -26.035 -14.385  0.00  0.00    +0.002 C 
ATOM     25  C   UNL     1      37.640 -24.884 -12.634  0.00  0.00    +0.002 C 
ATOM     26  C   UNL     1      37.174 -26.070 -13.201  0.00  0.00    +0.031 C 
BRANCH  26  29
ATOM     27  N   UNL     1      37.813 -28.467 -13.302  0.00  0.00    -0.343 N 
ATOM     28  N   UNL     1      37.375 -27.450 -11.245  0.00  0.00    -0.285 NA
ATOM     29  C   UNL     1      37.457 -27.344 -12.559  0.00  0.00    +0.117 C 
ATOM     30  H   UNL     1      37.999 -29.320 -12.847  0.00  0.00    +0.144 HD
ATOM     31  H   UNL     1      37.876 -28.409 -14.283  0.00  0.00    +0.144 HD
ATOM     32  H   UNL     1      37.566 -28.312 -10.808  0.00  0.00    +0.188 HD
ENDBRANCH  26  29
ENDBRANCH  20  21
ENDBRANCH   2  20
TORSDOF 7
ENDMDL
MODEL 9
REMARK VINA RESULT:      -9.0     14.009     17.394
REMARK  Name = 25113615
REMARK  7 active torsions:
REMARK  status: ('A' for Active; 'I' for Inactive)
REMARK    1  A    between atoms: N_2  and  C_20
REMARK    2  A    between atoms: C_3  and  C_7
REMARK    3  A    between atoms: C_11  and  C_12
REMARK    4  A    between atoms: C_12  and  C_13
REMARK    5  A    between atoms: C_13  and  C_14
REMARK    6  A    between atoms: C_20  and  C_21
REMARK    7  A    between atoms: C_26  and  C_29
REMARK                            x       y       z     vdW  Elec       q    Type
REMARK                         _______ _______ _______ _____ _____    ______ ____
ROOT
ATOM      1  O   UNL     1      30.767  -8.193 -22.907  0.00  0.00    -0.273 OA
ATOM      2  N   UNL     1      32.062  -9.407 -21.400  0.00  0.00    -0.299 N 
ATOM      3  C   UNL     1      31.717  -8.284 -22.133  0.00  0.00    +0.241 C 
ATOM      4  H   UNL     1      32.849  -9.358 -20.811  0.00  0.00    +0.150 HD
ENDROOT
BRANCH   3   7
ATOM      5  O   UNL     1      30.685  -4.065 -22.430  0.00  0.00    -0.275 OA
ATOM      6  N   UNL     1      31.815  -5.934 -21.677  0.00  0.00    -0.273 N 
ATOM      7  C   UNL     1      32.635  -7.129 -21.868  0.00  0.00    +0.152 C 
ATOM      8  C   UNL     1      33.359  -7.310 -20.537  0.00  0.00    +0.031 C 
ATOM      9  C   UNL     1      32.387  -6.716 -19.520  0.00  0.00    +0.024 C 
ATOM     10  C   UNL     1      31.770  -5.549 -20.273  0.00  0.00    +0.094 C 
ATOM     11  C   UNL     1      31.253  -5.136 -22.659  0.00  0.00    +0.226 C 
BRANCH  11  12
ATOM     12  C   UNL     1      31.368  -5.643 -24.075  0.00  0.00    +0.090 C 
BRANCH  12  13
ATOM     13  C   UNL     1      31.631  -4.492 -25.036  0.00  0.00    +0.036 C 
BRANCH  13  14
ATOM     14  C   UNL     1      33.041  -4.475 -25.575  0.00  0.00    -0.022 C 
ATOM     15  C   UNL     1      34.050  -5.173 -24.911  0.00  0.00    -0.004 C 
ATOM     16  C   UNL     1      33.335  -3.761 -26.736  0.00  0.00    -0.004 C 
ATOM     17  C   UNL     1      35.353  -5.159 -25.409  0.00  0.00    -0.000 C 
ATOM     18  C   UNL     1      34.638  -3.746 -27.234  0.00  0.00    -0.000 C 
ATOM     19  C   UNL     1      35.647  -4.444 -26.570  0.00  0.00    -0.000 C 
ENDBRANCH  13  14
ENDBRANCH  12  13
ENDBRANCH  11  12
ENDBRANCH   3   7
BRANCH   2  20
ATOM     20  C   UNL     1      31.321 -10.646 -21.459  0.00  0.00    +0.116 C 
BRANCH  20  21
ATOM     21  C   UNL     1      32.226 -11.832 -21.629  0.00  0.00    -0.003 C 
ATOM     22  C   UNL     1      32.968 -11.980 -22.802  0.00  0.00    -0.003 C 
ATOM     23  C   UNL     1      32.324 -12.788 -20.617  0.00  0.00    -0.003 C 
ATOM     24  C   UNL     1      33.807 -13.083 -22.962  0.00  0.00    +0.002 C 
ATOM     25  C   UNL     1      33.164 -13.890 -20.778  0.00  0.00    +0.002 C 
ATOM     26  C   UNL     1      33.905 -14.038 -21.950  0.00  0.00    +0.031 C 
BRANCH  26  29
ATOM     27  N   UNL     1      34.995 -16.091 -21.080  0.00  0.00    -0.343 N 
ATOM     28  N   UNL     1      35.394 -15.385 -23.270  0.00  0.00    -0.285 NA
ATOM     29  C   UNL     1      34.781 -15.187 -22.117  0.00  0.00    +0.117 C 
ATOM     30  H   UNL     1      35.593 -16.862 -21.214  0.00  0.00    +0.144 HD
ATOM     31  H   UNL     1      34.550 -15.960 -20.212  0.00  0.00    +0.144 HD
ATOM     32  H   UNL     1      35.987 -16.161 -23.385  0.00  0.00    +0.188 HD
ENDBRANCH  26  29
ENDBRANCH  20  21
ENDBRANCH   2  20
TORSDOF 7
ENDMDL
