MODEL 1
REMARK VINA RESULT:     -12.6      0.000      0.000
REMARK  Name = 24780387
REMARK  3 active torsions:
REMARK  status: ('A' for Active; 'I' for Inactive)
REMARK    1  A    between atoms: N_3  and  C_25
REMARK    2  A    between atoms: C_18  and  O_23
REMARK    3  A    between atoms: C_25  and  N_26
REMARK                            x       y       z     vdW  Elec       q    Type
REMARK                         _______ _______ _______ _____ _____    ______ ____
ROOT
ATOM      1  O   UNL     1      33.282 -24.770 -12.329  0.00  0.00    -0.270 OA
ATOM      2  O   UNL     1      36.447 -23.137 -15.273  0.00  0.00    -0.270 OA
ATOM      3  N   UNL     1      35.165 -24.063 -13.547  0.00  0.00    -0.244 N 
ATOM      4  N   UNL     1      32.144 -22.000 -18.060  0.00  0.00    -0.353 N 
ATOM      5  C   UNL     1      31.785 -23.700 -14.743  0.00  0.00    -0.020 A 
ATOM      6  C   UNL     1      31.363 -23.118 -15.948  0.00  0.00    -0.010 A 
ATOM      7  C   UNL     1      33.124 -23.748 -14.464  0.00  0.00    +0.054 A 
ATOM      8  C   UNL     1      30.616 -24.145 -13.926  0.00  0.00    +0.027 C 
ATOM      9  C   UNL     1      29.862 -23.119 -16.035  0.00  0.00    +0.028 C 
ATOM     10  C   UNL     1      32.314 -22.610 -16.844  0.00  0.00    +0.052 A 
ATOM     11  C   UNL     1      34.068 -23.247 -15.361  0.00  0.00    +0.059 A 
ATOM     12  C   UNL     1      29.505 -24.180 -14.986  0.00  0.00    +0.009 C 
ATOM     13  C   UNL     1      33.696 -22.660 -16.585  0.00  0.00    +0.024 A 
ATOM     14  C   UNL     1      33.829 -24.270 -13.295  0.00  0.00    +0.253 C 
ATOM     15  C   UNL     1      35.388 -23.454 -14.765  0.00  0.00    +0.253 C 
ATOM     16  C   UNL     1      34.352 -22.058 -17.713  0.00  0.00    +0.051 A 
ATOM     17  C   UNL     1      33.356 -21.659 -18.610  0.00  0.00    +0.060 A 
ATOM     18  C   UNL     1      35.693 -21.804 -18.073  0.00  0.00    +0.140 C 
ATOM     19  C   UNL     1      33.631 -21.029 -19.830  0.00  0.00    +0.017 C 
ATOM     20  C   UNL     1      35.986 -21.176 -19.290  0.00  0.00    +0.037 C 
ATOM     21  C   UNL     1      34.966 -20.794 -20.156  0.00  0.00    +0.005 C 
ATOM     22  H   UNL     1      31.271 -21.829 -18.484  0.00  0.00    +0.166 HD
ENDROOT
BRANCH  18  23
ATOM     23  O   UNL     1      36.786 -22.135 -17.322  0.00  0.00    -0.471 OA
ATOM     24  C   UNL     1      37.538 -21.059 -16.771  0.00  0.00    +0.252 C 
ENDBRANCH  18  23
BRANCH   3  25
ATOM     25  C   UNL     1      36.234 -24.436 -12.640  0.00  0.00    +0.028 C 
BRANCH  25  26
ATOM     26  N   UNL     1      37.322 -25.038 -13.406  0.00  0.00    +0.396 N 
ATOM     27  N   UNL     1      39.410 -26.997 -13.814  0.00  0.00    +0.383 N 
ATOM     28  C   UNL     1      38.584 -24.975 -12.658  0.00  0.00    -0.098 C 
ATOM     29  C   UNL     1      37.005 -26.428 -13.759  0.00  0.00    -0.098 C 
ATOM     30  C   UNL     1      39.727 -25.608 -13.460  0.00  0.00    -0.101 C 
ATOM     31  C   UNL     1      38.148 -27.060 -14.562  0.00  0.00    -0.101 C 
ATOM     32  C   UNL     1      40.499 -27.598 -14.581  0.00  0.00    -0.101 C 
ATOM     33  H   UNL     1      37.434 -24.505 -14.269  0.00  0.00    -0.077 HD
ATOM     34  H   UNL     1      39.300 -27.531 -12.952  0.00  0.00    -0.080 HD
ENDBRANCH  25  26
ENDBRANCH   3  25
TORSDOF 3
ENDMDL
MODEL 2
REMARK VINA RESULT:     -11.4      1.090      4.532
REMARK  Name = 24780387
REMARK  3 active torsions:
REMARK  status: ('A' for Active; 'I' for Inactive)
REMARK    1  A    between atoms: N_3  and  C_25
REMARK    2  A    between atoms: C_18  and  O_23
REMARK    3  A    between atoms: C_25  and  N_26
REMARK                            x       y       z     vdW  Elec       q    Type
REMARK                         _______ _______ _______ _____ _____    ______ ____
ROOT
ATOM      1  O   UNL     1      37.761 -22.627 -16.214  0.00  0.00    -0.270 OA
ATOM      2  O   UNL     1      34.272 -24.129 -13.583  0.00  0.00    -0.270 OA
ATOM      3  N   UNL     1      36.279 -23.503 -14.612  0.00  0.00    -0.244 N 
ATOM      4  N   UNL     1      31.458 -22.309 -17.625  0.00  0.00    -0.353 N 
ATOM      5  C   UNL     1      35.189 -22.008 -17.704  0.00  0.00    -0.020 A 
ATOM      6  C   UNL     1      33.873 -21.868 -18.168  0.00  0.00    -0.010 A 
ATOM      7  C   UNL     1      35.405 -22.607 -16.492  0.00  0.00    +0.054 A 
ATOM      8  C   UNL     1      36.167 -21.483 -18.704  0.00  0.00    +0.027 C 
ATOM      9  C   UNL     1      33.860 -21.238 -19.533  0.00  0.00    +0.028 C 
ATOM     10  C   UNL     1      32.807 -22.330 -17.383  0.00  0.00    +0.052 A 
ATOM     11  C   UNL     1      34.342 -23.059 -15.711  0.00  0.00    +0.059 A 
ATOM     12  C   UNL     1      35.259 -20.609 -19.582  0.00  0.00    +0.009 C 
ATOM     13  C   UNL     1      33.003 -22.936 -16.128  0.00  0.00    +0.024 A 
ATOM     14  C   UNL     1      36.653 -22.895 -15.787  0.00  0.00    +0.253 C 
ATOM     15  C   UNL     1      34.911 -23.637 -14.493  0.00  0.00    +0.253 C 
ATOM     16  C   UNL     1      31.701 -23.271 -15.621  0.00  0.00    +0.051 A 
ATOM     17  C   UNL     1      30.765 -22.867 -16.578  0.00  0.00    +0.060 A 
ATOM     18  C   UNL     1      31.210 -23.878 -14.445  0.00  0.00    +0.140 C 
ATOM     19  C   UNL     1      29.383 -23.038 -16.420  0.00  0.00    +0.017 C 
ATOM     20  C   UNL     1      29.832 -24.057 -14.270  0.00  0.00    +0.037 C 
ATOM     21  C   UNL     1      28.932 -23.641 -15.246  0.00  0.00    +0.005 C 
ATOM     22  H   UNL     1      31.041 -21.944 -18.439  0.00  0.00    +0.166 HD
ENDROOT
BRANCH  18  23
ATOM     23  O   UNL     1      31.982 -24.322 -13.408  0.00  0.00    -0.471 OA
ATOM     24  C   UNL     1      31.327 -25.084 -12.398  0.00  0.00    +0.252 C 
ENDBRANCH  18  23
BRANCH   3  25
ATOM     25  C   UNL     1      37.211 -23.962 -13.599  0.00  0.00    +0.028 C 
BRANCH  25  26
ATOM     26  N   UNL     1      38.139 -24.917 -14.200  0.00  0.00    +0.396 N 
ATOM     27  N   UNL     1      39.665 -27.373 -14.204  0.00  0.00    +0.383 N 
ATOM     28  C   UNL     1      39.341 -25.070 -13.370  0.00  0.00    -0.098 C 
ATOM     29  C   UNL     1      37.489 -26.217 -14.405  0.00  0.00    -0.098 C 
ATOM     30  C   UNL     1      40.314 -26.073 -13.998  0.00  0.00    -0.101 C 
ATOM     31  C   UNL     1      38.463 -27.220 -15.034  0.00  0.00    -0.101 C 
ATOM     32  C   UNL     1      40.594 -28.327 -14.807  0.00  0.00    -0.101 C 
ATOM     33  H   UNL     1      38.422 -24.552 -15.109  0.00  0.00    -0.077 HD
ATOM     34  H   UNL     1      39.383 -27.739 -13.295  0.00  0.00    -0.080 HD
ENDBRANCH  25  26
ENDBRANCH   3  25
TORSDOF 3
ENDMDL
MODEL 3
REMARK VINA RESULT:     -10.7      2.371      6.697
REMARK  Name = 24780387
REMARK  3 active torsions:
REMARK  status: ('A' for Active; 'I' for Inactive)
REMARK    1  A    between atoms: N_3  and  C_25
REMARK    2  A    between atoms: C_18  and  O_23
REMARK    3  A    between atoms: C_25  and  N_26
REMARK                            x       y       z     vdW  Elec       q    Type
REMARK                         _______ _______ _______ _____ _____    ______ ____
ROOT
ATOM      1  O   UNL     1      32.623 -22.185 -18.849  0.00  0.00    -0.270 OA
ATOM      2  O   UNL     1      36.690 -22.598 -16.695  0.00  0.00    -0.270 OA
ATOM      3  N   UNL     1      34.854 -22.297 -18.116  0.00  0.00    -0.244 N 
ATOM      4  N   UNL     1      33.553 -23.742 -12.642  0.00  0.00    -0.353 N 
ATOM      5  C   UNL     1      32.033 -22.907 -15.960  0.00  0.00    -0.020 A 
ATOM      6  C   UNL     1      32.055 -23.262 -14.603  0.00  0.00    -0.010 A 
ATOM      7  C   UNL     1      33.219 -22.714 -16.615  0.00  0.00    +0.054 A 
ATOM      8  C   UNL     1      30.631 -22.846 -16.473  0.00  0.00    +0.027 C 
ATOM      9  C   UNL     1      30.658 -23.477 -14.092  0.00  0.00    +0.028 C 
ATOM     10  C   UNL     1      33.284 -23.401 -13.942  0.00  0.00    +0.052 A 
ATOM     11  C   UNL     1      34.439 -22.846 -15.952  0.00  0.00    +0.059 A 
ATOM     12  C   UNL     1      29.835 -22.748 -15.163  0.00  0.00    +0.009 C 
ATOM     13  C   UNL     1      34.516 -23.195 -14.590  0.00  0.00    +0.024 A 
ATOM     14  C   UNL     1      33.485 -22.363 -18.009  0.00  0.00    +0.253 C 
ATOM     15  C   UNL     1      35.496 -22.574 -16.927  0.00  0.00    +0.253 C 
ATOM     16  C   UNL     1      35.542 -23.418 -13.610  0.00  0.00    +0.051 A 
ATOM     17  C   UNL     1      34.907 -23.756 -12.411  0.00  0.00    +0.060 A 
ATOM     18  C   UNL     1      36.954 -23.370 -13.610  0.00  0.00    +0.140 C 
ATOM     19  C   UNL     1      35.603 -24.045 -11.230  0.00  0.00    +0.017 C 
ATOM     20  C   UNL     1      37.665 -23.655 -12.437  0.00  0.00    +0.037 C 
ATOM     21  C   UNL     1      36.996 -23.988 -11.264  0.00  0.00    +0.005 C 
ATOM     22  H   UNL     1      32.869 -23.948 -11.963  0.00  0.00    +0.166 HD
ENDROOT
BRANCH  18  23
ATOM     23  O   UNL     1      37.730 -23.049 -14.688  0.00  0.00    -0.471 OA
ATOM     24  C   UNL     1      38.832 -23.908 -14.966  0.00  0.00    +0.252 C 
ENDBRANCH  18  23
BRANCH   3  25
ATOM     25  C   UNL     1      35.562 -21.974 -19.341  0.00  0.00    +0.028 C 
BRANCH  25  26
ATOM     26  N   UNL     1      35.398 -20.551 -19.627  0.00  0.00    +0.396 N 
ATOM     27  N   UNL     1      35.571 -18.232 -21.345  0.00  0.00    +0.383 N 
ATOM     28  C   UNL     1      36.691 -19.930 -19.943  0.00  0.00    -0.098 C 
ATOM     29  C   UNL     1      34.449 -20.345 -20.728  0.00  0.00    -0.098 C 
ATOM     30  C   UNL     1      36.521 -18.437 -20.245  0.00  0.00    -0.101 C 
ATOM     31  C   UNL     1      34.278 -18.852 -21.029  0.00  0.00    -0.101 C 
ATOM     32  C   UNL     1      35.408 -16.807 -21.628  0.00  0.00    -0.101 C 
ATOM     33  H   UNL     1      35.023 -20.103 -18.791  0.00  0.00    -0.077 HD
ATOM     34  H   UNL     1      35.947 -18.678 -22.181  0.00  0.00    -0.080 HD
ENDBRANCH  25  26
ENDBRANCH   3  25
TORSDOF 3
ENDMDL
