MODEL 1
REMARK VINA RESULT:     -12.2      0.000      0.000
REMARK  Name = 25191001
REMARK  7 active torsions:
REMARK  status: ('A' for Active; 'I' for Inactive)
REMARK    1  A    between atoms: C_1  and  N_9
REMARK    2  A    between atoms: C_2  and  O_24
REMARK    3  A    between atoms: N_8  and  C_14
REMARK    4  A    between atoms: C_15  and  C_23
REMARK    5  A    between atoms: O_24  and  C_26
REMARK    6  A    between atoms: C_28  and  C_33
REMARK    7  A    between atoms: N_32  and  C_35
REMARK                            x       y       z     vdW  Elec       q    Type
REMARK                         _______ _______ _______ _____ _____    ______ ____
ROOT
ATOM      1  C   UNL     1      33.802 -13.695 -22.925  0.00  0.00    +0.052 C 
ATOM      2  C   UNL     1      34.685 -16.316 -23.291  0.00  0.00    +0.145 C 
ATOM      3  C   UNL     1      34.448 -14.365 -21.886  0.00  0.00    +0.018 C 
ATOM      4  C   UNL     1      33.597 -14.336 -24.147  0.00  0.00    +0.018 C 
ATOM      5  C   UNL     1      34.890 -15.675 -22.069  0.00  0.00    +0.039 C 
ATOM      6  C   UNL     1      34.039 -15.647 -24.330  0.00  0.00    +0.039 C 
ENDROOT
BRANCH   1   9
ATOM      7  O   UNL     1      34.739 -11.151 -24.179  0.00  0.00    -0.252 OA
ATOM      8  N   UNL     1      33.106 -10.075 -22.889  0.00  0.00    -0.268 N 
ATOM      9  N   UNL     1      33.353 -12.366 -22.739  0.00  0.00    -0.268 N 
ATOM     10  C   UNL     1      33.830 -11.199 -23.356  0.00  0.00    +0.308 C 
ATOM     11  H   UNL     1      32.403 -10.265 -22.227  0.00  0.00    +0.156 HD
ATOM     12  H   UNL     1      32.617 -12.246 -22.097  0.00  0.00    +0.156 HD
BRANCH   8  14
ATOM     13 CL   UNL     1      33.779  -4.401 -24.402  0.00  0.00    -0.082 Cl
ATOM     14  C   UNL     1      33.257  -8.733 -23.243  0.00  0.00    +0.052 C 
ATOM     15  C   UNL     1      32.399  -6.476 -23.300  0.00  0.00    +0.083 C 
ATOM     16  C   UNL     1      32.248  -7.817 -22.946  0.00  0.00    +0.019 C 
ATOM     17  C   UNL     1      34.415  -8.310 -23.893  0.00  0.00    +0.016 C 
ATOM     18  C   UNL     1      33.558  -6.051 -23.950  0.00  0.00    +0.062 C 
ATOM     19  C   UNL     1      34.566  -6.969 -24.247  0.00  0.00    +0.013 C 
BRANCH  15  23
ATOM     20  F   UNL     1      30.284  -6.095 -22.246  0.00  0.00    -0.166 F 
ATOM     21  F   UNL     1      31.706  -4.458 -22.219  0.00  0.00    -0.166 F 
ATOM     22  F   UNL     1      30.707  -4.996 -24.074  0.00  0.00    -0.166 F 
ATOM     23  C   UNL     1      31.295  -5.525 -22.964  0.00  0.00    +0.419 C 
ENDBRANCH  15  23
ENDBRANCH   8  14
ENDBRANCH   1   9
BRANCH   2  24
ATOM     24  O   UNL     1      35.113 -17.596 -23.469  0.00  0.00    -0.453 OA
BRANCH  24  26
ATOM     25  N   UNL     1      35.915 -19.873 -20.057  0.00  0.00    -0.239 NA
ATOM     26  C   UNL     1      35.378 -18.350 -22.338  0.00  0.00    +0.149 C 
ATOM     27  C   UNL     1      34.363 -19.081 -21.732  0.00  0.00    +0.061 C 
ATOM     28  C   UNL     1      34.679 -19.820 -20.604  0.00  0.00    +0.137 C 
ATOM     29  C   UNL     1      36.662 -18.379 -21.805  0.00  0.00    +0.058 C 
ATOM     30  C   UNL     1      36.877 -19.149 -20.673  0.00  0.00    +0.102 C 
BRANCH  28  33
ATOM     31  O   UNL     1      32.471 -20.548 -20.302  0.00  0.00    -0.269 OA
ATOM     32  N   UNL     1      34.077 -21.426 -18.877  0.00  0.00    -0.313 N 
ATOM     33  C   UNL     1      33.658 -20.603 -19.930  0.00  0.00    +0.263 C 
ATOM     34  H   UNL     1      35.031 -21.421 -18.635  0.00  0.00    +0.149 HD
ATOM     35  C   UNL     1      33.187 -22.280 -18.127  0.00  0.00    +0.128 C 
ENDBRANCH  28  33
ENDBRANCH  24  26
ENDBRANCH   2  24
TORSDOF 6
ENDMDL
MODEL 2
REMARK VINA RESULT:     -12.2      2.108      3.124
REMARK  Name = 25191001
REMARK  7 active torsions:
REMARK  status: ('A' for Active; 'I' for Inactive)
REMARK    1  A    between atoms: C_1  and  N_9
REMARK    2  A    between atoms: C_2  and  O_24
REMARK    3  A    between atoms: N_8  and  C_14
REMARK    4  A    between atoms: C_15  and  C_23
REMARK    5  A    between atoms: O_24  and  C_26
REMARK    6  A    between atoms: C_28  and  C_33
REMARK    7  A    between atoms: N_32  and  C_35
REMARK                            x       y       z     vdW  Elec       q    Type
REMARK                         _______ _______ _______ _____ _____    ______ ____
ROOT
ATOM      1  C   UNL     1      34.469 -15.954 -23.383  0.00  0.00    +0.052 C 
ATOM      2  C   UNL     1      35.121 -18.512 -22.480  0.00  0.00    +0.145 C 
ATOM      3  C   UNL     1      34.182 -17.068 -24.173  0.00  0.00    +0.018 C 
ATOM      4  C   UNL     1      35.083 -16.119 -22.142  0.00  0.00    +0.018 C 
ATOM      5  C   UNL     1      34.507 -18.346 -23.721  0.00  0.00    +0.039 C 
ATOM      6  C   UNL     1      35.409 -17.398 -21.689  0.00  0.00    +0.039 C 
ENDROOT
BRANCH   1   9
ATOM      7  O   UNL     1      34.775 -13.301 -22.046  0.00  0.00    -0.252 OA
ATOM      8  N   UNL     1      33.846 -12.371 -23.985  0.00  0.00    -0.268 N 
ATOM      9  N   UNL     1      34.140 -14.657 -23.843  0.00  0.00    -0.268 N 
ATOM     10  C   UNL     1      34.304 -13.435 -23.171  0.00  0.00    +0.308 C 
ATOM     11  H   UNL     1      33.492 -12.629 -24.867  0.00  0.00    +0.156 HD
ATOM     12  H   UNL     1      33.747 -14.605 -24.744  0.00  0.00    +0.156 HD
BRANCH   8  14
ATOM     13 CL   UNL     1      33.804  -6.577 -22.816  0.00  0.00    -0.082 Cl
ATOM     14  C   UNL     1      33.829 -11.004 -23.703  0.00  0.00    +0.052 C 
ATOM     15  C   UNL     1      32.896  -9.127 -22.502  0.00  0.00    +0.083 C 
ATOM     16  C   UNL     1      32.912 -10.493 -22.784  0.00  0.00    +0.019 C 
ATOM     17  C   UNL     1      34.728 -10.150 -24.341  0.00  0.00    +0.016 C 
ATOM     18  C   UNL     1      33.795  -8.272 -23.139  0.00  0.00    +0.062 C 
ATOM     19  C   UNL     1      34.711  -8.784 -24.059  0.00  0.00    +0.013 C 
BRANCH  15  23
ATOM     20  F   UNL     1      31.090  -9.593 -21.002  0.00  0.00    -0.166 F 
ATOM     21  F   UNL     1      32.469  -8.023 -20.424  0.00  0.00    -0.166 F 
ATOM     22  F   UNL     1      31.061  -7.686 -22.046  0.00  0.00    -0.166 F 
ATOM     23  C   UNL     1      31.899  -8.619 -21.511  0.00  0.00    +0.419 C 
ENDBRANCH  15  23
ENDBRANCH   8  14
ENDBRANCH   1   9
BRANCH   2  24
ATOM     24  O   UNL     1      35.442 -19.759 -22.039  0.00  0.00    -0.453 OA
BRANCH  24  26
ATOM     25  N   UNL     1      33.365 -21.238 -18.726  0.00  0.00    -0.239 NA
ATOM     26  C   UNL     1      34.755 -20.250 -20.942  0.00  0.00    +0.149 C 
ATOM     27  C   UNL     1      35.444 -20.866 -19.903  0.00  0.00    +0.061 C 
ATOM     28  C   UNL     1      34.710 -21.339 -18.828  0.00  0.00    +0.137 C 
ATOM     29  C   UNL     1      33.371 -20.127 -20.874  0.00  0.00    +0.058 C 
ATOM     30  C   UNL     1      32.729 -20.633 -19.755  0.00  0.00    +0.102 C 
BRANCH  28  33
ATOM     31  O   UNL     1      34.809 -22.901 -17.082  0.00  0.00    -0.269 OA
ATOM     32  N   UNL     1      36.678 -21.568 -17.414  0.00  0.00    -0.313 N 
ATOM     33  C   UNL     1      35.378 -21.992 -17.715  0.00  0.00    +0.263 C 
ATOM     34  H   UNL     1      37.067 -20.844 -17.955  0.00  0.00    +0.149 HD
ATOM     35  C   UNL     1      37.479 -22.135 -16.354  0.00  0.00    +0.128 C 
ENDBRANCH  28  33
ENDBRANCH  24  26
ENDBRANCH   2  24
TORSDOF 6
ENDMDL
MODEL 3
REMARK VINA RESULT:     -12.0      2.288      3.164
REMARK  Name = 25191001
REMARK  7 active torsions:
REMARK  status: ('A' for Active; 'I' for Inactive)
REMARK    1  A    between atoms: C_1  and  N_9
REMARK    2  A    between atoms: C_2  and  O_24
REMARK    3  A    between atoms: N_8  and  C_14
REMARK    4  A    between atoms: C_15  and  C_23
REMARK    5  A    between atoms: O_24  and  C_26
REMARK    6  A    between atoms: C_28  and  C_33
REMARK    7  A    between atoms: N_32  and  C_35
REMARK                            x       y       z     vdW  Elec       q    Type
REMARK                         _______ _______ _______ _____ _____    ______ ____
ROOT
ATOM      1  C   UNL     1      34.541 -15.384 -23.159  0.00  0.00    +0.052 C 
ATOM      2  C   UNL     1      35.254 -17.996 -22.484  0.00  0.00    +0.145 C 
ATOM      3  C   UNL     1      34.447 -16.401 -24.109  0.00  0.00    +0.018 C 
ATOM      4  C   UNL     1      34.992 -15.673 -21.871  0.00  0.00    +0.018 C 
ATOM      5  C   UNL     1      34.803 -17.707 -23.772  0.00  0.00    +0.039 C 
ATOM      6  C   UNL     1      35.349 -16.980 -21.532  0.00  0.00    +0.039 C 
ENDROOT
BRANCH   1   9
ATOM      7  O   UNL     1      33.797 -13.077 -21.414  0.00  0.00    -0.252 OA
ATOM      8  N   UNL     1      33.543 -11.843 -23.389  0.00  0.00    -0.268 N 
ATOM      9  N   UNL     1      34.181 -14.060 -23.501  0.00  0.00    -0.268 N 
ATOM     10  C   UNL     1      33.838 -13.007 -22.638  0.00  0.00    +0.308 C 
ATOM     11  H   UNL     1      33.618 -11.935 -24.367  0.00  0.00    +0.156 HD
ATOM     12  H   UNL     1      34.169 -13.851 -24.463  0.00  0.00    +0.156 HD
BRANCH   8  14
ATOM     13 CL   UNL     1      31.898  -6.520 -21.416  0.00  0.00    -0.082 Cl
ATOM     14  C   UNL     1      33.162 -10.582 -22.928  0.00  0.00    +0.052 C 
ATOM     15  C   UNL     1      33.512  -8.194 -22.838  0.00  0.00    +0.083 C 
ATOM     16  C   UNL     1      33.893  -9.454 -23.299  0.00  0.00    +0.019 C 
ATOM     17  C   UNL     1      32.051 -10.452 -22.096  0.00  0.00    +0.016 C 
ATOM     18  C   UNL     1      32.400  -8.062 -22.006  0.00  0.00    +0.062 C 
ATOM     19  C   UNL     1      31.669  -9.192 -21.634  0.00  0.00    +0.013 C 
BRANCH  15  23
ATOM     20  F   UNL     1      33.637  -5.830 -23.188  0.00  0.00    -0.166 F 
ATOM     21  F   UNL     1      35.440  -6.819 -22.502  0.00  0.00    -0.166 F 
ATOM     22  F   UNL     1      34.757  -7.107 -24.546  0.00  0.00    -0.166 F 
ATOM     23  C   UNL     1      34.320  -7.009 -23.258  0.00  0.00    +0.419 C 
ENDBRANCH  15  23
ENDBRANCH   8  14
ENDBRANCH   1   9
BRANCH   2  24
ATOM     24  O   UNL     1      35.605 -19.270 -22.154  0.00  0.00    -0.453 OA
BRANCH  24  26
ATOM     25  N   UNL     1      33.443 -21.149 -19.110  0.00  0.00    -0.239 NA
ATOM     26  C   UNL     1      34.889 -19.893 -21.146  0.00  0.00    +0.149 C 
ATOM     27  C   UNL     1      35.557 -20.518 -20.099  0.00  0.00    +0.061 C 
ATOM     28  C   UNL     1      34.795 -21.126 -19.114  0.00  0.00    +0.137 C 
ATOM     29  C   UNL     1      33.499 -19.894 -21.176  0.00  0.00    +0.058 C 
ATOM     30  C   UNL     1      32.828 -20.531 -20.144  0.00  0.00    +0.102 C 
BRANCH  28  33
ATOM     31  O   UNL     1      34.882 -22.750 -17.425  0.00  0.00    -0.269 OA
ATOM     32  N   UNL     1      36.707 -21.332 -17.622  0.00  0.00    -0.313 N 
ATOM     33  C   UNL     1      35.440 -21.795 -17.997  0.00  0.00    +0.263 C 
ATOM     34  H   UNL     1      37.089 -20.572 -18.117  0.00  0.00    +0.149 HD
ATOM     35  C   UNL     1      37.483 -21.908 -16.548  0.00  0.00    +0.128 C 
ENDBRANCH  28  33
ENDBRANCH  24  26
ENDBRANCH   2  24
TORSDOF 6
ENDMDL
MODEL 4
REMARK VINA RESULT:     -11.8      1.283      1.840
REMARK  Name = 25191001
REMARK  7 active torsions:
REMARK  status: ('A' for Active; 'I' for Inactive)
REMARK    1  A    between atoms: C_1  and  N_9
REMARK    2  A    between atoms: C_2  and  O_24
REMARK    3  A    between atoms: N_8  and  C_14
REMARK    4  A    between atoms: C_15  and  C_23
REMARK    5  A    between atoms: O_24  and  C_26
REMARK    6  A    between atoms: C_28  and  C_33
REMARK    7  A    between atoms: N_32  and  C_35
REMARK                            x       y       z     vdW  Elec       q    Type
REMARK                         _______ _______ _______ _____ _____    ______ ____
ROOT
ATOM      1  C   UNL     1      33.446 -13.845 -22.770  0.00  0.00    +0.052 C 
ATOM      2  C   UNL     1      34.814 -16.245 -23.163  0.00  0.00    +0.145 C 
ATOM      3  C   UNL     1      33.413 -14.471 -24.017  0.00  0.00    +0.018 C 
ATOM      4  C   UNL     1      34.164 -14.419 -21.721  0.00  0.00    +0.018 C 
ATOM      5  C   UNL     1      34.096 -15.671 -24.213  0.00  0.00    +0.039 C 
ATOM      6  C   UNL     1      34.848 -15.619 -21.917  0.00  0.00    +0.039 C 
ENDROOT
BRANCH   1   9
ATOM      7  O   UNL     1      34.357 -11.026 -23.158  0.00  0.00    -0.252 OA
ATOM      8  N   UNL     1      32.216 -10.384 -22.454  0.00  0.00    -0.268 N 
ATOM      9  N   UNL     1      32.754 -12.627 -22.572  0.00  0.00    -0.268 N 
ATOM     10  C   UNL     1      33.230 -11.321 -22.770  0.00  0.00    +0.308 C 
ATOM     11  H   UNL     1      31.360 -10.766 -22.154  0.00  0.00    +0.156 HD
ATOM     12  H   UNL     1      31.825 -12.705 -22.257  0.00  0.00    +0.156 HD
BRANCH   8  14
ATOM     13 CL   UNL     1      32.450  -4.485 -22.739  0.00  0.00    -0.082 Cl
ATOM     14  C   UNL     1      32.269  -8.991 -22.512  0.00  0.00    +0.052 C 
ATOM     15  C   UNL     1      32.108  -6.844 -21.417  0.00  0.00    +0.083 C 
ATOM     16  C   UNL     1      32.055  -8.236 -21.358  0.00  0.00    +0.019 C 
ATOM     17  C   UNL     1      32.537  -8.354 -23.723  0.00  0.00    +0.016 C 
ATOM     18  C   UNL     1      32.376  -6.205 -22.628  0.00  0.00    +0.062 C 
ATOM     19  C   UNL     1      32.590  -6.961 -23.782  0.00  0.00    +0.013 C 
BRANCH  15  23
ATOM     20  F   UNL     1      32.907  -5.245 -19.826  0.00  0.00    -0.166 F 
ATOM     21  F   UNL     1      30.774  -5.264 -20.214  0.00  0.00    -0.166 F 
ATOM     22  F   UNL     1      31.683  -6.880 -19.078  0.00  0.00    -0.166 F 
ATOM     23  C   UNL     1      31.873  -6.071 -20.159  0.00  0.00    +0.419 C 
ENDBRANCH  15  23
ENDBRANCH   8  14
ENDBRANCH   1   9
BRANCH   2  24
ATOM     24  O   UNL     1      35.483 -17.415 -23.355  0.00  0.00    -0.453 OA
BRANCH  24  26
ATOM     25  N   UNL     1      36.087 -19.878 -20.032  0.00  0.00    -0.239 NA
ATOM     26  C   UNL     1      35.682 -18.230 -22.254  0.00  0.00    +0.149 C 
ATOM     27  C   UNL     1      34.620 -18.943 -21.711  0.00  0.00    +0.061 C 
ATOM     28  C   UNL     1      34.871 -19.746 -20.610  0.00  0.00    +0.137 C 
ATOM     29  C   UNL     1      36.947 -18.340 -21.688  0.00  0.00    +0.058 C 
ATOM     30  C   UNL     1      37.096 -19.169 -20.587  0.00  0.00    +0.102 C 
BRANCH  28  33
ATOM     31  O   UNL     1      32.631 -20.412 -20.422  0.00  0.00    -0.269 OA
ATOM     32  N   UNL     1      34.147 -21.376 -18.955  0.00  0.00    -0.313 N 
ATOM     33  C   UNL     1      33.799 -20.514 -20.002  0.00  0.00    +0.263 C 
ATOM     34  H   UNL     1      35.089 -21.407 -18.672  0.00  0.00    +0.149 HD
ATOM     35  C   UNL     1      33.199 -22.221 -18.266  0.00  0.00    +0.128 C 
ENDBRANCH  28  33
ENDBRANCH  24  26
ENDBRANCH   2  24
TORSDOF 6
ENDMDL
MODEL 5
REMARK VINA RESULT:     -11.8      1.416      1.867
REMARK  Name = 25191001
REMARK  7 active torsions:
REMARK  status: ('A' for Active; 'I' for Inactive)
REMARK    1  A    between atoms: C_1  and  N_9
REMARK    2  A    between atoms: C_2  and  O_24
REMARK    3  A    between atoms: N_8  and  C_14
REMARK    4  A    between atoms: C_15  and  C_23
REMARK    5  A    between atoms: O_24  and  C_26
REMARK    6  A    between atoms: C_28  and  C_33
REMARK    7  A    between atoms: N_32  and  C_35
REMARK                            x       y       z     vdW  Elec       q    Type
REMARK                         _______ _______ _______ _____ _____    ______ ____
ROOT
ATOM      1  C   UNL     1      33.689 -13.689 -22.513  0.00  0.00    +0.052 C 
ATOM      2  C   UNL     1      34.777 -16.206 -23.030  0.00  0.00    +0.145 C 
ATOM      3  C   UNL     1      34.376 -14.372 -21.509  0.00  0.00    +0.018 C 
ATOM      4  C   UNL     1      33.545 -14.266 -23.775  0.00  0.00    +0.018 C 
ATOM      5  C   UNL     1      34.920 -15.630 -21.767  0.00  0.00    +0.039 C 
ATOM      6  C   UNL     1      34.089 -15.525 -24.034  0.00  0.00    +0.039 C 
ENDROOT
BRANCH   1   9
ATOM      7  O   UNL     1      33.720 -11.199 -24.162  0.00  0.00    -0.252 OA
ATOM      8  N   UNL     1      32.502 -10.200 -22.428  0.00  0.00    -0.268 N 
ATOM      9  N   UNL     1      33.136 -12.414 -22.251  0.00  0.00    -0.268 N 
ATOM     10  C   UNL     1      33.179 -11.270 -23.063  0.00  0.00    +0.308 C 
ATOM     11  H   UNL     1      32.115 -10.404 -21.546  0.00  0.00    +0.156 HD
ATOM     12  H   UNL     1      32.663 -12.317 -21.393  0.00  0.00    +0.156 HD
BRANCH   8  14
ATOM     13 CL   UNL     1      31.650  -4.683 -24.369  0.00  0.00    -0.082 Cl
ATOM     14  C   UNL     1      32.310  -8.897 -22.887  0.00  0.00    +0.052 C 
ATOM     15  C   UNL     1      33.217  -6.804 -23.683  0.00  0.00    +0.083 C 
ATOM     16  C   UNL     1      33.410  -8.107 -23.224  0.00  0.00    +0.019 C 
ATOM     17  C   UNL     1      31.019  -8.383 -23.007  0.00  0.00    +0.016 C 
ATOM     18  C   UNL     1      31.926  -6.290 -23.805  0.00  0.00    +0.062 C 
ATOM     19  C   UNL     1      30.826  -7.080 -23.466  0.00  0.00    +0.013 C 
BRANCH  15  23
ATOM     20  F   UNL     1      34.242  -4.649 -23.860  0.00  0.00    -0.166 F 
ATOM     21  F   UNL     1      35.524  -6.304 -23.296  0.00  0.00    -0.166 F 
ATOM     22  F   UNL     1      34.793  -6.146 -25.337  0.00  0.00    -0.166 F 
ATOM     23  C   UNL     1      34.421  -5.991 -24.035  0.00  0.00    +0.419 C 
ENDBRANCH  15  23
ENDBRANCH   8  14
ENDBRANCH   1   9
BRANCH   2  24
ATOM     24  O   UNL     1      35.305 -17.435 -23.282  0.00  0.00    -0.453 OA
BRANCH  24  26
ATOM     25  N   UNL     1      36.010 -19.956 -20.023  0.00  0.00    -0.239 NA
ATOM     26  C   UNL     1      35.538 -18.270 -22.201  0.00  0.00    +0.149 C 
ATOM     27  C   UNL     1      34.492 -18.993 -21.639  0.00  0.00    +0.061 C 
ATOM     28  C   UNL     1      34.778 -19.815 -20.561  0.00  0.00    +0.137 C 
ATOM     29  C   UNL     1      36.820 -18.389 -21.677  0.00  0.00    +0.058 C 
ATOM     30  C   UNL     1      37.002 -19.237 -20.596  0.00  0.00    +0.102 C 
BRANCH  28  33
ATOM     31  O   UNL     1      32.550 -20.511 -20.339  0.00  0.00    -0.269 OA
ATOM     32  N   UNL     1      34.097 -21.442 -18.884  0.00  0.00    -0.313 N 
ATOM     33  C   UNL     1      33.724 -20.593 -19.933  0.00  0.00    +0.263 C 
ATOM     34  H   UNL     1      35.043 -21.458 -18.613  0.00  0.00    +0.149 HD
ATOM     35  C   UNL     1      33.171 -22.296 -18.177  0.00  0.00    +0.128 C 
ENDBRANCH  28  33
ENDBRANCH  24  26
ENDBRANCH   2  24
TORSDOF 6
ENDMDL
MODEL 6
REMARK VINA RESULT:     -11.6      7.808     13.295
REMARK  Name = 25191001
REMARK  7 active torsions:
REMARK  status: ('A' for Active; 'I' for Inactive)
REMARK    1  A    between atoms: C_1  and  N_9
REMARK    2  A    between atoms: C_2  and  O_24
REMARK    3  A    between atoms: N_8  and  C_14
REMARK    4  A    between atoms: C_15  and  C_23
REMARK    5  A    between atoms: O_24  and  C_26
REMARK    6  A    between atoms: C_28  and  C_33
REMARK    7  A    between atoms: N_32  and  C_35
REMARK                            x       y       z     vdW  Elec       q    Type
REMARK                         _______ _______ _______ _____ _____    ______ ____
ROOT
ATOM      1  C   UNL     1      34.965 -21.133 -19.028  0.00  0.00    +0.052 C 
ATOM      2  C   UNL     1      35.822 -19.488 -21.112  0.00  0.00    +0.145 C 
ATOM      3  C   UNL     1      34.032 -20.550 -19.886  0.00  0.00    +0.018 C 
ATOM      4  C   UNL     1      36.326 -20.892 -19.212  0.00  0.00    +0.018 C 
ATOM      5  C   UNL     1      34.460 -19.728 -20.928  0.00  0.00    +0.039 C 
ATOM      6  C   UNL     1      36.756 -20.070 -20.254  0.00  0.00    +0.039 C 
ENDROOT
BRANCH   1   9
ATOM      7  O   UNL     1      32.200 -21.810 -18.121  0.00  0.00    -0.252 OA
ATOM      8  N   UNL     1      33.213 -23.131 -16.473  0.00  0.00    -0.268 N 
ATOM      9  N   UNL     1      34.530 -21.965 -17.970  0.00  0.00    -0.268 N 
ATOM     10  C   UNL     1      33.211 -22.252 -17.583  0.00  0.00    +0.308 C 
ATOM     11  H   UNL     1      34.101 -23.404 -16.146  0.00  0.00    +0.156 HD
ATOM     12  H   UNL     1      35.239 -22.396 -17.441  0.00  0.00    +0.156 HD
BRANCH   8  14
ATOM     13 CL   UNL     1      28.627 -25.404 -13.519  0.00  0.00    -0.082 Cl
ATOM     14  C   UNL     1      32.125 -23.664 -15.781  0.00  0.00    +0.052 C 
ATOM     15  C   UNL     1      29.738 -23.944 -15.533  0.00  0.00    +0.083 C 
ATOM     16  C   UNL     1      30.826 -23.411 -16.224  0.00  0.00    +0.019 C 
ATOM     17  C   UNL     1      32.335 -24.448 -14.648  0.00  0.00    +0.016 C 
ATOM     18  C   UNL     1      29.948 -24.729 -14.399  0.00  0.00    +0.062 C 
ATOM     19  C   UNL     1      31.247 -24.981 -13.956  0.00  0.00    +0.013 C 
BRANCH  15  23
ATOM     20  F   UNL     1      27.505 -23.220 -15.069  0.00  0.00    -0.166 F 
ATOM     21  F   UNL     1      28.332 -22.681 -16.999  0.00  0.00    -0.166 F 
ATOM     22  F   UNL     1      27.769 -24.742 -16.599  0.00  0.00    -0.166 F 
ATOM     23  C   UNL     1      28.363 -23.650 -16.039  0.00  0.00    +0.419 C 
ENDBRANCH  15  23
ENDBRANCH   8  14
ENDBRANCH   1   9
BRANCH   2  24
ATOM     24  O   UNL     1      36.241 -18.684 -22.128  0.00  0.00    -0.453 OA
BRANCH  24  26
ATOM     25  N   UNL     1      33.356 -17.264 -24.799  0.00  0.00    -0.239 NA
ATOM     26  C   UNL     1      35.285 -18.212 -23.011  0.00  0.00    +0.149 C 
ATOM     27  C   UNL     1      35.122 -16.845 -23.201  0.00  0.00    +0.061 C 
ATOM     28  C   UNL     1      34.152 -16.425 -24.098  0.00  0.00    +0.137 C 
ATOM     29  C   UNL     1      34.485 -19.107 -23.714  0.00  0.00    +0.058 C 
ATOM     30  C   UNL     1      33.543 -18.586 -24.588  0.00  0.00    +0.102 C 
BRANCH  28  33
ATOM     31  O   UNL     1      33.691 -14.590 -25.482  0.00  0.00    -0.269 OA
ATOM     32  N   UNL     1      33.998 -14.159 -23.224  0.00  0.00    -0.313 N 
ATOM     33  C   UNL     1      33.938 -15.008 -24.335  0.00  0.00    +0.263 C 
ATOM     34  H   UNL     1      34.198 -14.556 -22.346  0.00  0.00    +0.149 HD
ATOM     35  C   UNL     1      33.784 -12.732 -23.294  0.00  0.00    +0.128 C 
ENDBRANCH  28  33
ENDBRANCH  24  26
ENDBRANCH   2  24
TORSDOF 6
ENDMDL
MODEL 7
REMARK VINA RESULT:     -11.5      7.749     12.399
REMARK  Name = 25191001
REMARK  7 active torsions:
REMARK  status: ('A' for Active; 'I' for Inactive)
REMARK    1  A    between atoms: C_1  and  N_9
REMARK    2  A    between atoms: C_2  and  O_24
REMARK    3  A    between atoms: N_8  and  C_14
REMARK    4  A    between atoms: C_15  and  C_23
REMARK    5  A    between atoms: O_24  and  C_26
REMARK    6  A    between atoms: C_28  and  C_33
REMARK    7  A    between atoms: N_32  and  C_35
REMARK                            x       y       z     vdW  Elec       q    Type
REMARK                         _______ _______ _______ _____ _____    ______ ____
ROOT
ATOM      1  C   UNL     1      35.096 -18.719 -22.291  0.00  0.00    +0.052 C 
ATOM      2  C   UNL     1      34.408 -16.813 -24.209  0.00  0.00    +0.145 C 
ATOM      3  C   UNL     1      35.635 -17.434 -22.223  0.00  0.00    +0.018 C 
ATOM      4  C   UNL     1      34.214 -19.051 -23.319  0.00  0.00    +0.018 C 
ATOM      5  C   UNL     1      35.290 -16.481 -23.181  0.00  0.00    +0.039 C 
ATOM      6  C   UNL     1      33.869 -18.098 -24.279  0.00  0.00    +0.039 C 
ENDROOT
BRANCH   1   9
ATOM      7  O   UNL     1      33.538 -19.772 -19.971  0.00  0.00    -0.252 OA
ATOM      8  N   UNL     1      35.399 -21.118 -19.509  0.00  0.00    -0.268 N 
ATOM      9  N   UNL     1      35.447 -19.686 -21.320  0.00  0.00    -0.268 N 
ATOM     10  C   UNL     1      34.674 -20.148 -20.243  0.00  0.00    +0.308 C 
ATOM     11  H   UNL     1      36.302 -21.321 -19.845  0.00  0.00    +0.156 HD
ATOM     12  H   UNL     1      36.343 -20.082 -21.410  0.00  0.00    +0.156 HD
BRANCH   8  14
ATOM     13 CL   UNL     1      33.686 -24.121 -14.715  0.00  0.00    -0.082 Cl
ATOM     14  C   UNL     1      35.003 -21.826 -18.373  0.00  0.00    +0.052 C 
ATOM     15  C   UNL     1      35.501 -22.717 -16.184  0.00  0.00    +0.083 C 
ATOM     16  C   UNL     1      35.897 -22.009 -17.319  0.00  0.00    +0.019 C 
ATOM     17  C   UNL     1      33.713 -22.350 -18.294  0.00  0.00    +0.016 C 
ATOM     18  C   UNL     1      34.211 -23.241 -16.103  0.00  0.00    +0.062 C 
ATOM     19  C   UNL     1      33.317 -23.058 -17.159  0.00  0.00    +0.013 C 
BRANCH  15  23
ATOM     20  F   UNL     1      36.012 -22.506 -13.856  0.00  0.00    -0.166 F 
ATOM     21  F   UNL     1      36.897 -24.182 -14.909  0.00  0.00    -0.166 F 
ATOM     22  F   UNL     1      37.627 -22.166 -15.272  0.00  0.00    -0.166 F 
ATOM     23  C   UNL     1      36.489 -22.891 -15.075  0.00  0.00    +0.419 C 
ENDBRANCH  15  23
ENDBRANCH   8  14
ENDBRANCH   1   9
BRANCH   2  24
ATOM     24  O   UNL     1      34.073 -15.884 -25.147  0.00  0.00    -0.453 OA
BRANCH  24  26
ATOM     25  N   UNL     1      33.167 -12.024 -23.822  0.00  0.00    -0.239 NA
ATOM     26  C   UNL     1      33.772 -14.606 -24.707  0.00  0.00    +0.149 C 
ATOM     27  C   UNL     1      33.418 -14.388 -23.381  0.00  0.00    +0.061 C 
ATOM     28  C   UNL     1      33.127 -13.091 -22.991  0.00  0.00    +0.137 C 
ATOM     29  C   UNL     1      33.825 -13.535 -25.592  0.00  0.00    +0.058 C 
ATOM     30  C   UNL     1      33.515 -12.275 -25.104  0.00  0.00    +0.102 C 
BRANCH  28  33
ATOM     31  O   UNL     1      33.060 -13.589 -20.701  0.00  0.00    -0.269 OA
ATOM     32  N   UNL     1      32.059 -11.611 -21.382  0.00  0.00    -0.313 N 
ATOM     33  C   UNL     1      32.751 -12.805 -21.617  0.00  0.00    +0.263 C 
ATOM     34  H   UNL     1      31.846 -11.037 -22.152  0.00  0.00    +0.149 HD
ATOM     35  C   UNL     1      31.638 -11.176 -20.070  0.00  0.00    +0.128 C 
ENDBRANCH  28  33
ENDBRANCH  24  26
ENDBRANCH   2  24
TORSDOF 6
ENDMDL
MODEL 8
REMARK VINA RESULT:     -11.4      1.981      2.609
REMARK  Name = 25191001
REMARK  7 active torsions:
REMARK  status: ('A' for Active; 'I' for Inactive)
REMARK    1  A    between atoms: C_1  and  N_9
REMARK    2  A    between atoms: C_2  and  O_24
REMARK    3  A    between atoms: N_8  and  C_14
REMARK    4  A    between atoms: C_15  and  C_23
REMARK    5  A    between atoms: O_24  and  C_26
REMARK    6  A    between atoms: C_28  and  C_33
REMARK    7  A    between atoms: N_32  and  C_35
REMARK                            x       y       z     vdW  Elec       q    Type
REMARK                         _______ _______ _______ _____ _____    ______ ____
ROOT
ATOM      1  C   UNL     1      33.236 -12.836 -22.788  0.00  0.00    +0.052 C 
ATOM      2  C   UNL     1      34.607 -15.128 -23.598  0.00  0.00    +0.145 C 
ATOM      3  C   UNL     1      33.201 -13.235 -24.125  0.00  0.00    +0.018 C 
ATOM      4  C   UNL     1      33.957 -13.584 -21.857  0.00  0.00    +0.018 C 
ATOM      5  C   UNL     1      33.886 -14.380 -24.530  0.00  0.00    +0.039 C 
ATOM      6  C   UNL     1      34.643 -14.730 -22.261  0.00  0.00    +0.039 C 
ENDROOT
BRANCH   1   9
ATOM      7  O   UNL     1      33.908  -9.953 -23.183  0.00  0.00    -0.252 OA
ATOM      8  N   UNL     1      31.934  -9.476 -22.016  0.00  0.00    -0.268 N 
ATOM      9  N   UNL     1      32.543 -11.674 -22.378  0.00  0.00    -0.268 N 
ATOM     10  C   UNL     1      32.903 -10.333 -22.590  0.00  0.00    +0.308 C 
ATOM     11  H   UNL     1      31.178  -9.923 -21.570  0.00  0.00    +0.156 HD
ATOM     12  H   UNL     1      31.705 -11.823 -21.883  0.00  0.00    +0.156 HD
BRANCH   8  14
ATOM     13 CL   UNL     1      31.818  -3.567 -21.905  0.00  0.00    -0.082 Cl
ATOM     14  C   UNL     1      31.906  -8.080 -21.999  0.00  0.00    +0.052 C 
ATOM     15  C   UNL     1      31.756  -5.977 -23.177  0.00  0.00    +0.083 C 
ATOM     16  C   UNL     1      31.784  -7.371 -23.194  0.00  0.00    +0.019 C 
ATOM     17  C   UNL     1      32.000  -7.396 -20.787  0.00  0.00    +0.016 C 
ATOM     18  C   UNL     1      31.849  -5.291 -21.965  0.00  0.00    +0.062 C 
ATOM     19  C   UNL     1      31.972  -6.002 -20.770  0.00  0.00    +0.013 C 
BRANCH  15  23
ATOM     20  F   UNL     1      31.371  -6.077 -25.536  0.00  0.00    -0.166 F 
ATOM     21  F   UNL     1      30.612  -4.336 -24.490  0.00  0.00    -0.166 F 
ATOM     22  F   UNL     1      32.751  -4.563 -24.808  0.00  0.00    -0.166 F 
ATOM     23  C   UNL     1      31.623  -5.253 -24.478  0.00  0.00    +0.419 C 
ENDBRANCH  15  23
ENDBRANCH   8  14
ENDBRANCH   1   9
BRANCH   2  24
ATOM     24  O   UNL     1      35.277 -16.245 -23.993  0.00  0.00    -0.453 OA
BRANCH  24  26
ATOM     25  N   UNL     1      34.489 -19.805 -21.950  0.00  0.00    -0.239 NA
ATOM     26  C   UNL     1      35.018 -17.424 -23.316  0.00  0.00    +0.149 C 
ATOM     27  C   UNL     1      35.774 -17.773 -22.203  0.00  0.00    +0.061 C 
ATOM     28  C   UNL     1      35.473 -18.962 -21.560  0.00  0.00    +0.137 C 
ATOM     29  C   UNL     1      33.996 -18.264 -23.747  0.00  0.00    +0.058 C 
ATOM     30  C   UNL     1      33.775 -19.433 -23.036  0.00  0.00    +0.102 C 
BRANCH  28  33
ATOM     31  O   UNL     1      37.158 -18.669 -19.957  0.00  0.00    -0.269 OA
ATOM     32  N   UNL     1      35.853 -20.579 -19.781  0.00  0.00    -0.313 N 
ATOM     33  C   UNL     1      36.231 -19.377 -20.393  0.00  0.00    +0.263 C 
ATOM     34  H   UNL     1      35.111 -21.089 -20.178  0.00  0.00    +0.149 HD
ATOM     35  C   UNL     1      36.493 -21.111 -18.600  0.00  0.00    +0.128 C 
ENDBRANCH  28  33
ENDBRANCH  24  26
ENDBRANCH   2  24
TORSDOF 6
ENDMDL
MODEL 9
REMARK VINA RESULT:     -11.2      5.346      8.571
REMARK  Name = 25191001
REMARK  7 active torsions:
REMARK  status: ('A' for Active; 'I' for Inactive)
REMARK    1  A    between atoms: C_1  and  N_9
REMARK    2  A    between atoms: C_2  and  O_24
REMARK    3  A    between atoms: N_8  and  C_14
REMARK    4  A    between atoms: C_15  and  C_23
REMARK    5  A    between atoms: O_24  and  C_26
REMARK    6  A    between atoms: C_28  and  C_33
REMARK    7  A    between atoms: N_32  and  C_35
REMARK                            x       y       z     vdW  Elec       q    Type
REMARK                         _______ _______ _______ _____ _____    ______ ____
ROOT
ATOM      1  C   UNL     1      35.766 -20.995 -19.007  0.00  0.00    +0.052 C 
ATOM      2  C   UNL     1      35.272 -22.853 -16.986  0.00  0.00    +0.145 C 
ATOM      3  C   UNL     1      36.687 -21.162 -17.973  0.00  0.00    +0.018 C 
ATOM      4  C   UNL     1      34.598 -21.756 -19.031  0.00  0.00    +0.018 C 
ATOM      5  C   UNL     1      36.440 -22.091 -16.962  0.00  0.00    +0.039 C 
ATOM      6  C   UNL     1      34.350 -22.686 -18.020  0.00  0.00    +0.039 C 
ENDROOT
BRANCH   1   9
ATOM      7  O   UNL     1      33.932 -19.022 -20.299  0.00  0.00    -0.252 OA
ATOM      8  N   UNL     1      35.769 -18.376 -21.602  0.00  0.00    -0.268 N 
ATOM      9  N   UNL     1      36.016 -20.051 -20.031  0.00  0.00    -0.268 N 
ATOM     10  C   UNL     1      35.114 -19.142 -20.607  0.00  0.00    +0.308 C 
ATOM     11  H   UNL     1      36.722 -18.582 -21.741  0.00  0.00    +0.156 HD
ATOM     12  H   UNL     1      36.935 -20.030 -20.383  0.00  0.00    +0.156 HD
BRANCH   8  14
ATOM     13 CL   UNL     1      33.547 -14.127 -25.057  0.00  0.00    -0.082 Cl
ATOM     14  C   UNL     1      35.244 -17.367 -22.410  0.00  0.00    +0.052 C 
ATOM     15  C   UNL     1      34.421 -15.111 -22.671  0.00  0.00    +0.083 C 
ATOM     16  C   UNL     1      34.945 -16.119 -21.862  0.00  0.00    +0.019 C 
ATOM     17  C   UNL     1      35.017 -17.607 -23.765  0.00  0.00    +0.016 C 
ATOM     18  C   UNL     1      34.194 -15.350 -24.027  0.00  0.00    +0.062 C 
ATOM     19  C   UNL     1      34.493 -16.599 -24.574  0.00  0.00    +0.013 C 
BRANCH  15  23
ATOM     20  F   UNL     1      32.780 -13.514 -21.977  0.00  0.00    -0.166 F 
ATOM     21  F   UNL     1      34.571 -13.672 -20.766  0.00  0.00    -0.166 F 
ATOM     22  F   UNL     1      34.669 -12.747 -22.731  0.00  0.00    -0.166 F 
ATOM     23  C   UNL     1      34.115 -13.787 -22.047  0.00  0.00    +0.419 C 
ENDBRANCH  15  23
ENDBRANCH   8  14
ENDBRANCH   1   9
BRANCH   2  24
ATOM     24  O   UNL     1      35.029 -23.758 -15.998  0.00  0.00    -0.453 OA
BRANCH  24  26
ATOM     25  N   UNL     1      31.555 -23.275 -13.724  0.00  0.00    -0.239 NA
ATOM     26  C   UNL     1      33.878 -23.597 -15.246  0.00  0.00    +0.149 C 
ATOM     27  C   UNL     1      32.678 -23.267 -15.865  0.00  0.00    +0.061 C 
ATOM     28  C   UNL     1      31.555 -23.118 -15.068  0.00  0.00    +0.137 C 
ATOM     29  C   UNL     1      33.918 -23.767 -13.866  0.00  0.00    +0.058 C 
ATOM     30  C   UNL     1      32.740 -23.595 -13.157  0.00  0.00    +0.102 C 
BRANCH  28  33
ATOM     31  O   UNL     1      30.214 -22.342 -16.827  0.00  0.00    -0.269 OA
ATOM     32  N   UNL     1      29.134 -22.973 -14.875  0.00  0.00    -0.313 N 
ATOM     33  C   UNL     1      30.275 -22.773 -15.661  0.00  0.00    +0.263 C 
ATOM     34  H   UNL     1      29.253 -23.317 -13.961  0.00  0.00    +0.149 HD
ATOM     35  C   UNL     1      27.790 -22.701 -15.331  0.00  0.00    +0.128 C 
ENDBRANCH  28  33
ENDBRANCH  24  26
ENDBRANCH   2  24
TORSDOF 6
ENDMDL
