MODEL 1
REMARK VINA RESULT:     -10.7      0.000      0.000
REMARK  Name = 24963036
REMARK  7 active torsions:
REMARK  status: ('A' for Active; 'I' for Inactive)
REMARK    1  A    between atoms: N_2  and  C_20
REMARK    2  A    between atoms: C_3  and  C_7
REMARK    3  A    between atoms: C_11  and  C_12
REMARK    4  A    between atoms: C_12  and  O_13
REMARK    5  A    between atoms: O_13  and  C_14
REMARK    6  A    between atoms: C_20  and  C_21
REMARK    7  A    between atoms: C_26  and  C_29
REMARK                            x       y       z     vdW  Elec       q    Type
REMARK                         _______ _______ _______ _____ _____    ______ ____
ROOT
ATOM      1  O   UNL     1      34.682 -23.913 -12.019  0.00  0.00    -0.273 OA
ATOM      2  N   UNL     1      33.216 -24.967 -13.488  0.00  0.00    -0.299 N 
ATOM      3  C   UNL     1      34.457 -24.536 -13.053  0.00  0.00    +0.241 C 
ATOM      4  H   UNL     1      33.162 -25.460 -14.338  0.00  0.00    +0.150 HD
ENDROOT
BRANCH   3   7
ATOM      5  O   UNL     1      34.116 -23.729 -16.158  0.00  0.00    -0.272 OA
ATOM      6  N   UNL     1      35.943 -23.750 -14.737  0.00  0.00    -0.271 N 
ATOM      7  C   UNL     1      35.558 -24.939 -13.988  0.00  0.00    +0.152 C 
ATOM      8  C   UNL     1      36.819 -25.348 -13.235  0.00  0.00    +0.031 C 
ATOM      9  C   UNL     1      37.553 -24.025 -13.028  0.00  0.00    +0.024 C 
ATOM     10  C   UNL     1      37.245 -23.251 -14.300  0.00  0.00    +0.094 C 
ATOM     11  C   UNL     1      35.214 -23.282 -15.819  0.00  0.00    +0.256 C 
BRANCH  11  12
ATOM     12  C   UNL     1      35.845 -22.149 -16.587  0.00  0.00    +0.227 C 
BRANCH  12  13
ATOM     13  O   UNL     1      35.588 -22.393 -17.948  0.00  0.00    -0.347 OA
BRANCH  13  14
ATOM     14  C   UNL     1      34.962 -21.283 -18.582  0.00  0.00    +0.116 C 
ATOM     15  C   UNL     1      35.824 -20.805 -19.749  0.00  0.00    +0.030 C 
ATOM     16  C   UNL     1      33.561 -21.680 -19.044  0.00  0.00    +0.030 C 
ATOM     17  C   UNL     1      35.149 -19.676 -20.522  0.00  0.00    +0.002 C 
ATOM     18  C   UNL     1      32.884 -20.551 -19.817  0.00  0.00    +0.002 C 
ATOM     19  C   UNL     1      33.747 -20.072 -20.981  0.00  0.00    +0.000 C 
ENDBRANCH  13  14
ENDBRANCH  12  13
ENDBRANCH  11  12
ENDBRANCH   3   7
BRANCH   2  20
ATOM     20  C   UNL     1      31.994 -24.726 -12.754  0.00  0.00    +0.116 C 
BRANCH  20  21
ATOM     21  C   UNL     1      30.879 -24.277 -13.652  0.00  0.00    -0.003 C 
ATOM     22  C   UNL     1      30.753 -22.928 -13.986  0.00  0.00    -0.003 C 
ATOM     23  C   UNL     1      29.967 -25.206 -14.151  0.00  0.00    -0.003 C 
ATOM     24  C   UNL     1      29.716 -22.509 -14.821  0.00  0.00    +0.002 C 
ATOM     25  C   UNL     1      28.930 -24.788 -14.985  0.00  0.00    +0.002 C 
ATOM     26  C   UNL     1      28.804 -23.440 -15.320  0.00  0.00    +0.031 C 
BRANCH  26  29
ATOM     27  N   UNL     1      26.736 -22.131 -15.735  0.00  0.00    -0.343 N 
ATOM     28  N   UNL     1      27.662 -23.440 -17.434  0.00  0.00    -0.285 NA
ATOM     29  C   UNL     1      27.723 -23.004 -16.188  0.00  0.00    +0.117 C 
ATOM     30  H   UNL     1      26.012 -21.847 -16.341  0.00  0.00    +0.144 HD
ATOM     31  H   UNL     1      26.762 -21.797 -14.809  0.00  0.00    +0.144 HD
ATOM     32  H   UNL     1      26.931 -23.146 -18.024  0.00  0.00    +0.188 HD
ENDBRANCH  26  29
ENDBRANCH  20  21
ENDBRANCH   2  20
TORSDOF 7
ENDMDL
MODEL 2
REMARK VINA RESULT:     -10.5      2.102      6.501
REMARK  Name = 24963036
REMARK  7 active torsions:
REMARK  status: ('A' for Active; 'I' for Inactive)
REMARK    1  A    between atoms: N_2  and  C_20
REMARK    2  A    between atoms: C_3  and  C_7
REMARK    3  A    between atoms: C_11  and  C_12
REMARK    4  A    between atoms: C_12  and  O_13
REMARK    5  A    between atoms: O_13  and  C_14
REMARK    6  A    between atoms: C_20  and  C_21
REMARK    7  A    between atoms: C_26  and  C_29
REMARK                            x       y       z     vdW  Elec       q    Type
REMARK                         _______ _______ _______ _____ _____    ______ ____
ROOT
ATOM      1  O   UNL     1      32.217 -25.011 -12.735  0.00  0.00    -0.273 OA
ATOM      2  N   UNL     1      34.045 -23.571 -12.679  0.00  0.00    -0.299 N 
ATOM      3  C   UNL     1      32.767 -23.957 -13.044  0.00  0.00    +0.241 C 
ATOM      4  H   UNL     1      34.378 -22.698 -12.989  0.00  0.00    +0.150 HD
ENDROOT
BRANCH   3   7
ATOM      5  O   UNL     1      34.401 -22.725 -15.538  0.00  0.00    -0.272 OA
ATOM      6  N   UNL     1      32.183 -23.323 -15.261  0.00  0.00    -0.271 N 
ATOM      7  C   UNL     1      32.072 -22.914 -13.867  0.00  0.00    +0.152 C 
ATOM      8  C   UNL     1      30.574 -22.881 -13.591  0.00  0.00    +0.031 C 
ATOM      9  C   UNL     1      30.013 -23.931 -14.547  0.00  0.00    +0.024 C 
ATOM     10  C   UNL     1      30.899 -23.794 -15.776  0.00  0.00    +0.094 C 
ATOM     11  C   UNL     1      33.334 -23.124 -16.007  0.00  0.00    +0.256 C 
BRANCH  11  12
ATOM     12  C   UNL     1      33.220 -23.443 -17.476  0.00  0.00    +0.227 C 
BRANCH  12  13
ATOM     13  O   UNL     1      32.693 -22.296 -18.097  0.00  0.00    -0.347 OA
BRANCH  13  14
ATOM     14  C   UNL     1      33.497 -21.860 -19.187  0.00  0.00    +0.116 C 
ATOM     15  C   UNL     1      32.939 -20.552 -19.746  0.00  0.00    +0.030 C 
ATOM     16  C   UNL     1      34.945 -21.702 -18.725  0.00  0.00    +0.030 C 
ATOM     17  C   UNL     1      33.823 -19.991 -20.855  0.00  0.00    +0.002 C 
ATOM     18  C   UNL     1      35.830 -21.142 -19.835  0.00  0.00    +0.002 C 
ATOM     19  C   UNL     1      35.270 -19.836 -20.394  0.00  0.00    +0.000 C 
ENDBRANCH  13  14
ENDBRANCH  12  13
ENDBRANCH  11  12
ENDBRANCH   3   7
BRANCH   2  20
ATOM     20  C   UNL     1      34.915 -24.389 -11.865  0.00  0.00    +0.116 C 
BRANCH  20  21
ATOM     21  C   UNL     1      36.201 -24.715 -12.569  0.00  0.00    -0.003 C 
ATOM     22  C   UNL     1      36.177 -25.161 -13.891  0.00  0.00    -0.003 C 
ATOM     23  C   UNL     1      37.417 -24.574 -11.902  0.00  0.00    -0.003 C 
ATOM     24  C   UNL     1      37.372 -25.466 -14.545  0.00  0.00    +0.002 C 
ATOM     25  C   UNL     1      38.611 -24.878 -12.556  0.00  0.00    +0.002 C 
ATOM     26  C   UNL     1      38.588 -25.324 -13.877  0.00  0.00    +0.031 C 
BRANCH  26  29
ATOM     27  N   UNL     1      39.886 -26.616 -15.554  0.00  0.00    -0.343 N 
ATOM     28  N   UNL     1      40.943 -25.003 -14.236  0.00  0.00    -0.285 NA
ATOM     29  C   UNL     1      39.832 -25.642 -14.559  0.00  0.00    +0.117 C 
ATOM     30  H   UNL     1      40.739 -26.815 -16.003  0.00  0.00    +0.144 HD
ATOM     31  H   UNL     1      39.070 -27.106 -15.807  0.00  0.00    +0.144 HD
ATOM     32  H   UNL     1      41.785 -25.216 -14.696  0.00  0.00    +0.188 HD
ENDBRANCH  26  29
ENDBRANCH  20  21
ENDBRANCH   2  20
TORSDOF 7
ENDMDL
MODEL 3
REMARK VINA RESULT:     -10.4     10.122     14.317
REMARK  Name = 24963036
REMARK  7 active torsions:
REMARK  status: ('A' for Active; 'I' for Inactive)
REMARK    1  A    between atoms: N_2  and  C_20
REMARK    2  A    between atoms: C_3  and  C_7
REMARK    3  A    between atoms: C_11  and  C_12
REMARK    4  A    between atoms: C_12  and  O_13
REMARK    5  A    between atoms: O_13  and  C_14
REMARK    6  A    between atoms: C_20  and  C_21
REMARK    7  A    between atoms: C_26  and  C_29
REMARK                            x       y       z     vdW  Elec       q    Type
REMARK                         _______ _______ _______ _____ _____    ______ ____
ROOT
ATOM      1  O   UNL     1      33.618 -12.705 -25.298  0.00  0.00    -0.273 OA
ATOM      2  N   UNL     1      33.994 -11.532 -23.323  0.00  0.00    -0.299 N 
ATOM      3  C   UNL     1      33.559 -12.609 -24.075  0.00  0.00    +0.241 C 
ATOM      4  H   UNL     1      33.893 -11.572 -22.345  0.00  0.00    +0.150 HD
ENDROOT
BRANCH   3   7
ATOM      5  O   UNL     1      33.848 -15.621 -25.196  0.00  0.00    -0.272 OA
ATOM      6  N   UNL     1      34.056 -14.711 -23.078  0.00  0.00    -0.271 N 
ATOM      7  C   UNL     1      33.007 -13.711 -23.222  0.00  0.00    +0.152 C 
ATOM      8  C   UNL     1      32.724 -13.239 -21.800  0.00  0.00    +0.031 C 
ATOM      9  C   UNL     1      34.062 -13.433 -21.089  0.00  0.00    +0.024 C 
ATOM     10  C   UNL     1      34.617 -14.696 -21.729  0.00  0.00    +0.094 C 
ATOM     11  C   UNL     1      34.341 -15.640 -24.067  0.00  0.00    +0.256 C 
BRANCH  11  12
ATOM     12  C   UNL     1      35.332 -16.711 -23.687  0.00  0.00    +0.227 C 
BRANCH  12  13
ATOM     13  O   UNL     1      34.582 -17.825 -23.270  0.00  0.00    -0.347 OA
BRANCH  13  14
ATOM     14  C   UNL     1      34.939 -18.252 -21.961  0.00  0.00    +0.116 C 
ATOM     15  C   UNL     1      34.212 -19.555 -21.630  0.00  0.00    +0.030 C 
ATOM     16  C   UNL     1      36.456 -18.416 -21.871  0.00  0.00    +0.030 C 
ATOM     17  C   UNL     1      34.637 -20.106 -20.273  0.00  0.00    +0.002 C 
ATOM     18  C   UNL     1      36.881 -18.967 -20.513  0.00  0.00    +0.002 C 
ATOM     19  C   UNL     1      36.153 -20.267 -20.182  0.00  0.00    +0.000 C 
ENDBRANCH  13  14
ENDBRANCH  12  13
ENDBRANCH  11  12
ENDBRANCH   3   7
BRANCH   2  20
ATOM     20  C   UNL     1      34.588 -10.350 -23.906  0.00  0.00    +0.116 C 
BRANCH  20  21
ATOM     21  C   UNL     1      34.030  -9.089 -23.312  0.00  0.00    -0.003 C 
ATOM     22  C   UNL     1      32.782  -9.106 -22.688  0.00  0.00    -0.003 C 
ATOM     23  C   UNL     1      34.756  -7.901 -23.386  0.00  0.00    -0.003 C 
ATOM     24  C   UNL     1      32.261  -7.934 -22.137  0.00  0.00    +0.002 C 
ATOM     25  C   UNL     1      34.236  -6.730 -22.835  0.00  0.00    +0.002 C 
ATOM     26  C   UNL     1      32.989  -6.746 -22.212  0.00  0.00    +0.031 C 
BRANCH  26  29
ATOM     27  N   UNL     1      32.058  -5.462 -20.301  0.00  0.00    -0.343 N 
ATOM     28  N   UNL     1      32.311  -4.448 -22.390  0.00  0.00    -0.285 NA
ATOM     29  C   UNL     1      32.447  -5.525 -21.638  0.00  0.00    +0.117 C 
ATOM     30  H   UNL     1      31.693  -4.625 -19.933  0.00  0.00    +0.144 HD
ATOM     31  H   UNL     1      32.148  -6.256 -19.725  0.00  0.00    +0.144 HD
ATOM     32  H   UNL     1      31.945  -3.620 -22.004  0.00  0.00    +0.188 HD
ENDBRANCH  26  29
ENDBRANCH  20  21
ENDBRANCH   2  20
TORSDOF 7
ENDMDL
MODEL 4
REMARK VINA RESULT:      -9.9     11.566     15.490
REMARK  Name = 24963036
REMARK  7 active torsions:
REMARK  status: ('A' for Active; 'I' for Inactive)
REMARK    1  A    between atoms: N_2  and  C_20
REMARK    2  A    between atoms: C_3  and  C_7
REMARK    3  A    between atoms: C_11  and  C_12
REMARK    4  A    between atoms: C_12  and  O_13
REMARK    5  A    between atoms: O_13  and  C_14
REMARK    6  A    between atoms: C_20  and  C_21
REMARK    7  A    between atoms: C_26  and  C_29
REMARK                            x       y       z     vdW  Elec       q    Type
REMARK                         _______ _______ _______ _____ _____    ______ ____
ROOT
ATOM      1  O   UNL     1      32.035 -11.934 -22.176  0.00  0.00    -0.273 OA
ATOM      2  N   UNL     1      32.695  -9.727 -22.512  0.00  0.00    -0.299 N 
ATOM      3  C   UNL     1      32.826 -11.101 -22.612  0.00  0.00    +0.241 C 
ATOM      4  H   UNL     1      33.399  -9.160 -22.903  0.00  0.00    +0.150 HD
ENDROOT
BRANCH   3   7
ATOM      5  O   UNL     1      34.430 -13.675 -21.512  0.00  0.00    -0.272 OA
ATOM      6  N   UNL     1      33.950 -12.924 -23.648  0.00  0.00    -0.271 N 
ATOM      7  C   UNL     1      34.065 -11.501 -23.354  0.00  0.00    +0.152 C 
ATOM      8  C   UNL     1      34.149 -10.829 -24.720  0.00  0.00    +0.031 C 
ATOM      9  C   UNL     1      33.365 -11.773 -25.628  0.00  0.00    +0.024 C 
ATOM     10  C   UNL     1      33.692 -13.149 -25.068  0.00  0.00    +0.094 C 
ATOM     11  C   UNL     1      34.217 -13.904 -22.704  0.00  0.00    +0.256 C 
BRANCH  11  12
ATOM     12  C   UNL     1      34.221 -15.320 -23.221  0.00  0.00    +0.227 C 
BRANCH  12  13
ATOM     13  O   UNL     1      35.554 -15.766 -23.160  0.00  0.00    -0.347 OA
BRANCH  13  14
ATOM     14  C   UNL     1      35.641 -17.144 -22.815  0.00  0.00    +0.116 C 
ATOM     15  C   UNL     1      35.440 -17.308 -21.309  0.00  0.00    +0.030 C 
ATOM     16  C   UNL     1      34.607 -17.939 -23.610  0.00  0.00    +0.030 C 
ATOM     17  C   UNL     1      35.428 -18.778 -20.900  0.00  0.00    +0.002 C 
ATOM     18  C   UNL     1      34.596 -19.410 -23.203  0.00  0.00    +0.002 C 
ATOM     19  C   UNL     1      34.397 -19.574 -21.698  0.00  0.00    +0.000 C 
ENDBRANCH  13  14
ENDBRANCH  12  13
ENDBRANCH  11  12
ENDBRANCH   3   7
BRANCH   2  20
ATOM     20  C   UNL     1      31.575  -9.084 -21.863  0.00  0.00    +0.116 C 
BRANCH  20  21
ATOM     21  C   UNL     1      31.570  -7.600 -22.089  0.00  0.00    -0.003 C 
ATOM     22  C   UNL     1      31.240  -7.088 -23.344  0.00  0.00    -0.003 C 
ATOM     23  C   UNL     1      31.898  -6.734 -21.047  0.00  0.00    -0.003 C 
ATOM     24  C   UNL     1      31.236  -5.709 -23.556  0.00  0.00    +0.002 C 
ATOM     25  C   UNL     1      31.894  -5.355 -21.258  0.00  0.00    +0.002 C 
ATOM     26  C   UNL     1      31.564  -4.843 -22.512  0.00  0.00    +0.031 C 
BRANCH  26  29
ATOM     27  N   UNL     1      30.770  -2.555 -21.962  0.00  0.00    -0.343 N 
ATOM     28  N   UNL     1      32.316  -2.883 -23.682  0.00  0.00    -0.285 NA
ATOM     29  C   UNL     1      31.561  -3.406 -22.732  0.00  0.00    +0.117 C 
ATOM     30  H   UNL     1      30.783  -1.585 -22.127  0.00  0.00    +0.144 HD
ATOM     31  H   UNL     1      30.197  -2.925 -21.251  0.00  0.00    +0.144 HD
ATOM     32  H   UNL     1      32.316  -1.911 -23.833  0.00  0.00    +0.188 HD
ENDBRANCH  26  29
ENDBRANCH  20  21
ENDBRANCH   2  20
TORSDOF 7
ENDMDL
MODEL 5
REMARK VINA RESULT:      -9.8      9.044     12.860
REMARK  Name = 24963036
REMARK  7 active torsions:
REMARK  status: ('A' for Active; 'I' for Inactive)
REMARK    1  A    between atoms: N_2  and  C_20
REMARK    2  A    between atoms: C_3  and  C_7
REMARK    3  A    between atoms: C_11  and  C_12
REMARK    4  A    between atoms: C_12  and  O_13
REMARK    5  A    between atoms: O_13  and  C_14
REMARK    6  A    between atoms: C_20  and  C_21
REMARK    7  A    between atoms: C_26  and  C_29
REMARK                            x       y       z     vdW  Elec       q    Type
REMARK                         _______ _______ _______ _____ _____    ______ ____
ROOT
ATOM      1  O   UNL     1      33.468 -14.660 -23.695  0.00  0.00    -0.273 OA
ATOM      2  N   UNL     1      35.019 -15.708 -22.311  0.00  0.00    -0.299 N 
ATOM      3  C   UNL     1      34.227 -14.652 -22.730  0.00  0.00    +0.241 C 
ATOM      4  H   UNL     1      35.589 -15.580 -21.519  0.00  0.00    +0.150 HD
ENDROOT
BRANCH   3   7
ATOM      5  O   UNL     1      34.614 -11.796 -24.180  0.00  0.00    -0.272 OA
ATOM      6  N   UNL     1      33.413 -12.456 -22.314  0.00  0.00    -0.271 N 
ATOM      7  C   UNL     1      34.368 -13.451 -21.844  0.00  0.00    +0.152 C 
ATOM      8  C   UNL     1      33.942 -13.750 -20.412  0.00  0.00    +0.031 C 
ATOM      9  C   UNL     1      32.437 -13.494 -20.428  0.00  0.00    +0.024 C 
ATOM     10  C   UNL     1      32.292 -12.322 -21.387  0.00  0.00    +0.094 C 
ATOM     11  C   UNL     1      33.655 -11.653 -23.418  0.00  0.00    +0.256 C 
BRANCH  11  12
ATOM     12  C   UNL     1      32.646 -10.560 -23.661  0.00  0.00    +0.227 C 
BRANCH  12  13
ATOM     13  O   UNL     1      32.988  -9.499 -22.804  0.00  0.00    -0.347 OA
BRANCH  13  14
ATOM     14  C   UNL     1      33.159  -8.275 -23.509  0.00  0.00    +0.116 C 
ATOM     15  C   UNL     1      31.912  -7.407 -23.340  0.00  0.00    +0.030 C 
ATOM     16  C   UNL     1      34.412  -7.562 -23.004  0.00  0.00    +0.030 C 
ATOM     17  C   UNL     1      32.084  -6.041 -23.997  0.00  0.00    +0.002 C 
ATOM     18  C   UNL     1      34.586  -6.196 -23.662  0.00  0.00    +0.002 C 
ATOM     19  C   UNL     1      33.339  -5.331 -23.494  0.00  0.00    +0.000 C 
ENDBRANCH  13  14
ENDBRANCH  12  13
ENDBRANCH  11  12
ENDBRANCH   3   7
BRANCH   2  20
ATOM     20  C   UNL     1      35.048 -16.988 -22.981  0.00  0.00    +0.116 C 
BRANCH  20  21
ATOM     21  C   UNL     1      35.212 -18.124 -22.013  0.00  0.00    -0.003 C 
ATOM     22  C   UNL     1      36.378 -18.231 -21.255  0.00  0.00    -0.003 C 
ATOM     23  C   UNL     1      34.200 -19.074 -21.874  0.00  0.00    -0.003 C 
ATOM     24  C   UNL     1      36.531 -19.288 -20.356  0.00  0.00    +0.002 C 
ATOM     25  C   UNL     1      34.353 -20.130 -20.976  0.00  0.00    +0.002 C 
ATOM     26  C   UNL     1      35.518 -20.237 -20.218  0.00  0.00    +0.031 C 
BRANCH  26  29
ATOM     27  N   UNL     1      36.620 -21.287 -18.256  0.00  0.00    -0.343 N 
ATOM     28  N   UNL     1      34.924 -22.417 -19.398  0.00  0.00    -0.285 NA
ATOM     29  C   UNL     1      35.678 -21.339 -19.282  0.00  0.00    +0.117 C 
ATOM     30  H   UNL     1      36.712 -22.044 -17.633  0.00  0.00    +0.144 HD
ATOM     31  H   UNL     1      37.195 -20.494 -18.154  0.00  0.00    +0.144 HD
ATOM     32  H   UNL     1      35.030 -23.163 -18.765  0.00  0.00    +0.188 HD
ENDBRANCH  26  29
ENDBRANCH  20  21
ENDBRANCH   2  20
TORSDOF 7
ENDMDL
MODEL 6
REMARK VINA RESULT:      -9.7      2.477      6.336
REMARK  Name = 24963036
REMARK  7 active torsions:
REMARK  status: ('A' for Active; 'I' for Inactive)
REMARK    1  A    between atoms: N_2  and  C_20
REMARK    2  A    between atoms: C_3  and  C_7
REMARK    3  A    between atoms: C_11  and  C_12
REMARK    4  A    between atoms: C_12  and  O_13
REMARK    5  A    between atoms: O_13  and  C_14
REMARK    6  A    between atoms: C_20  and  C_21
REMARK    7  A    between atoms: C_26  and  C_29
REMARK                            x       y       z     vdW  Elec       q    Type
REMARK                         _______ _______ _______ _____ _____    ______ ____
ROOT
ATOM      1  O   UNL     1      38.158 -23.843 -14.636  0.00  0.00    -0.273 OA
ATOM      2  N   UNL     1      36.806 -22.178 -15.542  0.00  0.00    -0.299 N 
ATOM      3  C   UNL     1      37.265 -23.006 -14.532  0.00  0.00    +0.241 C 
ATOM      4  H   UNL     1      36.081 -21.545 -15.336  0.00  0.00    +0.150 HD
ENDROOT
BRANCH   3   7
ATOM      5  O   UNL     1      34.064 -22.616 -14.649  0.00  0.00    -0.272 OA
ATOM      6  N   UNL     1      35.455 -23.709 -13.157  0.00  0.00    -0.271 N 
ATOM      7  C   UNL     1      36.559 -22.761 -13.232  0.00  0.00    +0.152 C 
ATOM      8  C   UNL     1      37.442 -23.097 -12.036  0.00  0.00    +0.031 C 
ATOM      9  C   UNL     1      37.198 -24.590 -11.825  0.00  0.00    +0.024 C 
ATOM     10  C   UNL     1      35.728 -24.757 -12.177  0.00  0.00    +0.094 C 
ATOM     11  C   UNL     1      34.258 -23.514 -13.828  0.00  0.00    +0.256 C 
BRANCH  11  12
ATOM     12  C   UNL     1      33.162 -24.497 -13.501  0.00  0.00    +0.227 C 
BRANCH  12  13
ATOM     13  O   UNL     1      32.252 -23.823 -12.668  0.00  0.00    -0.347 OA
BRANCH  13  14
ATOM     14  C   UNL     1      30.924 -23.872 -13.176  0.00  0.00    +0.116 C 
ATOM     15  C   UNL     1      30.711 -22.724 -14.163  0.00  0.00    +0.030 C 
ATOM     16  C   UNL     1      30.674 -25.229 -13.831  0.00  0.00    +0.030 C 
ATOM     17  C   UNL     1      29.331 -22.789 -14.811  0.00  0.00    +0.002 C 
ATOM     18  C   UNL     1      29.294 -25.295 -14.479  0.00  0.00    +0.002 C 
ATOM     19  C   UNL     1      29.081 -24.148 -15.462  0.00  0.00    +0.000 C 
ENDBRANCH  13  14
ENDBRANCH  12  13
ENDBRANCH  11  12
ENDBRANCH   3   7
BRANCH   2  20
ATOM     20  C   UNL     1      37.339 -22.200 -16.885  0.00  0.00    +0.116 C 
BRANCH  20  21
ATOM     21  C   UNL     1      36.353 -21.679 -17.890  0.00  0.00    -0.003 C 
ATOM     22  C   UNL     1      36.778 -20.821 -18.904  0.00  0.00    -0.003 C 
ATOM     23  C   UNL     1      35.011 -22.052 -17.808  0.00  0.00    -0.003 C 
ATOM     24  C   UNL     1      35.861 -20.336 -19.837  0.00  0.00    +0.002 C 
ATOM     25  C   UNL     1      34.094 -21.567 -18.741  0.00  0.00    +0.002 C 
ATOM     26  C   UNL     1      34.519 -20.709 -19.755  0.00  0.00    +0.031 C 
BRANCH  26  29
ATOM     27  N   UNL     1      33.984 -19.539 -21.879  0.00  0.00    -0.343 N 
ATOM     28  N   UNL     1      32.269 -20.365 -20.524  0.00  0.00    -0.285 NA
ATOM     29  C   UNL     1      33.564 -20.203 -20.727  0.00  0.00    +0.117 C 
ATOM     30  H   UNL     1      33.319 -19.205 -22.525  0.00  0.00    +0.144 HD
ATOM     31  H   UNL     1      34.945 -19.405 -22.047  0.00  0.00    +0.144 HD
ATOM     32  H   UNL     1      31.620 -20.024 -21.181  0.00  0.00    +0.188 HD
ENDBRANCH  26  29
ENDBRANCH  20  21
ENDBRANCH   2  20
TORSDOF 7
ENDMDL
MODEL 7
REMARK VINA RESULT:      -9.4      8.864     12.691
REMARK  Name = 24963036
REMARK  7 active torsions:
REMARK  status: ('A' for Active; 'I' for Inactive)
REMARK    1  A    between atoms: N_2  and  C_20
REMARK    2  A    between atoms: C_3  and  C_7
REMARK    3  A    between atoms: C_11  and  C_12
REMARK    4  A    between atoms: C_12  and  O_13
REMARK    5  A    between atoms: O_13  and  C_14
REMARK    6  A    between atoms: C_20  and  C_21
REMARK    7  A    between atoms: C_26  and  C_29
REMARK                            x       y       z     vdW  Elec       q    Type
REMARK                         _______ _______ _______ _____ _____    ______ ____
ROOT
ATOM      1  O   UNL     1      33.580 -14.228 -20.391  0.00  0.00    -0.273 OA
ATOM      2  N   UNL     1      32.708 -12.835 -22.041  0.00  0.00    -0.299 N 
ATOM      3  C   UNL     1      33.609 -13.750 -21.523  0.00  0.00    +0.241 C 
ATOM      4  H   UNL     1      32.836 -12.524 -22.966  0.00  0.00    +0.150 HD
ENDROOT
BRANCH   3   7
ATOM      5  O   UNL     1      35.428 -16.317 -20.809  0.00  0.00    -0.272 OA
ATOM      6  N   UNL     1      34.487 -15.564 -22.785  0.00  0.00    -0.271 N 
ATOM      7  C   UNL     1      34.657 -14.142 -22.520  0.00  0.00    +0.152 C 
ATOM      8  C   UNL     1      34.436 -13.467 -23.869  0.00  0.00    +0.031 C 
ATOM      9  C   UNL     1      33.476 -14.414 -24.586  0.00  0.00    +0.024 C 
ATOM     10  C   UNL     1      33.925 -15.789 -24.114  0.00  0.00    +0.094 C 
ATOM     11  C   UNL     1      34.959 -16.544 -21.925  0.00  0.00    +0.256 C 
BRANCH  11  12
ATOM     12  C   UNL     1      34.857 -17.960 -22.435  0.00  0.00    +0.227 C 
BRANCH  12  13
ATOM     13  O   UNL     1      35.757 -18.727 -21.673  0.00  0.00    -0.347 OA
BRANCH  13  14
ATOM     14  C   UNL     1      35.119 -19.363 -20.572  0.00  0.00    +0.116 C 
ATOM     15  C   UNL     1      33.729 -19.840 -20.990  0.00  0.00    +0.030 C 
ATOM     16  C   UNL     1      35.985 -20.520 -20.076  0.00  0.00    +0.030 C 
ATOM     17  C   UNL     1      33.040 -20.616 -19.872  0.00  0.00    +0.002 C 
ATOM     18  C   UNL     1      35.297 -21.296 -18.956  0.00  0.00    +0.002 C 
ATOM     19  C   UNL     1      33.907 -21.770 -19.374  0.00  0.00    +0.000 C 
ENDBRANCH  13  14
ENDBRANCH  12  13
ENDBRANCH  11  12
ENDBRANCH   3   7
BRANCH   2  20
ATOM     20  C   UNL     1      31.589 -12.315 -21.288  0.00  0.00    +0.116 C 
BRANCH  20  21
ATOM     21  C   UNL     1      31.780 -10.871 -20.924  0.00  0.00    -0.003 C 
ATOM     22  C   UNL     1      31.983  -9.921 -21.926  0.00  0.00    -0.003 C 
ATOM     23  C   UNL     1      31.756 -10.479 -19.586  0.00  0.00    -0.003 C 
ATOM     24  C   UNL     1      32.161  -8.579 -21.588  0.00  0.00    +0.002 C 
ATOM     25  C   UNL     1      31.934  -9.138 -19.248  0.00  0.00    +0.002 C 
ATOM     26  C   UNL     1      32.137  -8.188 -20.249  0.00  0.00    +0.031 C 
BRANCH  26  29
ATOM     27  N   UNL     1      31.701  -5.771 -20.617  0.00  0.00    -0.343 N 
ATOM     28  N   UNL     1      33.100  -6.464 -18.879  0.00  0.00    -0.285 NA
ATOM     29  C   UNL     1      32.324  -6.789 -19.897  0.00  0.00    +0.117 C 
ATOM     30  H   UNL     1      31.841  -4.831 -20.361  0.00  0.00    +0.144 HD
ATOM     31  H   UNL     1      31.121  -5.993 -21.382  0.00  0.00    +0.144 HD
ATOM     32  H   UNL     1      33.227  -5.519 -18.638  0.00  0.00    +0.188 HD
ENDBRANCH  26  29
ENDBRANCH  20  21
ENDBRANCH   2  20
TORSDOF 7
ENDMDL
MODEL 8
REMARK VINA RESULT:      -9.4     12.064     15.992
REMARK  Name = 24963036
REMARK  7 active torsions:
REMARK  status: ('A' for Active; 'I' for Inactive)
REMARK    1  A    between atoms: N_2  and  C_20
REMARK    2  A    between atoms: C_3  and  C_7
REMARK    3  A    between atoms: C_11  and  C_12
REMARK    4  A    between atoms: C_12  and  O_13
REMARK    5  A    between atoms: O_13  and  C_14
REMARK    6  A    between atoms: C_20  and  C_21
REMARK    7  A    between atoms: C_26  and  C_29
REMARK                            x       y       z     vdW  Elec       q    Type
REMARK                         _______ _______ _______ _____ _____    ______ ____
ROOT
ATOM      1  O   UNL     1      34.525 -10.649 -23.360  0.00  0.00    -0.273 OA
ATOM      2  N   UNL     1      33.101  -8.991 -22.558  0.00  0.00    -0.299 N 
ATOM      3  C   UNL     1      33.428 -10.278 -22.950  0.00  0.00    +0.241 C 
ATOM      4  H   UNL     1      32.184  -8.816 -22.246  0.00  0.00    +0.150 HD
ENDROOT
BRANCH   3   7
ATOM      5  O   UNL     1      33.488 -12.955 -24.750  0.00  0.00    -0.272 OA
ATOM      6  N   UNL     1      32.841 -12.551 -22.565  0.00  0.00    -0.271 N 
ATOM      7  C   UNL     1      32.278 -11.228 -22.799  0.00  0.00    +0.152 C 
ATOM      8  C   UNL     1      31.458 -10.929 -21.550  0.00  0.00    +0.031 C 
ATOM      9  C   UNL     1      32.179 -11.713 -20.456  0.00  0.00    +0.024 C 
ATOM     10  C   UNL     1      32.650 -12.966 -21.177  0.00  0.00    +0.094 C 
ATOM     11  C   UNL     1      33.340 -13.340 -23.589  0.00  0.00    +0.256 C 
BRANCH  11  12
ATOM     12  C   UNL     1      33.721 -14.746 -23.199  0.00  0.00    +0.227 C 
BRANCH  12  13
ATOM     13  O   UNL     1      34.314 -15.332 -24.332  0.00  0.00    -0.347 OA
BRANCH  13  14
ATOM     14  C   UNL     1      34.846 -16.621 -24.052  0.00  0.00    +0.116 C 
ATOM     15  C   UNL     1      35.295 -16.684 -22.593  0.00  0.00    +0.030 C 
ATOM     16  C   UNL     1      33.798 -17.688 -24.365  0.00  0.00    +0.030 C 
ATOM     17  C   UNL     1      35.784 -18.079 -22.215  0.00  0.00    +0.002 C 
ATOM     18  C   UNL     1      34.287 -19.083 -23.988  0.00  0.00    +0.002 C 
ATOM     19  C   UNL     1      34.738 -19.145 -22.531  0.00  0.00    +0.000 C 
ENDBRANCH  13  14
ENDBRANCH  12  13
ENDBRANCH  11  12
ENDBRANCH   3   7
BRANCH   2  20
ATOM     20  C   UNL     1      34.040  -7.893 -22.586  0.00  0.00    +0.116 C 
BRANCH  20  21
ATOM     21  C   UNL     1      33.347  -6.562 -22.617  0.00  0.00    -0.003 C 
ATOM     22  C   UNL     1      33.497  -5.724 -23.723  0.00  0.00    -0.003 C 
ATOM     23  C   UNL     1      32.556  -6.161 -21.541  0.00  0.00    -0.003 C 
ATOM     24  C   UNL     1      32.854  -4.486 -23.752  0.00  0.00    +0.002 C 
ATOM     25  C   UNL     1      31.913  -4.924 -21.570  0.00  0.00    +0.002 C 
ATOM     26  C   UNL     1      32.062  -4.086 -22.675  0.00  0.00    +0.031 C 
BRANCH  26  29
ATOM     27  N   UNL     1      30.462  -2.439 -21.731  0.00  0.00    -0.343 N 
ATOM     28  N   UNL     1      31.661  -1.937 -23.672  0.00  0.00    -0.285 NA
ATOM     29  C   UNL     1      31.393  -2.796 -22.705  0.00  0.00    +0.117 C 
ATOM     30  H   UNL     1      30.020  -1.560 -21.771  0.00  0.00    +0.144 HD
ATOM     31  H   UNL     1      30.245  -3.067 -21.004  0.00  0.00    +0.144 HD
ATOM     32  H   UNL     1      31.210  -1.063 -23.694  0.00  0.00    +0.188 HD
ENDBRANCH  26  29
ENDBRANCH  20  21
ENDBRANCH   2  20
TORSDOF 7
ENDMDL
MODEL 9
REMARK VINA RESULT:      -9.2      2.454      6.102
REMARK  Name = 24963036
REMARK  7 active torsions:
REMARK  status: ('A' for Active; 'I' for Inactive)
REMARK    1  A    between atoms: N_2  and  C_20
REMARK    2  A    between atoms: C_3  and  C_7
REMARK    3  A    between atoms: C_11  and  C_12
REMARK    4  A    between atoms: C_12  and  O_13
REMARK    5  A    between atoms: O_13  and  C_14
REMARK    6  A    between atoms: C_20  and  C_21
REMARK    7  A    between atoms: C_26  and  C_29
REMARK                            x       y       z     vdW  Elec       q    Type
REMARK                         _______ _______ _______ _____ _____    ______ ____
ROOT
ATOM      1  O   UNL     1      39.711 -24.243 -14.684  0.00  0.00    -0.273 OA
ATOM      2  N   UNL     1      37.564 -23.448 -15.104  0.00  0.00    -0.299 N 
ATOM      3  C   UNL     1      38.494 -24.296 -14.527  0.00  0.00    +0.241 C 
ATOM      4  H   UNL     1      36.611 -23.591 -14.901  0.00  0.00    +0.150 HD
ENDROOT
BRANCH   3   7
ATOM      5  O   UNL     1      35.853 -23.388 -12.912  0.00  0.00    -0.272 OA
ATOM      6  N   UNL     1      36.439 -25.360 -13.973  0.00  0.00    -0.271 N 
ATOM      7  C   UNL     1      37.855 -25.317 -13.634  0.00  0.00    +0.152 C 
ATOM      8  C   UNL     1      38.366 -26.723 -13.926  0.00  0.00    +0.031 C 
ATOM      9  C   UNL     1      37.449 -27.209 -15.046  0.00  0.00    +0.024 C 
ATOM     10  C   UNL     1      36.106 -26.587 -14.692  0.00  0.00    +0.094 C 
ATOM     11  C   UNL     1      35.534 -24.414 -13.516  0.00  0.00    +0.256 C 
BRANCH  11  12
ATOM     12  C   UNL     1      34.085 -24.705 -13.813  0.00  0.00    +0.227 C 
BRANCH  12  13
ATOM     13  O   UNL     1      33.327 -23.889 -12.954  0.00  0.00    -0.347 OA
BRANCH  13  14
ATOM     14  C   UNL     1      32.010 -23.671 -13.447  0.00  0.00    +0.116 C 
ATOM     15  C   UNL     1      32.078 -23.205 -14.901  0.00  0.00    +0.030 C 
ATOM     16  C   UNL     1      31.190 -24.952 -13.306  0.00  0.00    +0.030 C 
ATOM     17  C   UNL     1      30.687 -23.049 -15.507  0.00  0.00    +0.002 C 
ATOM     18  C   UNL     1      29.798 -24.797 -13.911  0.00  0.00    +0.002 C 
ATOM     19  C   UNL     1      29.866 -24.329 -15.363  0.00  0.00    +0.000 C 
ENDBRANCH  13  14
ENDBRANCH  12  13
ENDBRANCH  11  12
ENDBRANCH   3   7
BRANCH   2  20
ATOM     20  C   UNL     1      37.925 -22.363 -15.988  0.00  0.00    +0.116 C 
BRANCH  20  21
ATOM     21  C   UNL     1      36.821 -22.032 -16.950  0.00  0.00    -0.003 C 
ATOM     22  C   UNL     1      35.528 -22.503 -16.716  0.00  0.00    -0.003 C 
ATOM     23  C   UNL     1      37.087 -21.257 -18.078  0.00  0.00    -0.003 C 
ATOM     24  C   UNL     1      34.502 -22.196 -17.610  0.00  0.00    +0.002 C 
ATOM     25  C   UNL     1      36.061 -20.950 -18.972  0.00  0.00    +0.002 C 
ATOM     26  C   UNL     1      34.769 -21.420 -18.738  0.00  0.00    +0.031 C 
BRANCH  26  29
ATOM     27  N   UNL     1      33.870 -20.146 -20.671  0.00  0.00    -0.343 N 
ATOM     28  N   UNL     1      32.537 -21.721 -19.576  0.00  0.00    -0.285 NA
ATOM     29  C   UNL     1      33.700 -21.102 -19.671  0.00  0.00    +0.117 C 
ATOM     30  H   UNL     1      33.133 -19.946 -21.292  0.00  0.00    +0.144 HD
ATOM     31  H   UNL     1      34.728 -19.670 -20.756  0.00  0.00    +0.144 HD
ATOM     32  H   UNL     1      31.812 -21.508 -20.206  0.00  0.00    +0.188 HD
ENDBRANCH  26  29
ENDBRANCH  20  21
ENDBRANCH   2  20
TORSDOF 7
ENDMDL
