MODEL 1
REMARK VINA RESULT:     -12.7      0.000      0.000
REMARK  Name = 46926973
REMARK  4 active torsions:
REMARK  status: ('A' for Active; 'I' for Inactive)
REMARK    1  A    between atoms: C_4  and  C_17
REMARK    2  A    between atoms: C_6  and  C_13
REMARK    3  A    between atoms: C_17  and  C_19
REMARK    4  A    between atoms: C_21  and  C_26
REMARK                            x       y       z     vdW  Elec       q    Type
REMARK                         _______ _______ _______ _____ _____    ______ ____
ROOT
ATOM      1  O   UNL     1      36.612 -18.713 -22.450  0.00  0.00    -0.274 OA
ATOM      2  N   UNL     1      34.334 -19.163 -22.074  0.00  0.00    -0.269 N 
ATOM      3  N   UNL     1      33.168 -20.399 -20.429  0.00  0.00    -0.229 NA
ATOM      4  C   UNL     1      35.427 -18.604 -22.750  0.00  0.00    +0.232 C 
ATOM      5  C   UNL     1      34.348 -19.960 -20.922  0.00  0.00    +0.134 C 
ATOM      6  C   UNL     1      34.411 -21.506 -18.675  0.00  0.00    +0.038 C 
ATOM      7  C   UNL     1      35.580 -20.246 -20.358  0.00  0.00    +0.035 C 
ATOM      8  C   UNL     1      35.604 -21.036 -19.214  0.00  0.00    +0.006 C 
ATOM      9  C   UNL     1      33.231 -21.164 -19.315  0.00  0.00    +0.102 C 
ATOM     10  H   UNL     1      33.447 -18.972 -22.455  0.00  0.00    +0.156 HD
ENDROOT
BRANCH   6  13
ATOM     11  N   UNL     1      35.580 -22.437 -16.838  0.00  0.00    -0.241 NA
ATOM     12  N   UNL     1      33.260 -23.730 -15.937  0.00  0.00    -0.239 NA
ATOM     13  C   UNL     1      34.403 -22.328 -17.488  0.00  0.00    +0.102 C 
ATOM     14  C   UNL     1      33.264 -22.963 -17.045  0.00  0.00    +0.118 C 
ATOM     15  C   UNL     1      35.575 -23.204 -15.730  0.00  0.00    +0.119 C 
ATOM     16  C   UNL     1      34.436 -23.840 -15.287  0.00  0.00    +0.120 C 
ENDBRANCH   6  13
BRANCH   4  17
ATOM     17  C   UNL     1      34.966 -17.802 -23.957  0.00  0.00    +0.113 C 
BRANCH  17  19
ATOM     18  N   UNL     1      33.530 -14.317 -24.322  0.00  0.00    -0.244 NA
ATOM     19  C   UNL     1      34.544 -16.396 -23.617  0.00  0.00    +0.006 C 
ATOM     20  C   UNL     1      34.361 -14.568 -22.065  0.00  0.00    -0.004 C 
ATOM     21  C   UNL     1      33.756 -13.841 -23.077  0.00  0.00    +0.077 C 
ATOM     22  C   UNL     1      34.759 -15.870 -22.349  0.00  0.00    -0.005 C 
ATOM     23  C   UNL     1      33.931 -15.586 -24.560  0.00  0.00    +0.095 C 
ATOM     24  C   UNL     1      34.593 -14.007 -20.704  0.00  0.00    +0.033 C 
BRANCH  21  26
ATOM     25  N   UNL     1      32.444  -9.850 -22.489  0.00  0.00    -0.248 NA
ATOM     26  C   UNL     1      33.309 -12.481 -22.876  0.00  0.00    +0.020 C 
ATOM     27  C   UNL     1      32.347 -12.196 -21.912  0.00  0.00    +0.016 C 
ATOM     28  C   UNL     1      33.839 -11.451 -23.646  0.00  0.00    +0.022 C 
ATOM     29  C   UNL     1      31.953 -10.876 -21.760  0.00  0.00    +0.059 C 
ATOM     30  C   UNL     1      33.377 -10.165 -23.416  0.00  0.00    +0.098 C 
ATOM     31  C   UNL     1      30.922 -10.534 -20.735  0.00  0.00    +0.052 C 
ENDBRANCH  21  26
ENDBRANCH  17  19
ENDBRANCH   4  17
TORSDOF 4
ENDMDL
MODEL 2
REMARK VINA RESULT:     -12.4      1.137      1.352
REMARK  Name = 46926973
REMARK  4 active torsions:
REMARK  status: ('A' for Active; 'I' for Inactive)
REMARK    1  A    between atoms: C_4  and  C_17
REMARK    2  A    between atoms: C_6  and  C_13
REMARK    3  A    between atoms: C_17  and  C_19
REMARK    4  A    between atoms: C_21  and  C_26
REMARK                            x       y       z     vdW  Elec       q    Type
REMARK                         _______ _______ _______ _____ _____    ______ ____
ROOT
ATOM      1  O   UNL     1      33.449 -19.423 -22.241  0.00  0.00    -0.274 OA
ATOM      2  N   UNL     1      35.603 -19.430 -21.299  0.00  0.00    -0.269 N 
ATOM      3  N   UNL     1      36.540 -20.455 -19.384  0.00  0.00    -0.229 NA
ATOM      4  C   UNL     1      34.626 -19.078 -22.240  0.00  0.00    +0.232 C 
ATOM      5  C   UNL     1      35.459 -20.241 -20.166  0.00  0.00    +0.134 C 
ATOM      6  C   UNL     1      35.140 -21.830 -17.971  0.00  0.00    +0.038 C 
ATOM      7  C   UNL     1      34.205 -20.778 -19.921  0.00  0.00    +0.035 C 
ATOM      8  C   UNL     1      34.051 -21.585 -18.800  0.00  0.00    +0.006 C 
ATOM      9  C   UNL     1      36.352 -21.246 -18.303  0.00  0.00    +0.102 C 
ATOM     10  H   UNL     1      36.503 -19.062 -21.453  0.00  0.00    +0.156 HD
ENDROOT
BRANCH   6  13
ATOM     11  N   UNL     1      36.153 -22.912 -16.125  0.00  0.00    -0.241 NA
ATOM     12  N   UNL     1      33.683 -23.953 -15.300  0.00  0.00    -0.239 NA
ATOM     13  C   UNL     1      35.012 -22.664 -16.799  0.00  0.00    +0.102 C 
ATOM     14  C   UNL     1      33.799 -23.175 -16.394  0.00  0.00    +0.118 C 
ATOM     15  C   UNL     1      36.036 -23.690 -15.031  0.00  0.00    +0.119 C 
ATOM     16  C   UNL     1      34.824 -24.202 -14.625  0.00  0.00    +0.120 C 
ENDBRANCH   6  13
BRANCH   4  17
ATOM     17  C   UNL     1      35.211 -18.178 -23.318  0.00  0.00    +0.113 C 
BRANCH  17  19
ATOM     18  N   UNL     1      33.896 -14.752 -24.249  0.00  0.00    -0.244 NA
ATOM     19  C   UNL     1      34.780 -16.739 -23.195  0.00  0.00    +0.006 C 
ATOM     20  C   UNL     1      34.454 -14.741 -21.896  0.00  0.00    -0.004 C 
ATOM     21  C   UNL     1      33.985 -14.134 -23.050  0.00  0.00    +0.077 C 
ATOM     22  C   UNL     1      34.857 -16.070 -21.979  0.00  0.00    -0.005 C 
ATOM     23  C   UNL     1      34.297 -16.041 -24.290  0.00  0.00    +0.095 C 
ATOM     24  C   UNL     1      34.538 -14.025 -20.592  0.00  0.00    +0.033 C 
BRANCH  21  26
ATOM     25  N   UNL     1      32.692 -10.094 -23.086  0.00  0.00    -0.248 NA
ATOM     26  C   UNL     1      33.544 -12.756 -23.062  0.00  0.00    +0.020 C 
ATOM     27  C   UNL     1      32.590 -12.320 -22.149  0.00  0.00    +0.016 C 
ATOM     28  C   UNL     1      34.073 -11.863 -23.987  0.00  0.00    +0.022 C 
ATOM     29  C   UNL     1      32.201 -10.991 -22.203  0.00  0.00    +0.059 C 
ATOM     30  C   UNL     1      33.618 -10.554 -23.958  0.00  0.00    +0.098 C 
ATOM     31  C   UNL     1      31.179 -10.488 -21.239  0.00  0.00    +0.052 C 
ENDBRANCH  21  26
ENDBRANCH  17  19
ENDBRANCH   4  17
TORSDOF 4
ENDMDL
MODEL 3
REMARK VINA RESULT:     -12.3      2.630     11.140
REMARK  Name = 46926973
REMARK  4 active torsions:
REMARK  status: ('A' for Active; 'I' for Inactive)
REMARK    1  A    between atoms: C_4  and  C_17
REMARK    2  A    between atoms: C_6  and  C_13
REMARK    3  A    between atoms: C_17  and  C_19
REMARK    4  A    between atoms: C_21  and  C_26
REMARK                            x       y       z     vdW  Elec       q    Type
REMARK                         _______ _______ _______ _____ _____    ______ ____
ROOT
ATOM      1  O   UNL     1      32.711 -13.744 -22.817  0.00  0.00    -0.274 OA
ATOM      2  N   UNL     1      34.184 -12.136 -23.700  0.00  0.00    -0.269 N 
ATOM      3  N   UNL     1      34.266  -9.774 -23.603  0.00  0.00    -0.229 NA
ATOM      4  C   UNL     1      33.707 -13.433 -23.465  0.00  0.00    +0.232 C 
ATOM      5  C   UNL     1      33.641 -10.923 -23.259  0.00  0.00    +0.134 C 
ATOM      6  C   UNL     1      32.558  -8.579 -22.378  0.00  0.00    +0.038 C 
ATOM      7  C   UNL     1      32.490 -10.980 -22.490  0.00  0.00    +0.035 C 
ATOM      8  C   UNL     1      31.944  -9.781 -22.046  0.00  0.00    +0.006 C 
ATOM      9  C   UNL     1      33.706  -8.629 -23.153  0.00  0.00    +0.102 C 
ATOM     10  H   UNL     1      35.002 -12.070 -24.244  0.00  0.00    +0.156 HD
ENDROOT
BRANCH   6  13
ATOM     11  N   UNL     1      32.287  -6.976 -20.657  0.00  0.00    -0.241 NA
ATOM     12  N   UNL     1      30.759  -5.334 -22.340  0.00  0.00    -0.239 NA
ATOM     13  C   UNL     1      32.015  -7.317 -21.932  0.00  0.00    +0.102 C 
ATOM     14  C   UNL     1      31.265  -6.510 -22.759  0.00  0.00    +0.118 C 
ATOM     15  C   UNL     1      31.782  -5.799 -20.238  0.00  0.00    +0.119 C 
ATOM     16  C   UNL     1      31.031  -4.992 -21.064  0.00  0.00    +0.120 C 
ENDBRANCH   6  13
BRANCH   4  17
ATOM     17  C   UNL     1      34.601 -14.469 -24.127  0.00  0.00    +0.113 C 
BRANCH  17  19
ATOM     18  N   UNL     1      35.165 -16.764 -21.169  0.00  0.00    -0.244 NA
ATOM     19  C   UNL     1      34.761 -15.729 -23.316  0.00  0.00    +0.006 C 
ATOM     20  C   UNL     1      34.817 -18.127 -23.136  0.00  0.00    -0.004 C 
ATOM     21  C   UNL     1      35.064 -17.965 -21.782  0.00  0.00    +0.077 C 
ATOM     22  C   UNL     1      34.664 -16.981 -23.910  0.00  0.00    -0.005 C 
ATOM     23  C   UNL     1      35.010 -15.675 -21.953  0.00  0.00    +0.095 C 
ATOM     24  C   UNL     1      34.714 -19.468 -23.776  0.00  0.00    +0.033 C 
BRANCH  21  26
ATOM     25  N   UNL     1      35.575 -21.281 -19.187  0.00  0.00    -0.248 NA
ATOM     26  C   UNL     1      35.238 -19.095 -20.897  0.00  0.00    +0.020 C 
ATOM     27  C   UNL     1      34.130 -19.802 -20.441  0.00  0.00    +0.016 C 
ATOM     28  C   UNL     1      36.513 -19.480 -20.500  0.00  0.00    +0.022 C 
ATOM     29  C   UNL     1      34.351 -20.877 -19.595  0.00  0.00    +0.059 C 
ATOM     30  C   UNL     1      36.627 -20.569 -19.651  0.00  0.00    +0.098 C 
ATOM     31  C   UNL     1      33.186 -21.658 -19.085  0.00  0.00    +0.052 C 
ENDBRANCH  21  26
ENDBRANCH  17  19
ENDBRANCH   4  17
TORSDOF 4
ENDMDL
MODEL 4
REMARK VINA RESULT:     -12.2      1.270      2.181
REMARK  Name = 46926973
REMARK  4 active torsions:
REMARK  status: ('A' for Active; 'I' for Inactive)
REMARK    1  A    between atoms: C_4  and  C_17
REMARK    2  A    between atoms: C_6  and  C_13
REMARK    3  A    between atoms: C_17  and  C_19
REMARK    4  A    between atoms: C_21  and  C_26
REMARK                            x       y       z     vdW  Elec       q    Type
REMARK                         _______ _______ _______ _____ _____    ______ ____
ROOT
ATOM      1  O   UNL     1      33.528 -19.303 -22.284  0.00  0.00    -0.274 OA
ATOM      2  N   UNL     1      35.659 -19.346 -21.290  0.00  0.00    -0.269 N 
ATOM      3  N   UNL     1      36.540 -20.412 -19.371  0.00  0.00    -0.229 NA
ATOM      4  C   UNL     1      34.708 -18.969 -22.248  0.00  0.00    +0.232 C 
ATOM      5  C   UNL     1      35.480 -20.175 -20.175  0.00  0.00    +0.134 C 
ATOM      6  C   UNL     1      35.094 -21.797 -18.016  0.00  0.00    +0.038 C 
ATOM      7  C   UNL     1      34.216 -20.704 -19.969  0.00  0.00    +0.035 C 
ATOM      8  C   UNL     1      34.027 -21.529 -18.866  0.00  0.00    +0.006 C 
ATOM      9  C   UNL     1      36.319 -21.219 -18.308  0.00  0.00    +0.102 C 
ATOM     10  H   UNL     1      36.566 -18.984 -21.416  0.00  0.00    +0.156 HD
ENDROOT
BRANCH   6  13
ATOM     11  N   UNL     1      36.049 -22.907 -16.155  0.00  0.00    -0.241 NA
ATOM     12  N   UNL     1      33.556 -23.965 -15.426  0.00  0.00    -0.239 NA
ATOM     13  C   UNL     1      34.930 -22.650 -16.862  0.00  0.00    +0.102 C 
ATOM     14  C   UNL     1      33.706 -23.169 -16.503  0.00  0.00    +0.118 C 
ATOM     15  C   UNL     1      35.899 -23.702 -15.077  0.00  0.00    +0.119 C 
ATOM     16  C   UNL     1      34.675 -24.222 -14.719  0.00  0.00    +0.120 C 
ENDBRANCH   6  13
BRANCH   4  17
ATOM     17  C   UNL     1      35.326 -18.057 -23.296  0.00  0.00    +0.113 C 
BRANCH  17  19
ATOM     18  N   UNL     1      34.442 -14.654 -21.889  0.00  0.00    -0.244 NA
ATOM     19  C   UNL     1      34.832 -16.635 -23.219  0.00  0.00    +0.006 C 
ATOM     20  C   UNL     1      33.875 -14.679 -24.240  0.00  0.00    -0.004 C 
ATOM     21  C   UNL     1      33.955 -14.061 -23.002  0.00  0.00    +0.077 C 
ATOM     22  C   UNL     1      34.324 -15.992 -24.341  0.00  0.00    -0.005 C 
ATOM     23  C   UNL     1      34.869 -15.929 -22.027  0.00  0.00    +0.095 C 
ATOM     24  C   UNL     1      33.329 -13.992 -25.444  0.00  0.00    +0.033 C 
BRANCH  21  26
ATOM     25  N   UNL     1      32.654 -10.068 -22.405  0.00  0.00    -0.248 NA
ATOM     26  C   UNL     1      33.512 -12.700 -22.799  0.00  0.00    +0.020 C 
ATOM     27  C   UNL     1      34.169 -11.650 -23.430  0.00  0.00    +0.016 C 
ATOM     28  C   UNL     1      32.426 -12.436 -21.972  0.00  0.00    +0.022 C 
ATOM     29  C   UNL     1      33.705 -10.364 -23.202  0.00  0.00    +0.059 C 
ATOM     30  C   UNL     1      32.040 -11.115 -21.809  0.00  0.00    +0.098 C 
ATOM     31  C   UNL     1      34.387  -9.212 -23.863  0.00  0.00    +0.052 C 
ENDBRANCH  21  26
ENDBRANCH  17  19
ENDBRANCH   4  17
TORSDOF 4
ENDMDL
MODEL 5
REMARK VINA RESULT:     -10.6      3.009      5.465
REMARK  Name = 46926973
REMARK  4 active torsions:
REMARK  status: ('A' for Active; 'I' for Inactive)
REMARK    1  A    between atoms: C_4  and  C_17
REMARK    2  A    between atoms: C_6  and  C_13
REMARK    3  A    between atoms: C_17  and  C_19
REMARK    4  A    between atoms: C_21  and  C_26
REMARK                            x       y       z     vdW  Elec       q    Type
REMARK                         _______ _______ _______ _____ _____    ______ ____
ROOT
ATOM      1  O   UNL     1      34.295 -12.871 -21.738  0.00  0.00    -0.274 OA
ATOM      2  N   UNL     1      34.488 -14.489 -23.434  0.00  0.00    -0.269 N 
ATOM      3  N   UNL     1      34.874 -16.823 -23.423  0.00  0.00    -0.229 NA
ATOM      4  C   UNL     1      34.298 -13.199 -22.921  0.00  0.00    +0.232 C 
ATOM      5  C   UNL     1      34.715 -15.675 -22.726  0.00  0.00    +0.134 C 
ATOM      6  C   UNL     1      35.150 -17.968 -21.312  0.00  0.00    +0.038 C 
ATOM      7  C   UNL     1      34.760 -15.595 -21.343  0.00  0.00    +0.035 C 
ATOM      8  C   UNL     1      34.983 -16.768 -20.630  0.00  0.00    +0.006 C 
ATOM      9  C   UNL     1      35.088 -17.942 -22.696  0.00  0.00    +0.102 C 
ATOM     10  H   UNL     1      34.459 -14.571 -24.415  0.00  0.00    +0.156 HD
ENDROOT
BRANCH   6  13
ATOM     11  N   UNL     1      36.647 -19.408 -20.175  0.00  0.00    -0.241 NA
ATOM     12  N   UNL     1      34.601 -21.267 -19.705  0.00  0.00    -0.239 NA
ATOM     13  C   UNL     1      35.384 -19.202 -20.600  0.00  0.00    +0.102 C 
ATOM     14  C   UNL     1      34.380 -20.116 -20.369  0.00  0.00    +0.118 C 
ATOM     15  C   UNL     1      36.868 -20.559 -19.510  0.00  0.00    +0.119 C 
ATOM     16  C   UNL     1      35.864 -21.473 -19.279  0.00  0.00    +0.120 C 
ENDBRANCH   6  13
BRANCH   4  17
ATOM     17  C   UNL     1      34.081 -12.195 -24.042  0.00  0.00    +0.113 C 
BRANCH  17  19
ATOM     18  N   UNL     1      32.016  -9.416 -22.508  0.00  0.00    -0.244 NA
ATOM     19  C   UNL     1      33.678 -10.828 -23.553  0.00  0.00    +0.006 C 
ATOM     20  C   UNL     1      34.135  -8.491 -23.215  0.00  0.00    -0.004 C 
ATOM     21  C   UNL     1      32.878  -8.383 -22.645  0.00  0.00    +0.077 C 
ATOM     22  C   UNL     1      34.535  -9.741 -23.675  0.00  0.00    -0.005 C 
ATOM     23  C   UNL     1      32.440 -10.615 -22.967  0.00  0.00    +0.095 C 
ATOM     24  C   UNL     1      35.056  -7.327 -23.349  0.00  0.00    +0.033 C 
BRANCH  21  26
ATOM     25  N   UNL     1      31.401  -4.694 -21.161  0.00  0.00    -0.248 NA
ATOM     26  C   UNL     1      32.374  -7.125 -22.139  0.00  0.00    +0.020 C 
ATOM     27  C   UNL     1      32.151  -6.062 -23.008  0.00  0.00    +0.016 C 
ATOM     28  C   UNL     1      32.111  -6.974 -20.782  0.00  0.00    +0.022 C 
ATOM     29  C   UNL     1      31.668  -4.878 -22.472  0.00  0.00    +0.059 C 
ATOM     30  C   UNL     1      31.630  -5.749 -20.347  0.00  0.00    +0.098 C 
ATOM     31  C   UNL     1      31.417  -3.716 -23.375  0.00  0.00    +0.052 C 
ENDBRANCH  21  26
ENDBRANCH  17  19
ENDBRANCH   4  17
TORSDOF 4
ENDMDL
MODEL 6
REMARK VINA RESULT:     -10.6      1.520     10.071
REMARK  Name = 46926973
REMARK  4 active torsions:
REMARK  status: ('A' for Active; 'I' for Inactive)
REMARK    1  A    between atoms: C_4  and  C_17
REMARK    2  A    between atoms: C_6  and  C_13
REMARK    3  A    between atoms: C_17  and  C_19
REMARK    4  A    between atoms: C_21  and  C_26
REMARK                            x       y       z     vdW  Elec       q    Type
REMARK                         _______ _______ _______ _____ _____    ______ ____
ROOT
ATOM      1  O   UNL     1      34.685 -17.418 -24.273  0.00  0.00    -0.274 OA
ATOM      2  N   UNL     1      35.328 -16.464 -22.221  0.00  0.00    -0.269 N 
ATOM      3  N   UNL     1      34.805 -14.428 -21.136  0.00  0.00    -0.229 NA
ATOM      4  C   UNL     1      35.311 -17.450 -23.218  0.00  0.00    +0.232 C 
ATOM      5  C   UNL     1      34.647 -15.240 -22.206  0.00  0.00    +0.134 C 
ATOM      6  C   UNL     1      33.302 -12.867 -22.208  0.00  0.00    +0.038 C 
ATOM      7  C   UNL     1      33.848 -14.940 -23.297  0.00  0.00    +0.035 C 
ATOM      8  C   UNL     1      33.166 -13.729 -23.291  0.00  0.00    +0.006 C 
ATOM      9  C   UNL     1      34.126 -13.259 -21.166  0.00  0.00    +0.102 C 
ATOM     10  H   UNL     1      35.889 -16.655 -21.435  0.00  0.00    +0.156 HD
ENDROOT
BRANCH   6  13
ATOM     11  N   UNL     1      33.099 -10.636 -22.975  0.00  0.00    -0.241 NA
ATOM     12  N   UNL     1      30.864 -10.209 -21.335  0.00  0.00    -0.239 NA
ATOM     13  C   UNL     1      32.608 -11.601 -22.172  0.00  0.00    +0.102 C 
ATOM     14  C   UNL     1      31.510 -11.391 -21.367  0.00  0.00    +0.118 C 
ATOM     15  C   UNL     1      32.453  -9.454 -22.944  0.00  0.00    +0.119 C 
ATOM     16  C   UNL     1      31.356  -9.243 -22.138  0.00  0.00    +0.120 C 
ENDBRANCH   6  13
BRANCH   4  17
ATOM     17  C   UNL     1      36.194 -18.626 -22.832  0.00  0.00    +0.113 C 
BRANCH  17  19
ATOM     18  N   UNL     1      36.100 -20.706 -19.669  0.00  0.00    -0.244 NA
ATOM     19  C   UNL     1      35.659 -19.420 -21.668  0.00  0.00    +0.006 C 
ATOM     20  C   UNL     1      33.828 -20.351 -20.416  0.00  0.00    -0.004 C 
ATOM     21  C   UNL     1      34.765 -20.871 -19.538  0.00  0.00    +0.077 C 
ATOM     22  C   UNL     1      34.293 -19.612 -21.500  0.00  0.00    -0.005 C 
ATOM     23  C   UNL     1      36.514 -19.983 -20.733  0.00  0.00    +0.095 C 
ATOM     24  C   UNL     1      32.363 -20.556 -20.238  0.00  0.00    +0.033 C 
BRANCH  21  26
ATOM     25  N   UNL     1      33.630 -23.162 -16.153  0.00  0.00    -0.248 NA
ATOM     26  C   UNL     1      34.378 -21.652 -18.384  0.00  0.00    +0.020 C 
ATOM     27  C   UNL     1      35.324 -21.995 -17.424  0.00  0.00    +0.016 C 
ATOM     28  C   UNL     1      33.059 -22.064 -18.230  0.00  0.00    +0.022 C 
ATOM     29  C   UNL     1      34.902 -22.744 -16.337  0.00  0.00    +0.059 C 
ATOM     30  C   UNL     1      32.739 -22.810 -17.108  0.00  0.00    +0.098 C 
ATOM     31  C   UNL     1      35.890 -23.130 -15.287  0.00  0.00    +0.052 C 
ENDBRANCH  21  26
ENDBRANCH  17  19
ENDBRANCH   4  17
TORSDOF 4
ENDMDL
MODEL 7
REMARK VINA RESULT:     -10.3      1.516      9.996
REMARK  Name = 46926973
REMARK  4 active torsions:
REMARK  status: ('A' for Active; 'I' for Inactive)
REMARK    1  A    between atoms: C_4  and  C_17
REMARK    2  A    between atoms: C_6  and  C_13
REMARK    3  A    between atoms: C_17  and  C_19
REMARK    4  A    between atoms: C_21  and  C_26
REMARK                            x       y       z     vdW  Elec       q    Type
REMARK                         _______ _______ _______ _____ _____    ______ ____
ROOT
ATOM      1  O   UNL     1      34.586 -17.517 -24.236  0.00  0.00    -0.274 OA
ATOM      2  N   UNL     1      35.320 -16.526 -22.234  0.00  0.00    -0.269 N 
ATOM      3  N   UNL     1      34.851 -14.466 -21.168  0.00  0.00    -0.229 NA
ATOM      4  C   UNL     1      35.256 -17.531 -23.208  0.00  0.00    +0.232 C 
ATOM      5  C   UNL     1      34.645 -15.299 -22.214  0.00  0.00    +0.134 C 
ATOM      6  C   UNL     1      33.309 -12.919 -22.206  0.00  0.00    +0.038 C 
ATOM      7  C   UNL     1      33.800 -15.017 -23.275  0.00  0.00    +0.035 C 
ATOM      8  C   UNL     1      33.125 -13.802 -23.264  0.00  0.00    +0.006 C 
ATOM      9  C   UNL     1      34.176 -13.295 -21.192  0.00  0.00    +0.102 C 
ATOM     10  H   UNL     1      35.912 -16.704 -21.468  0.00  0.00    +0.156 HD
ENDROOT
BRANCH   6  13
ATOM     11  N   UNL     1      33.124 -10.682 -22.959  0.00  0.00    -0.241 NA
ATOM     12  N   UNL     1      30.882 -10.253 -21.331  0.00  0.00    -0.239 NA
ATOM     13  C   UNL     1      32.622 -11.650 -22.166  0.00  0.00    +0.102 C 
ATOM     14  C   UNL     1      31.521 -11.439 -21.366  0.00  0.00    +0.118 C 
ATOM     15  C   UNL     1      32.485  -9.497 -22.924  0.00  0.00    +0.119 C 
ATOM     16  C   UNL     1      31.384  -9.285 -22.124  0.00  0.00    +0.120 C 
ENDBRANCH   6  13
BRANCH   4  17
ATOM     17  C   UNL     1      36.150 -18.704 -22.837  0.00  0.00    +0.113 C 
BRANCH  17  19
ATOM     18  N   UNL     1      36.174 -20.745 -19.648  0.00  0.00    -0.244 NA
ATOM     19  C   UNL     1      35.658 -19.476 -21.640  0.00  0.00    +0.006 C 
ATOM     20  C   UNL     1      33.875 -20.362 -20.291  0.00  0.00    -0.004 C 
ATOM     21  C   UNL     1      34.844 -20.887 -19.452  0.00  0.00    +0.077 C 
ATOM     22  C   UNL     1      34.299 -19.644 -21.404  0.00  0.00    -0.005 C 
ATOM     23  C   UNL     1      36.548 -20.041 -20.740  0.00  0.00    +0.095 C 
ATOM     24  C   UNL     1      32.417 -20.542 -20.042  0.00  0.00    +0.033 C 
BRANCH  21  26
ATOM     25  N   UNL     1      33.836 -23.121 -15.990  0.00  0.00    -0.248 NA
ATOM     26  C   UNL     1      34.500 -21.649 -18.272  0.00  0.00    +0.020 C 
ATOM     27  C   UNL     1      33.178 -22.008 -18.033  0.00  0.00    +0.016 C 
ATOM     28  C   UNL     1      35.491 -22.025 -17.371  0.00  0.00    +0.022 C 
ATOM     29  C   UNL     1      32.901 -22.738 -16.888  0.00  0.00    +0.059 C 
ATOM     30  C   UNL     1      35.110 -22.754 -16.256  0.00  0.00    +0.098 C 
ATOM     31  C   UNL     1      31.493 -23.141 -16.599  0.00  0.00    +0.052 C 
ENDBRANCH  21  26
ENDBRANCH  17  19
ENDBRANCH   4  17
TORSDOF 4
ENDMDL
MODEL 8
REMARK VINA RESULT:     -10.1      1.788      9.592
REMARK  Name = 46926973
REMARK  4 active torsions:
REMARK  status: ('A' for Active; 'I' for Inactive)
REMARK    1  A    between atoms: C_4  and  C_17
REMARK    2  A    between atoms: C_6  and  C_13
REMARK    3  A    between atoms: C_17  and  C_19
REMARK    4  A    between atoms: C_21  and  C_26
REMARK                            x       y       z     vdW  Elec       q    Type
REMARK                         _______ _______ _______ _____ _____    ______ ____
ROOT
ATOM      1  O   UNL     1      33.837 -15.400 -25.309  0.00  0.00    -0.274 OA
ATOM      2  N   UNL     1      34.391 -15.620 -23.034  0.00  0.00    -0.269 N 
ATOM      3  N   UNL     1      34.047 -14.254 -21.134  0.00  0.00    -0.229 NA
ATOM      4  C   UNL     1      34.340 -16.019 -24.377  0.00  0.00    +0.232 C 
ATOM      5  C   UNL     1      33.889 -14.444 -22.463  0.00  0.00    +0.134 C 
ATOM      6  C   UNL     1      32.895 -12.143 -21.385  0.00  0.00    +0.038 C 
ATOM      7  C   UNL     1      33.256 -13.544 -23.306  0.00  0.00    +0.035 C 
ATOM      8  C   UNL     1      32.753 -12.374 -22.749  0.00  0.00    +0.006 C 
ATOM      9  C   UNL     1      33.544 -13.105 -20.628  0.00  0.00    +0.102 C 
ATOM     10  H   UNL     1      34.835 -16.244 -22.415  0.00  0.00    +0.156 HD
ENDROOT
BRANCH   6  13
ATOM     11  N   UNL     1      31.990 -11.046 -19.492  0.00  0.00    -0.241 NA
ATOM     12  N   UNL     1      31.825  -8.624 -20.896  0.00  0.00    -0.239 NA
ATOM     13  C   UNL     1      32.384 -10.937 -20.777  0.00  0.00    +0.102 C 
ATOM     14  C   UNL     1      32.303  -9.747 -21.466  0.00  0.00    +0.118 C 
ATOM     15  C   UNL     1      31.512  -9.922 -18.922  0.00  0.00    +0.119 C 
ATOM     16  C   UNL     1      31.431  -8.733 -19.611  0.00  0.00    +0.120 C 
ENDBRANCH   6  13
BRANCH   4  17
ATOM     17  C   UNL     1      35.006 -17.373 -24.566  0.00  0.00    +0.113 C 
BRANCH  17  19
ATOM     18  N   UNL     1      33.940 -19.847 -21.904  0.00  0.00    -0.244 NA
ATOM     19  C   UNL     1      35.027 -18.210 -23.313  0.00  0.00    +0.006 C 
ATOM     20  C   UNL     1      36.087 -18.928 -21.276  0.00  0.00    -0.004 C 
ATOM     21  C   UNL     1      34.996 -19.755 -21.065  0.00  0.00    +0.077 C 
ATOM     22  C   UNL     1      36.095 -18.144 -22.425  0.00  0.00    -0.005 C 
ATOM     23  C   UNL     1      33.984 -19.070 -23.009  0.00  0.00    +0.095 C 
ATOM     24  C   UNL     1      37.232 -18.854 -20.326  0.00  0.00    +0.033 C 
BRANCH  21  26
ATOM     25  N   UNL     1      34.707 -22.250 -17.646  0.00  0.00    -0.248 NA
ATOM     26  C   UNL     1      34.898 -20.606 -19.899  0.00  0.00    +0.020 C 
ATOM     27  C   UNL     1      36.021 -20.849 -19.116  0.00  0.00    +0.016 C 
ATOM     28  C   UNL     1      33.680 -21.183 -19.557  0.00  0.00    +0.022 C 
ATOM     29  C   UNL     1      35.873 -21.671 -18.010  0.00  0.00    +0.059 C 
ATOM     30  C   UNL     1      33.638 -21.990 -18.432  0.00  0.00    +0.098 C 
ATOM     31  C   UNL     1      37.058 -21.955 -17.147  0.00  0.00    +0.052 C 
ENDBRANCH  21  26
ENDBRANCH  17  19
ENDBRANCH   4  17
TORSDOF 4
ENDMDL
MODEL 9
REMARK VINA RESULT:     -10.1      1.386      1.984
REMARK  Name = 46926973
REMARK  4 active torsions:
REMARK  status: ('A' for Active; 'I' for Inactive)
REMARK    1  A    between atoms: C_4  and  C_17
REMARK    2  A    between atoms: C_6  and  C_13
REMARK    3  A    between atoms: C_17  and  C_19
REMARK    4  A    between atoms: C_21  and  C_26
REMARK                            x       y       z     vdW  Elec       q    Type
REMARK                         _______ _______ _______ _____ _____    ______ ____
ROOT
ATOM      1  O   UNL     1      37.164 -19.166 -20.612  0.00  0.00    -0.274 OA
ATOM      2  N   UNL     1      35.124 -20.303 -20.891  0.00  0.00    -0.269 N 
ATOM      3  N   UNL     1      33.878 -21.773 -19.520  0.00  0.00    -0.229 NA
ATOM      4  C   UNL     1      36.172 -19.455 -21.274  0.00  0.00    +0.232 C 
ATOM      5  C   UNL     1      34.976 -21.002 -19.687  0.00  0.00    +0.134 C 
ATOM      6  C   UNL     1      34.718 -22.346 -17.326  0.00  0.00    +0.038 C 
ATOM      7  C   UNL     1      35.972 -20.854 -18.735  0.00  0.00    +0.035 C 
ATOM      8  C   UNL     1      35.834 -21.543 -17.536  0.00  0.00    +0.006 C 
ATOM      9  C   UNL     1      33.778 -22.427 -18.340  0.00  0.00    +0.102 C 
ATOM     10  H   UNL     1      34.403 -20.422 -21.550  0.00  0.00    +0.156 HD
ENDROOT
BRANCH   6  13
ATOM     11  N   UNL     1      35.649 -23.678 -15.604  0.00  0.00    -0.241 NA
ATOM     12  N   UNL     1      33.173 -23.829 -14.296  0.00  0.00    -0.239 NA
ATOM     13  C   UNL     1      34.546 -23.074 -16.091  0.00  0.00    +0.102 C 
ATOM     14  C   UNL     1      33.330 -23.148 -15.448  0.00  0.00    +0.118 C 
ATOM     15  C   UNL     1      35.491 -24.358 -14.452  0.00  0.00    +0.119 C 
ATOM     16  C   UNL     1      34.276 -24.433 -13.809  0.00  0.00    +0.120 C 
ENDBRANCH   6  13
BRANCH   4  17
ATOM     17  C   UNL     1      35.936 -18.897 -22.669  0.00  0.00    +0.113 C 
BRANCH  17  19
ATOM     18  N   UNL     1      34.793 -15.503 -21.440  0.00  0.00    -0.244 NA
ATOM     19  C   UNL     1      35.345 -17.511 -22.668  0.00  0.00    +0.006 C 
ATOM     20  C   UNL     1      34.277 -15.674 -23.797  0.00  0.00    -0.004 C 
ATOM     21  C   UNL     1      34.290 -14.996 -22.589  0.00  0.00    +0.077 C 
ATOM     22  C   UNL     1      34.817 -16.956 -23.828  0.00  0.00    -0.005 C 
ATOM     23  C   UNL     1      35.309 -16.750 -21.510  0.00  0.00    +0.095 C 
ATOM     24  C   UNL     1      33.712 -15.082 -25.041  0.00  0.00    +0.033 C 
BRANCH  21  26
ATOM     25  N   UNL     1      32.709 -11.079 -22.203  0.00  0.00    -0.248 NA
ATOM     26  C   UNL     1      33.751 -13.661 -22.457  0.00  0.00    +0.020 C 
ATOM     27  C   UNL     1      32.919 -13.345 -21.388  0.00  0.00    +0.016 C 
ATOM     28  C   UNL     1      34.063 -12.686 -23.399  0.00  0.00    +0.022 C 
ATOM     29  C   UNL     1      32.429 -12.051 -21.308  0.00  0.00    +0.059 C 
ATOM     30  C   UNL     1      33.521 -11.423 -23.229  0.00  0.00    +0.098 C 
ATOM     31  C   UNL     1      31.532 -11.677 -20.175  0.00  0.00    +0.052 C 
ENDBRANCH  21  26
ENDBRANCH  17  19
ENDBRANCH   4  17
TORSDOF 4
ENDMDL
