MODEL 1
REMARK VINA RESULT:     -12.2      0.000      0.000
REMARK  Name = 11581936
REMARK  5 active torsions:
REMARK  status: ('A' for Active; 'I' for Inactive)
REMARK    1  A    between atoms: C_1  and  C_9
REMARK    2  A    between atoms: C_4  and  O_19
REMARK    3  A    between atoms: C_10  and  C_14
REMARK    4  A    between atoms: O_19  and  C_20
REMARK    5  A    between atoms: C_20  and  C_22
REMARK                            x       y       z     vdW  Elec       q    Type
REMARK                         _______ _______ _______ _____ _____    ______ ____
ROOT
ATOM      1  C   UNL     1      33.554 -22.023 -17.975  0.00  0.00    +0.019 C 
ATOM      2  C   UNL     1      32.890 -21.230 -18.909  0.00  0.00    +0.005 C 
ATOM      3  C   UNL     1      34.937 -22.186 -18.054  0.00  0.00    +0.005 C 
ATOM      4  C   UNL     1      34.988 -20.765 -19.997  0.00  0.00    +0.139 C 
ATOM      5  C   UNL     1      33.610 -20.599 -19.924  0.00  0.00    +0.037 C 
ATOM      6  C   UNL     1      35.657 -21.554 -19.068  0.00  0.00    +0.037 C 
ENDROOT
BRANCH   1   9
ATOM      7  N   UNL     1      31.151 -23.403 -15.867  0.00  0.00    -0.208 N 
ATOM      8  N   UNL     1      31.478 -22.741 -16.990  0.00  0.00    -0.178 NA
ATOM      9  C   UNL     1      32.814 -22.673 -16.930  0.00  0.00    +0.100 C 
ATOM     10  C   UNL     1      33.330 -23.291 -15.771  0.00  0.00    +0.036 C 
ATOM     11  C   UNL     1      32.224 -23.755 -15.103  0.00  0.00    +0.086 C 
ATOM     12  C   UNL     1      29.764 -23.674 -15.575  0.00  0.00    +0.140 C 
BRANCH  10  14
ATOM     13  N   UNL     1      37.287 -23.783 -14.357  0.00  0.00    -0.242 NA
ATOM     14  C   UNL     1      34.669 -23.457 -15.293  0.00  0.00    +0.006 C 
ATOM     15  C   UNL     1      35.431 -22.347 -14.939  0.00  0.00    +0.021 C 
ATOM     16  C   UNL     1      35.220 -24.731 -15.178  0.00  0.00    +0.021 C 
ATOM     17  C   UNL     1      36.721 -22.562 -14.482  0.00  0.00    +0.099 C 
ATOM     18  C   UNL     1      36.519 -24.839 -14.710  0.00  0.00    +0.099 C 
ENDBRANCH  10  14
ENDBRANCH   1   9
BRANCH   4  19
ATOM     19  O   UNL     1      35.696 -20.144 -20.994  0.00  0.00    -0.468 OA
BRANCH  19  20
ATOM     20  C   UNL     1      36.130 -18.815 -20.738  0.00  0.00    +0.264 C 
BRANCH  20  22
ATOM     21  N   UNL     1      35.317 -16.621 -21.360  0.00  0.00    -0.406 NA
ATOM     22  C   UNL     1      35.534 -17.897 -21.753  0.00  0.00    +0.152 C 
ATOM     23  C   UNL     1      34.446 -16.163 -23.560  0.00  0.00    +0.026 C 
ATOM     24  C   UNL     1      34.781 -15.763 -22.250  0.00  0.00    +0.113 C 
ATOM     25  C   UNL     1      35.239 -18.379 -23.013  0.00  0.00    +0.031 C 
ATOM     26  C   UNL     1      34.687 -17.493 -23.926  0.00  0.00    +0.005 C 
ATOM     27  C   UNL     1      33.886 -15.241 -24.461  0.00  0.00    +0.002 C 
ATOM     28  C   UNL     1      34.542 -14.441 -21.886  0.00  0.00    +0.085 C 
ATOM     29  C   UNL     1      33.657 -13.924 -24.072  0.00  0.00    -0.004 C 
ATOM     30  C   UNL     1      33.985 -13.524 -22.783  0.00  0.00    -0.019 C 
ENDBRANCH  20  22
ENDBRANCH  19  20
ENDBRANCH   4  19
TORSDOF 5
ENDMDL
MODEL 2
REMARK VINA RESULT:     -11.8      1.232      1.596
REMARK  Name = 11581936
REMARK  5 active torsions:
REMARK  status: ('A' for Active; 'I' for Inactive)
REMARK    1  A    between atoms: C_1  and  C_9
REMARK    2  A    between atoms: C_4  and  O_19
REMARK    3  A    between atoms: C_10  and  C_14
REMARK    4  A    between atoms: O_19  and  C_20
REMARK    5  A    between atoms: C_20  and  C_22
REMARK                            x       y       z     vdW  Elec       q    Type
REMARK                         _______ _______ _______ _____ _____    ______ ____
ROOT
ATOM      1  C   UNL     1      33.998 -22.779 -16.644  0.00  0.00    +0.019 C 
ATOM      2  C   UNL     1      33.214 -22.599 -17.784  0.00  0.00    +0.005 C 
ATOM      3  C   UNL     1      35.345 -22.420 -16.660  0.00  0.00    +0.005 C 
ATOM      4  C   UNL     1      35.122 -21.702 -18.947  0.00  0.00    +0.139 C 
ATOM      5  C   UNL     1      33.778 -22.058 -18.939  0.00  0.00    +0.037 C 
ATOM      6  C   UNL     1      35.910 -21.879 -17.815  0.00  0.00    +0.037 C 
ENDROOT
BRANCH   1   9
ATOM      7  N   UNL     1      31.926 -23.948 -14.102  0.00  0.00    -0.208 N 
ATOM      8  N   UNL     1      32.086 -23.376 -15.307  0.00  0.00    -0.178 NA
ATOM      9  C   UNL     1      33.417 -23.336 -15.455  0.00  0.00    +0.100 C 
ATOM     10  C   UNL     1      34.096 -23.882 -14.345  0.00  0.00    +0.036 C 
ATOM     11  C   UNL     1      33.099 -24.272 -13.485  0.00  0.00    +0.086 C 
ATOM     12  C   UNL     1      30.597 -24.165 -13.584  0.00  0.00    +0.140 C 
BRANCH  10  14
ATOM     13  N   UNL     1      38.215 -24.370 -13.514  0.00  0.00    -0.242 NA
ATOM     14  C   UNL     1      35.490 -24.047 -14.065  0.00  0.00    +0.006 C 
ATOM     15  C   UNL     1      36.152 -23.140 -13.242  0.00  0.00    +0.021 C 
ATOM     16  C   UNL     1      36.194 -25.117 -14.611  0.00  0.00    +0.021 C 
ATOM     17  C   UNL     1      37.501 -23.344 -13.001  0.00  0.00    +0.099 C 
ATOM     18  C   UNL     1      37.541 -25.233 -14.309  0.00  0.00    +0.099 C 
ENDBRANCH  10  14
ENDBRANCH   1   9
BRANCH   4  19
ATOM     19  O   UNL     1      35.676 -21.170 -20.083  0.00  0.00    -0.468 OA
BRANCH  19  20
ATOM     20  C   UNL     1      36.110 -19.818 -20.010  0.00  0.00    +0.264 C 
BRANCH  20  22
ATOM     21  N   UNL     1      35.555 -17.721 -21.086  0.00  0.00    -0.406 NA
ATOM     22  C   UNL     1      35.591 -19.069 -21.193  0.00  0.00    +0.152 C 
ATOM     23  C   UNL     1      34.651 -17.635 -23.318  0.00  0.00    +0.026 C 
ATOM     24  C   UNL     1      35.093 -17.011 -22.133  0.00  0.00    +0.113 C 
ATOM     25  C   UNL     1      35.181 -19.767 -22.311  0.00  0.00    +0.031 C 
ATOM     26  C   UNL     1      34.705 -19.033 -23.388  0.00  0.00    +0.005 C 
ATOM     27  C   UNL     1      34.174 -16.863 -24.390  0.00  0.00    +0.002 C 
ATOM     28  C   UNL     1      35.040 -15.622 -22.064  0.00  0.00    +0.085 C 
ATOM     29  C   UNL     1      34.131 -15.474 -24.296  0.00  0.00    -0.004 C 
ATOM     30  C   UNL     1      34.565 -14.853 -23.131  0.00  0.00    -0.019 C 
ENDBRANCH  20  22
ENDBRANCH  19  20
ENDBRANCH   4  19
TORSDOF 5
ENDMDL
MODEL 3
REMARK VINA RESULT:     -11.7      3.223     10.942
REMARK  Name = 11581936
REMARK  5 active torsions:
REMARK  status: ('A' for Active; 'I' for Inactive)
REMARK    1  A    between atoms: C_1  and  C_9
REMARK    2  A    between atoms: C_4  and  O_19
REMARK    3  A    between atoms: C_10  and  C_14
REMARK    4  A    between atoms: O_19  and  C_20
REMARK    5  A    between atoms: C_20  and  C_22
REMARK                            x       y       z     vdW  Elec       q    Type
REMARK                         _______ _______ _______ _____ _____    ______ ____
ROOT
ATOM      1  C   UNL     1      33.533 -13.638 -22.557  0.00  0.00    +0.019 C 
ATOM      2  C   UNL     1      33.388 -14.236 -23.809  0.00  0.00    +0.005 C 
ATOM      3  C   UNL     1      34.275 -14.274 -21.562  0.00  0.00    +0.005 C 
ATOM      4  C   UNL     1      34.723 -16.098 -23.067  0.00  0.00    +0.139 C 
ATOM      5  C   UNL     1      33.985 -15.471 -24.064  0.00  0.00    +0.037 C 
ATOM      6  C   UNL     1      34.873 -15.508 -21.817  0.00  0.00    +0.037 C 
ENDROOT
BRANCH   1   9
ATOM      7  N   UNL     1      31.679 -10.944 -21.364  0.00  0.00    -0.208 N 
ATOM      8  N   UNL     1      32.024 -12.241 -21.305  0.00  0.00    -0.178 NA
ATOM      9  C   UNL     1      32.918 -12.367 -22.294  0.00  0.00    +0.100 C 
ATOM     10  C   UNL     1      33.138 -11.152 -22.976  0.00  0.00    +0.036 C 
ATOM     11  C   UNL     1      32.318 -10.247 -22.347  0.00  0.00    +0.086 C 
ATOM     12  C   UNL     1      30.711 -10.418 -20.431  0.00  0.00    +0.140 C 
BRANCH  10  14
ATOM     13  N   UNL     1      35.650 -10.158 -26.232  0.00  0.00    -0.242 NA
ATOM     14  C   UNL     1      33.987 -10.815 -24.078  0.00  0.00    +0.006 C 
ATOM     15  C   UNL     1      34.914  -9.783 -23.960  0.00  0.00    +0.021 C 
ATOM     16  C   UNL     1      33.895 -11.518 -25.276  0.00  0.00    +0.021 C 
ATOM     17  C   UNL     1      35.713  -9.497 -25.055  0.00  0.00    +0.099 C 
ATOM     18  C   UNL     1      34.739 -11.155 -26.312  0.00  0.00    +0.099 C 
ENDBRANCH  10  14
ENDBRANCH   1   9
BRANCH   4  19
ATOM     19  O   UNL     1      35.311 -17.311 -23.319  0.00  0.00    -0.468 OA
BRANCH  19  20
ATOM     20  C   UNL     1      34.489 -18.462 -23.176  0.00  0.00    +0.264 C 
BRANCH  20  22
ATOM     21  N   UNL     1      33.930 -19.892 -21.304  0.00  0.00    -0.406 NA
ATOM     22  C   UNL     1      34.904 -19.217 -21.957  0.00  0.00    +0.152 C 
ATOM     23  C   UNL     1      35.592 -20.619 -19.717  0.00  0.00    +0.026 C 
ATOM     24  C   UNL     1      34.267 -20.585 -20.199  0.00  0.00    +0.113 C 
ATOM     25  C   UNL     1      36.226 -19.191 -21.561  0.00  0.00    +0.031 C 
ATOM     26  C   UNL     1      36.570 -19.906 -20.423  0.00  0.00    +0.005 C 
ATOM     27  C   UNL     1      35.907 -21.351 -18.560  0.00  0.00    +0.002 C 
ATOM     28  C   UNL     1      33.296 -21.294 -19.498  0.00  0.00    +0.085 C 
ATOM     29  C   UNL     1      34.917 -22.052 -17.877  0.00  0.00    -0.004 C 
ATOM     30  C   UNL     1      33.609 -22.023 -18.346  0.00  0.00    -0.019 C 
ENDBRANCH  20  22
ENDBRANCH  19  20
ENDBRANCH   4  19
TORSDOF 5
ENDMDL
MODEL 4
REMARK VINA RESULT:     -11.5      6.922     13.930
REMARK  Name = 11581936
REMARK  5 active torsions:
REMARK  status: ('A' for Active; 'I' for Inactive)
REMARK    1  A    between atoms: C_1  and  C_9
REMARK    2  A    between atoms: C_4  and  O_19
REMARK    3  A    between atoms: C_10  and  C_14
REMARK    4  A    between atoms: O_19  and  C_20
REMARK    5  A    between atoms: C_20  and  C_22
REMARK                            x       y       z     vdW  Elec       q    Type
REMARK                         _______ _______ _______ _____ _____    ______ ____
ROOT
ATOM      1  C   UNL     1      33.432  -8.802 -22.846  0.00  0.00    +0.019 C 
ATOM      2  C   UNL     1      34.563  -8.855 -23.660  0.00  0.00    +0.005 C 
ATOM      3  C   UNL     1      32.582  -9.904 -22.758  0.00  0.00    +0.005 C 
ATOM      4  C   UNL     1      33.991 -11.107 -24.295  0.00  0.00    +0.139 C 
ATOM      5  C   UNL     1      34.843 -10.012 -24.387  0.00  0.00    +0.037 C 
ATOM      6  C   UNL     1      32.862 -11.061 -23.485  0.00  0.00    +0.037 C 
ENDROOT
BRANCH   1   9
ATOM      7  N   UNL     1      32.649  -6.405 -20.445  0.00  0.00    -0.208 N 
ATOM      8  N   UNL     1      32.857  -7.686 -20.791  0.00  0.00    -0.178 NA
ATOM      9  C   UNL     1      33.143  -7.611 -22.097  0.00  0.00    +0.100 C 
ATOM     10  C   UNL     1      33.114  -6.284 -22.576  0.00  0.00    +0.036 C 
ATOM     11  C   UNL     1      32.791  -5.525 -21.477  0.00  0.00    +0.086 C 
ATOM     12  C   UNL     1      32.309  -6.078 -19.081  0.00  0.00    +0.140 C 
BRANCH  10  14
ATOM     13  N   UNL     1      33.806  -4.657 -26.419  0.00  0.00    -0.242 NA
ATOM     14  C   UNL     1      33.348  -5.732 -23.876  0.00  0.00    +0.006 C 
ATOM     15  C   UNL     1      34.649  -5.556 -24.340  0.00  0.00    +0.021 C 
ATOM     16  C   UNL     1      32.277  -5.370 -24.688  0.00  0.00    +0.021 C 
ATOM     17  C   UNL     1      34.822  -5.019 -25.605  0.00  0.00    +0.099 C 
ATOM     18  C   UNL     1      32.556  -4.842 -25.938  0.00  0.00    +0.099 C 
ENDBRANCH  10  14
ENDBRANCH   1   9
BRANCH   4  19
ATOM     19  O   UNL     1      34.267 -12.244 -25.009  0.00  0.00    -0.468 OA
BRANCH  19  20
ATOM     20  C   UNL     1      33.290 -13.276 -24.972  0.00  0.00    +0.264 C 
BRANCH  20  22
ATOM     21  N   UNL     1      33.663 -15.662 -24.790  0.00  0.00    -0.406 NA
ATOM     22  C   UNL     1      33.836 -14.446 -24.222  0.00  0.00    +0.152 C 
ATOM     23  C   UNL     1      34.809 -16.631 -22.904  0.00  0.00    +0.026 C 
ATOM     24  C   UNL     1      34.143 -16.741 -24.142  0.00  0.00    +0.113 C 
ATOM     25  C   UNL     1      34.474 -14.240 -23.015  0.00  0.00    +0.031 C 
ATOM     26  C   UNL     1      34.967 -15.354 -22.350  0.00  0.00    +0.005 C 
ATOM     27  C   UNL     1      35.295 -17.779 -22.256  0.00  0.00    +0.002 C 
ATOM     28  C   UNL     1      33.986 -18.010 -24.692  0.00  0.00    +0.085 C 
ATOM     29  C   UNL     1      35.125 -19.037 -22.827  0.00  0.00    -0.004 C 
ATOM     30  C   UNL     1      34.469 -19.153 -24.047  0.00  0.00    -0.019 C 
ENDBRANCH  20  22
ENDBRANCH  19  20
ENDBRANCH   4  19
TORSDOF 5
ENDMDL
MODEL 5
REMARK VINA RESULT:     -11.1      1.403      3.576
REMARK  Name = 11581936
REMARK  5 active torsions:
REMARK  status: ('A' for Active; 'I' for Inactive)
REMARK    1  A    between atoms: C_1  and  C_9
REMARK    2  A    between atoms: C_4  and  O_19
REMARK    3  A    between atoms: C_10  and  C_14
REMARK    4  A    between atoms: O_19  and  C_20
REMARK    5  A    between atoms: C_20  and  C_22
REMARK                            x       y       z     vdW  Elec       q    Type
REMARK                         _______ _______ _______ _____ _____    ______ ____
ROOT
ATOM      1  C   UNL     1      34.575 -22.845 -16.286  0.00  0.00    +0.019 C 
ATOM      2  C   UNL     1      33.430 -22.815 -17.081  0.00  0.00    +0.005 C 
ATOM      3  C   UNL     1      35.762 -22.280 -16.751  0.00  0.00    +0.005 C 
ATOM      4  C   UNL     1      34.658 -21.657 -18.798  0.00  0.00    +0.139 C 
ATOM      5  C   UNL     1      33.472 -22.219 -18.342  0.00  0.00    +0.037 C 
ATOM      6  C   UNL     1      35.805 -21.683 -18.012  0.00  0.00    +0.037 C 
ENDROOT
BRANCH   1   9
ATOM      7  N   UNL     1      35.237 -24.313 -13.200  0.00  0.00    -0.208 N 
ATOM      8  N   UNL     1      35.668 -23.772 -14.352  0.00  0.00    -0.178 NA
ATOM      9  C   UNL     1      34.532 -23.459 -14.989  0.00  0.00    +0.100 C 
ATOM     10  C   UNL     1      33.386 -23.802 -14.241  0.00  0.00    +0.036 C 
ATOM     11  C   UNL     1      33.879 -24.354 -13.084  0.00  0.00    +0.086 C 
ATOM     12  C   UNL     1      36.194 -24.784 -12.228  0.00  0.00    +0.140 C 
BRANCH  10  14
ATOM     13  N   UNL     1      29.255 -23.382 -15.052  0.00  0.00    -0.242 NA
ATOM     14  C   UNL     1      31.989 -23.659 -14.516  0.00  0.00    +0.006 C 
ATOM     15  C   UNL     1      31.298 -24.668 -15.181  0.00  0.00    +0.021 C 
ATOM     16  C   UNL     1      31.309 -22.511 -14.119  0.00  0.00    +0.021 C 
ATOM     17  C   UNL     1      29.946 -24.483 -15.422  0.00  0.00    +0.099 C 
ATOM     18  C   UNL     1      29.957 -22.421 -14.408  0.00  0.00    +0.099 C 
ENDBRANCH  10  14
ENDBRANCH   1   9
BRANCH   4  19
ATOM     19  O   UNL     1      34.700 -21.070 -20.037  0.00  0.00    -0.468 OA
BRANCH  19  20
ATOM     20  C   UNL     1      35.702 -20.083 -20.245  0.00  0.00    +0.264 C 
BRANCH  20  22
ATOM     21  N   UNL     1      35.348 -17.869 -21.156  0.00  0.00    -0.406 NA
ATOM     22  C   UNL     1      35.299 -19.202 -21.380  0.00  0.00    +0.152 C 
ATOM     23  C   UNL     1      34.574 -17.530 -23.413  0.00  0.00    +0.026 C 
ATOM     24  C   UNL     1      34.992 -17.042 -22.158  0.00  0.00    +0.113 C 
ATOM     25  C   UNL     1      34.904 -19.772 -22.573  0.00  0.00    +0.031 C 
ATOM     26  C   UNL     1      34.537 -18.918 -23.603  0.00  0.00    +0.005 C 
ATOM     27  C   UNL     1      34.208 -16.638 -24.435  0.00  0.00    +0.002 C 
ATOM     28  C   UNL     1      35.029 -15.663 -21.970  0.00  0.00    +0.085 C 
ATOM     29  C   UNL     1      34.254 -15.263 -24.221  0.00  0.00    -0.004 C 
ATOM     30  C   UNL     1      34.664 -14.775 -22.987  0.00  0.00    -0.019 C 
ENDBRANCH  20  22
ENDBRANCH  19  20
ENDBRANCH   4  19
TORSDOF 5
ENDMDL
MODEL 6
REMARK VINA RESULT:     -11.1      0.997      3.234
REMARK  Name = 11581936
REMARK  5 active torsions:
REMARK  status: ('A' for Active; 'I' for Inactive)
REMARK    1  A    between atoms: C_1  and  C_9
REMARK    2  A    between atoms: C_4  and  O_19
REMARK    3  A    between atoms: C_10  and  C_14
REMARK    4  A    between atoms: O_19  and  C_20
REMARK    5  A    between atoms: C_20  and  C_22
REMARK                            x       y       z     vdW  Elec       q    Type
REMARK                         _______ _______ _______ _____ _____    ______ ____
ROOT
ATOM      1  C   UNL     1      35.350 -22.405 -17.079  0.00  0.00    +0.019 C 
ATOM      2  C   UNL     1      34.177 -22.402 -17.833  0.00  0.00    +0.005 C 
ATOM      3  C   UNL     1      36.467 -21.697 -17.522  0.00  0.00    +0.005 C 
ATOM      4  C   UNL     1      35.238 -20.988 -19.468  0.00  0.00    +0.139 C 
ATOM      5  C   UNL     1      34.122 -21.691 -19.032  0.00  0.00    +0.037 C 
ATOM      6  C   UNL     1      36.411 -20.985 -18.721  0.00  0.00    +0.037 C 
ENDROOT
BRANCH   1   9
ATOM      7  N   UNL     1      36.242 -24.205 -14.235  0.00  0.00    -0.208 N 
ATOM      8  N   UNL     1      36.580 -23.584 -15.378  0.00  0.00    -0.178 NA
ATOM      9  C   UNL     1      35.407 -23.137 -15.844  0.00  0.00    +0.100 C 
ATOM     10  C   UNL     1      34.330 -23.473 -14.997  0.00  0.00    +0.036 C 
ATOM     11  C   UNL     1      34.906 -24.166 -13.961  0.00  0.00    +0.086 C 
ATOM     12  C   UNL     1      37.264 -24.829 -13.430  0.00  0.00    +0.140 C 
BRANCH  10  14
ATOM     13  N   UNL     1      30.178 -22.705 -15.268  0.00  0.00    -0.242 NA
ATOM     14  C   UNL     1      32.925 -23.212 -15.089  0.00  0.00    +0.006 C 
ATOM     15  C   UNL     1      32.255 -23.394 -16.296  0.00  0.00    +0.021 C 
ATOM     16  C   UNL     1      32.218 -22.777 -13.972  0.00  0.00    +0.021 C 
ATOM     17  C   UNL     1      30.896 -23.129 -16.332  0.00  0.00    +0.099 C 
ATOM     18  C   UNL     1      30.860 -22.540 -14.112  0.00  0.00    +0.099 C 
ENDBRANCH  10  14
ENDBRANCH   1   9
BRANCH   4  19
ATOM     19  O   UNL     1      35.184 -20.288 -20.646  0.00  0.00    -0.468 OA
BRANCH  19  20
ATOM     20  C   UNL     1      36.047 -19.165 -20.764  0.00  0.00    +0.264 C 
BRANCH  20  22
ATOM     21  N   UNL     1      35.335 -16.932 -21.373  0.00  0.00    -0.406 NA
ATOM     22  C   UNL     1      35.488 -18.216 -21.771  0.00  0.00    +0.152 C 
ATOM     23  C   UNL     1      34.468 -16.426 -23.563  0.00  0.00    +0.026 C 
ATOM     24  C   UNL     1      34.833 -16.047 -22.255  0.00  0.00    +0.113 C 
ATOM     25  C   UNL     1      35.158 -18.679 -23.029  0.00  0.00    +0.031 C 
ATOM     26  C   UNL     1      34.641 -17.765 -23.935  0.00  0.00    +0.005 C 
ATOM     27  C   UNL     1      33.946 -15.475 -24.457  0.00  0.00    +0.002 C 
ATOM     28  C   UNL     1      34.661 -14.716 -21.885  0.00  0.00    +0.085 C 
ATOM     29  C   UNL     1      33.784 -14.150 -24.062  0.00  0.00    -0.004 C 
ATOM     30  C   UNL     1      34.142 -13.770 -22.775  0.00  0.00    -0.019 C 
ENDBRANCH  20  22
ENDBRANCH  19  20
ENDBRANCH   4  19
TORSDOF 5
ENDMDL
MODEL 7
REMARK VINA RESULT:     -11.1      2.807      4.639
REMARK  Name = 11581936
REMARK  5 active torsions:
REMARK  status: ('A' for Active; 'I' for Inactive)
REMARK    1  A    between atoms: C_1  and  C_9
REMARK    2  A    between atoms: C_4  and  O_19
REMARK    3  A    between atoms: C_10  and  C_14
REMARK    4  A    between atoms: O_19  and  C_20
REMARK    5  A    between atoms: C_20  and  C_22
REMARK                            x       y       z     vdW  Elec       q    Type
REMARK                         _______ _______ _______ _____ _____    ______ ____
ROOT
ATOM      1  C   UNL     1      36.682 -23.324 -14.747  0.00  0.00    +0.019 C 
ATOM      2  C   UNL     1      35.502 -23.126 -15.463  0.00  0.00    +0.005 C 
ATOM      3  C   UNL     1      37.876 -22.761 -15.198  0.00  0.00    +0.005 C 
ATOM      4  C   UNL     1      36.709 -21.805 -17.075  0.00  0.00    +0.139 C 
ATOM      5  C   UNL     1      35.516 -22.364 -16.631  0.00  0.00    +0.037 C 
ATOM      6  C   UNL     1      37.889 -21.997 -16.366  0.00  0.00    +0.037 C 
ENDROOT
BRANCH   1   9
ATOM      7  N   UNL     1      36.295 -24.613 -11.536  0.00  0.00    -0.208 N 
ATOM      8  N   UNL     1      36.124 -23.618 -12.423  0.00  0.00    -0.178 NA
ATOM      9  C   UNL     1      36.669 -24.109 -13.544  0.00  0.00    +0.100 C 
ATOM     10  C   UNL     1      37.183 -25.410 -13.365  0.00  0.00    +0.036 C 
ATOM     11  C   UNL     1      36.924 -25.709 -12.050  0.00  0.00    +0.086 C 
ATOM     12  C   UNL     1      35.826 -24.451 -10.181  0.00  0.00    +0.140 C 
BRANCH  10  14
ATOM     13  N   UNL     1      39.129 -28.065 -16.023  0.00  0.00    -0.242 NA
ATOM     14  C   UNL     1      37.842 -26.309 -14.264  0.00  0.00    +0.006 C 
ATOM     15  C   UNL     1      37.098 -27.186 -15.049  0.00  0.00    +0.021 C 
ATOM     16  C   UNL     1      39.230 -26.313 -14.361  0.00  0.00    +0.021 C 
ATOM     17  C   UNL     1      37.783 -28.035 -15.904  0.00  0.00    +0.099 C 
ATOM     18  C   UNL     1      39.820 -27.201 -15.246  0.00  0.00    +0.099 C 
ENDBRANCH  10  14
ENDBRANCH   1   9
BRANCH   4  19
ATOM     19  O   UNL     1      36.722 -21.055 -18.222  0.00  0.00    -0.468 OA
BRANCH  19  20
ATOM     20  C   UNL     1      35.653 -21.264 -19.136  0.00  0.00    +0.264 C 
BRANCH  20  22
ATOM     21  N   UNL     1      34.739 -20.275 -21.148  0.00  0.00    -0.406 NA
ATOM     22  C   UNL     1      35.666 -20.184 -20.166  0.00  0.00    +0.152 C 
ATOM     23  C   UNL     1      35.633 -18.244 -22.087  0.00  0.00    +0.026 C 
ATOM     24  C   UNL     1      34.720 -19.318 -22.096  0.00  0.00    +0.113 C 
ATOM     25  C   UNL     1      36.599 -19.171 -20.075  0.00  0.00    +0.031 C 
ATOM     26  C   UNL     1      36.577 -18.188 -21.054  0.00  0.00    +0.005 C 
ATOM     27  C   UNL     1      35.585 -17.265 -23.094  0.00  0.00    +0.002 C 
ATOM     28  C   UNL     1      33.782 -19.374 -23.123  0.00  0.00    +0.085 C 
ATOM     29  C   UNL     1      34.637 -17.343 -24.110  0.00  0.00    -0.004 C 
ATOM     30  C   UNL     1      33.734 -18.400 -24.125  0.00  0.00    -0.019 C 
ENDBRANCH  20  22
ENDBRANCH  19  20
ENDBRANCH   4  19
TORSDOF 5
ENDMDL
MODEL 8
REMARK VINA RESULT:     -10.7      2.996      5.336
REMARK  Name = 11581936
REMARK  5 active torsions:
REMARK  status: ('A' for Active; 'I' for Inactive)
REMARK    1  A    between atoms: C_1  and  C_9
REMARK    2  A    between atoms: C_4  and  O_19
REMARK    3  A    between atoms: C_10  and  C_14
REMARK    4  A    between atoms: O_19  and  C_20
REMARK    5  A    between atoms: C_20  and  C_22
REMARK                            x       y       z     vdW  Elec       q    Type
REMARK                         _______ _______ _______ _____ _____    ______ ____
ROOT
ATOM      1  C   UNL     1      34.988 -23.921 -13.767  0.00  0.00    +0.019 C 
ATOM      2  C   UNL     1      35.738 -23.273 -14.748  0.00  0.00    +0.005 C 
ATOM      3  C   UNL     1      33.617 -24.107 -13.945  0.00  0.00    +0.005 C 
ATOM      4  C   UNL     1      33.750 -23.000 -16.079  0.00  0.00    +0.139 C 
ATOM      5  C   UNL     1      35.116 -22.811 -15.908  0.00  0.00    +0.037 C 
ATOM      6  C   UNL     1      32.996 -23.646 -15.106  0.00  0.00    +0.037 C 
ENDROOT
BRANCH   1   9
ATOM      7  N   UNL     1      36.043 -24.605 -10.520  0.00  0.00    -0.208 N 
ATOM      8  N   UNL     1      35.234 -23.952 -11.372  0.00  0.00    -0.178 NA
ATOM      9  C   UNL     1      35.628 -24.397 -12.572  0.00  0.00    +0.100 C 
ATOM     10  C   UNL     1      36.683 -25.328 -12.479  0.00  0.00    +0.036 C 
ATOM     11  C   UNL     1      36.929 -25.441 -11.132  0.00  0.00    +0.086 C 
ATOM     12  C   UNL     1      35.917 -24.381  -9.100  0.00  0.00    +0.140 C 
BRANCH  10  14
ATOM     13  N   UNL     1      38.831 -27.462 -15.434  0.00  0.00    -0.242 NA
ATOM     14  C   UNL     1      37.411 -26.051 -13.478  0.00  0.00    +0.006 C 
ATOM     15  C   UNL     1      36.736 -26.853 -14.394  0.00  0.00    +0.021 C 
ATOM     16  C   UNL     1      38.798 -25.956 -13.543  0.00  0.00    +0.021 C 
ATOM     17  C   UNL     1      37.485 -27.531 -15.342  0.00  0.00    +0.099 C 
ATOM     18  C   UNL     1      39.455 -26.674 -14.529  0.00  0.00    +0.099 C 
ENDBRANCH  10  14
ENDBRANCH   1   9
BRANCH   4  19
ATOM     19  O   UNL     1      33.139 -22.546 -17.220  0.00  0.00    -0.468 OA
BRANCH  19  20
ATOM     20  C   UNL     1      33.722 -22.937 -18.456  0.00  0.00    +0.264 C 
BRANCH  20  22
ATOM     21  N   UNL     1      35.298 -21.356 -19.395  0.00  0.00    -0.406 NA
ATOM     22  C   UNL     1      34.000 -21.721 -19.276  0.00  0.00    +0.152 C 
ATOM     23  C   UNL     1      34.583 -19.505 -20.762  0.00  0.00    +0.026 C 
ATOM     24  C   UNL     1      35.588 -20.264 -20.127  0.00  0.00    +0.113 C 
ATOM     25  C   UNL     1      32.950 -21.042 -19.860  0.00  0.00    +0.031 C 
ATOM     26  C   UNL     1      33.252 -19.917 -20.614  0.00  0.00    +0.005 C 
ATOM     27  C   UNL     1      34.922 -18.370 -21.517  0.00  0.00    +0.002 C 
ATOM     28  C   UNL     1      36.910 -19.854 -20.275  0.00  0.00    +0.085 C 
ATOM     29  C   UNL     1      36.253 -17.982 -21.649  0.00  0.00    -0.004 C 
ATOM     30  C   UNL     1      37.248 -18.725 -21.026  0.00  0.00    -0.019 C 
ENDBRANCH  20  22
ENDBRANCH  19  20
ENDBRANCH   4  19
TORSDOF 5
ENDMDL
MODEL 9
REMARK VINA RESULT:     -10.4      3.999      7.550
REMARK  Name = 11581936
REMARK  5 active torsions:
REMARK  status: ('A' for Active; 'I' for Inactive)
REMARK    1  A    between atoms: C_1  and  C_9
REMARK    2  A    between atoms: C_4  and  O_19
REMARK    3  A    between atoms: C_10  and  C_14
REMARK    4  A    between atoms: O_19  and  C_20
REMARK    5  A    between atoms: C_20  and  C_22
REMARK                            x       y       z     vdW  Elec       q    Type
REMARK                         _______ _______ _______ _____ _____    ______ ____
ROOT
ATOM      1  C   UNL     1      37.364 -26.650 -13.285  0.00  0.00    +0.019 C 
ATOM      2  C   UNL     1      37.916 -25.433 -12.887  0.00  0.00    +0.005 C 
ATOM      3  C   UNL     1      36.423 -26.687 -14.314  0.00  0.00    +0.005 C 
ATOM      4  C   UNL     1      36.590 -24.296 -14.546  0.00  0.00    +0.139 C 
ATOM      5  C   UNL     1      37.527 -24.252 -13.520  0.00  0.00    +0.037 C 
ATOM      6  C   UNL     1      36.035 -25.506 -14.948  0.00  0.00    +0.037 C 
ENDROOT
BRANCH   1   9
ATOM      7  N   UNL     1      37.946 -29.306 -11.111  0.00  0.00    -0.208 N 
ATOM      8  N   UNL     1      37.401 -28.105 -11.367  0.00  0.00    -0.178 NA
ATOM      9  C   UNL     1      37.763 -27.866 -12.634  0.00  0.00    +0.100 C 
ATOM     10  C   UNL     1      38.535 -28.915 -13.177  0.00  0.00    +0.036 C 
ATOM     11  C   UNL     1      38.635 -29.835 -12.162  0.00  0.00    +0.086 C 
ATOM     12  C   UNL     1      37.768 -29.910  -9.812  0.00  0.00    +0.140 C 
BRANCH  10  14
ATOM     13  N   UNL     1      40.295 -29.439 -16.989  0.00  0.00    -0.242 NA
ATOM     14  C   UNL     1      39.131 -29.093 -14.467  0.00  0.00    +0.006 C 
ATOM     15  C   UNL     1      38.392 -29.640 -15.512  0.00  0.00    +0.021 C 
ATOM     16  C   UNL     1      40.454 -28.719 -14.686  0.00  0.00    +0.021 C 
ATOM     17  C   UNL     1      39.014 -29.791 -16.741  0.00  0.00    +0.099 C 
ATOM     18  C   UNL     1      40.984 -28.911 -15.951  0.00  0.00    +0.099 C 
ENDBRANCH  10  14
ENDBRANCH   1   9
BRANCH   4  19
ATOM     19  O   UNL     1      36.209 -23.135 -15.168  0.00  0.00    -0.468 OA
BRANCH  19  20
ATOM     20  C   UNL     1      34.986 -23.169 -15.891  0.00  0.00    +0.264 C 
BRANCH  20  22
ATOM     21  N   UNL     1      33.976 -22.031 -17.775  0.00  0.00    -0.406 NA
ATOM     22  C   UNL     1      35.123 -22.350 -17.132  0.00  0.00    +0.152 C 
ATOM     23  C   UNL     1      35.300 -20.855 -19.410  0.00  0.00    +0.026 C 
ATOM     24  C   UNL     1      34.061 -21.293 -18.899  0.00  0.00    +0.113 C 
ATOM     25  C   UNL     1      36.380 -21.968 -17.556  0.00  0.00    +0.031 C 
ATOM     26  C   UNL     1      36.463 -21.208 -18.714  0.00  0.00    +0.005 C 
ATOM     27  C   UNL     1      35.350 -20.088 -20.586  0.00  0.00    +0.002 C 
ATOM     28  C   UNL     1      32.905 -20.942 -19.591  0.00  0.00    +0.085 C 
ATOM     29  C   UNL     1      34.179 -19.751 -21.259  0.00  0.00    -0.004 C 
ATOM     30  C   UNL     1      32.955 -20.179 -20.761  0.00  0.00    -0.019 C 
ENDBRANCH  20  22
ENDBRANCH  19  20
ENDBRANCH   4  19
TORSDOF 5
ENDMDL
