MODEL 1
REMARK VINA RESULT:     -11.5      0.000      0.000
REMARK  Name = 16045418
REMARK  6 active torsions:
REMARK  status: ('A' for Active; 'I' for Inactive)
REMARK    1  A    between atoms: C_2  and  O_8
REMARK    2  A    between atoms: C_4  and  O_23
REMARK    3  A    between atoms: O_8  and  C_9
REMARK    4  A    between atoms: C_9  and  C_14
REMARK    5  A    between atoms: O_23  and  C_25
REMARK    6  A    between atoms: C_28  and  C_32
REMARK                            x       y       z     vdW  Elec       q    Type
REMARK                         _______ _______ _______ _____ _____    ______ ____
ROOT
ATOM      1 CL   UNL     1      32.151 -12.276 -19.924  0.00  0.00    -0.079 Cl
ATOM      2  C   UNL     1      34.632 -15.148 -22.356  0.00  0.00    +0.142 C 
ATOM      3  C   UNL     1      33.917 -14.145 -23.004  0.00  0.00    +0.075 C 
ATOM      4  C   UNL     1      33.147 -13.251 -22.259  0.00  0.00    +0.159 C 
ATOM      5  C   UNL     1      34.583 -15.267 -20.971  0.00  0.00    +0.038 C 
ATOM      6  C   UNL     1      33.095 -13.365 -20.870  0.00  0.00    +0.092 C 
ATOM      7  C   UNL     1      33.813 -14.373 -20.226  0.00  0.00    +0.018 C 
ENDROOT
BRANCH   2   8
ATOM      8  O   UNL     1      35.386 -16.024 -23.087  0.00  0.00    -0.469 OA
BRANCH   8   9
ATOM      9  C   UNL     1      34.942 -17.382 -23.111  0.00  0.00    +0.249 C 
BRANCH   9  14
ATOM     10  N   UNL     1      37.025 -18.027 -21.922  0.00  0.00    -0.227 N 
ATOM     11  N   UNL     1      37.548 -18.825 -20.967  0.00  0.00    -0.115 NA
ATOM     12  N   UNL     1      36.467 -20.466 -19.546  0.00  0.00    -0.335 NA
ATOM     13  N   UNL     1      35.048 -21.967 -18.355  0.00  0.00    -0.332 N 
ATOM     14  C   UNL     1      35.677 -18.173 -22.110  0.00  0.00    +0.097 C 
ATOM     15  C   UNL     1      35.302 -19.133 -21.212  0.00  0.00    +0.090 C 
ATOM     16  C   UNL     1      36.492 -19.514 -20.521  0.00  0.00    +0.105 C 
ATOM     17  C   UNL     1      34.017 -19.622 -21.031  0.00  0.00    +0.016 C 
ATOM     18  C   UNL     1      34.013 -20.596 -20.027  0.00  0.00    +0.049 C 
ATOM     19  C   UNL     1      35.203 -20.961 -19.351  0.00  0.00    +0.189 C 
ATOM     20  H   UNL     1      37.570 -17.392 -22.441  0.00  0.00    +0.175 HD
ATOM     21  H   UNL     1      35.829 -22.275 -17.841  0.00  0.00    +0.145 HD
ATOM     22  H   UNL     1      34.160 -22.354 -18.180  0.00  0.00    +0.145 HD
ENDBRANCH   9  14
ENDBRANCH   8   9
ENDBRANCH   2   8
BRANCH   4  23
ATOM     23  O   UNL     1      32.456 -12.276 -22.915  0.00  0.00    -0.452 OA
BRANCH  23  25
ATOM     24 CL   UNL     1      35.910  -9.951 -25.840  0.00  0.00    -0.082 Cl
ATOM     25  C   UNL     1      33.134 -11.111 -23.230  0.00  0.00    +0.147 C 
ATOM     26  C   UNL     1      32.865  -9.958 -22.512  0.00  0.00    +0.048 C 
ATOM     27  C   UNL     1      34.065 -11.127 -24.253  0.00  0.00    +0.049 C 
ATOM     28  C   UNL     1      33.549  -8.785 -22.829  0.00  0.00    +0.072 C 
ATOM     29  C   UNL     1      34.749  -9.954 -24.570  0.00  0.00    +0.061 C 
ATOM     30  C   UNL     1      34.491  -8.782 -23.858  0.00  0.00    +0.022 C 
BRANCH  28  32
ATOM     31  N   UNL     1      33.067  -6.608 -21.504  0.00  0.00    -0.191 NA
ATOM     32  C   UNL     1      33.283  -7.585 -22.100  0.00  0.00    +0.101 C 
ENDBRANCH  28  32
ENDBRANCH  23  25
ENDBRANCH   4  23
TORSDOF 6
ENDMDL
MODEL 2
REMARK VINA RESULT:     -10.8      8.064     11.865
REMARK  Name = 16045418
REMARK  6 active torsions:
REMARK  status: ('A' for Active; 'I' for Inactive)
REMARK    1  A    between atoms: C_2  and  O_8
REMARK    2  A    between atoms: C_4  and  O_23
REMARK    3  A    between atoms: O_8  and  C_9
REMARK    4  A    between atoms: C_9  and  C_14
REMARK    5  A    between atoms: O_23  and  C_25
REMARK    6  A    between atoms: C_28  and  C_32
REMARK                            x       y       z     vdW  Elec       q    Type
REMARK                         _______ _______ _______ _____ _____    ______ ____
ROOT
ATOM      1 CL   UNL     1      30.925 -23.838 -12.243  0.00  0.00    -0.079 Cl
ATOM      2  C   UNL     1      31.931 -22.965 -16.551  0.00  0.00    +0.142 C 
ATOM      3  C   UNL     1      32.957 -23.249 -15.654  0.00  0.00    +0.075 C 
ATOM      4  C   UNL     1      32.655 -23.521 -14.319  0.00  0.00    +0.159 C 
ATOM      5  C   UNL     1      30.606 -22.950 -16.125  0.00  0.00    +0.038 C 
ATOM      6  C   UNL     1      31.328 -23.507 -13.887  0.00  0.00    +0.092 C 
ATOM      7  C   UNL     1      30.304 -23.221 -14.790  0.00  0.00    +0.018 C 
ENDROOT
BRANCH   2   8
ATOM      8  O   UNL     1      32.228 -22.699 -17.859  0.00  0.00    -0.469 OA
BRANCH   8   9
ATOM      9  C   UNL     1      33.582 -22.344 -18.146  0.00  0.00    +0.249 C 
BRANCH   9  14
ATOM     10  N   UNL     1      32.497 -20.953 -19.893  0.00  0.00    -0.227 N 
ATOM     11  N   UNL     1      32.706 -20.036 -20.862  0.00  0.00    -0.115 NA
ATOM     12  N   UNL     1      34.769 -18.996 -21.599  0.00  0.00    -0.335 NA
ATOM     13  N   UNL     1      36.981 -18.214 -22.024  0.00  0.00    -0.332 N 
ATOM     14  C   UNL     1      33.626 -21.351 -19.231  0.00  0.00    +0.097 C 
ATOM     15  C   UNL     1      34.639 -20.640 -19.813  0.00  0.00    +0.090 C 
ATOM     16  C   UNL     1      34.028 -19.834 -20.821  0.00  0.00    +0.105 C 
ATOM     17  C   UNL     1      35.982 -20.707 -19.473  0.00  0.00    +0.016 C 
ATOM     18  C   UNL     1      36.724 -19.840 -20.281  0.00  0.00    +0.049 C 
ATOM     19  C   UNL     1      36.101 -19.048 -21.276  0.00  0.00    +0.189 C 
ATOM     20  H   UNL     1      31.602 -21.307 -19.681  0.00  0.00    +0.175 HD
ATOM     21  H   UNL     1      36.624 -17.633 -22.734  0.00  0.00    +0.145 HD
ATOM     22  H   UNL     1      37.947 -18.218 -21.830  0.00  0.00    +0.145 HD
ENDBRANCH   9  14
ENDBRANCH   8   9
ENDBRANCH   2   8
BRANCH   4  23
ATOM     23  O   UNL     1      33.675 -23.797 -13.459  0.00  0.00    -0.452 OA
BRANCH  23  25
ATOM     24 CL   UNL     1      38.043 -26.318 -14.137  0.00  0.00    -0.082 Cl
ATOM     25  C   UNL     1      34.962 -23.800 -13.970  0.00  0.00    +0.147 C 
ATOM     26  C   UNL     1      35.429 -22.675 -14.627  0.00  0.00    +0.048 C 
ATOM     27  C   UNL     1      35.750 -24.926 -13.810  0.00  0.00    +0.049 C 
ATOM     28  C   UNL     1      36.725 -22.677 -15.141  0.00  0.00    +0.072 C 
ATOM     29  C   UNL     1      37.046 -24.928 -14.324  0.00  0.00    +0.061 C 
ATOM     30  C   UNL     1      37.534 -23.803 -14.990  0.00  0.00    +0.022 C 
BRANCH  28  32
ATOM     31  N   UNL     1      37.632 -20.586 -16.379  0.00  0.00    -0.191 NA
ATOM     32  C   UNL     1      37.224 -21.525 -15.824  0.00  0.00    +0.101 C 
ENDBRANCH  28  32
ENDBRANCH  23  25
ENDBRANCH   4  23
TORSDOF 6
ENDMDL
MODEL 3
REMARK VINA RESULT:     -10.7      7.696     12.273
REMARK  Name = 16045418
REMARK  6 active torsions:
REMARK  status: ('A' for Active; 'I' for Inactive)
REMARK    1  A    between atoms: C_2  and  O_8
REMARK    2  A    between atoms: C_4  and  O_23
REMARK    3  A    between atoms: O_8  and  C_9
REMARK    4  A    between atoms: C_9  and  C_14
REMARK    5  A    between atoms: O_23  and  C_25
REMARK    6  A    between atoms: C_28  and  C_32
REMARK                            x       y       z     vdW  Elec       q    Type
REMARK                         _______ _______ _______ _____ _____    ______ ____
ROOT
ATOM      1 CL   UNL     1      30.797 -24.488 -12.379  0.00  0.00    -0.079 Cl
ATOM      2  C   UNL     1      31.724 -22.876 -16.487  0.00  0.00    +0.142 C 
ATOM      3  C   UNL     1      32.767 -23.122 -15.598  0.00  0.00    +0.075 C 
ATOM      4  C   UNL     1      32.489 -23.621 -14.325  0.00  0.00    +0.159 C 
ATOM      5  C   UNL     1      30.407 -23.124 -16.114  0.00  0.00    +0.038 C 
ATOM      6  C   UNL     1      31.170 -23.872 -13.946  0.00  0.00    +0.092 C 
ATOM      7  C   UNL     1      30.129 -23.623 -14.841  0.00  0.00    +0.018 C 
ENDROOT
BRANCH   2   8
ATOM      8  O   UNL     1      31.997 -22.386 -17.734  0.00  0.00    -0.469 OA
BRANCH   8   9
ATOM      9  C   UNL     1      33.368 -22.390 -18.135  0.00  0.00    +0.249 C 
BRANCH   9  14
ATOM     10  N   UNL     1      32.569 -20.841 -19.904  0.00  0.00    -0.227 N 
ATOM     11  N   UNL     1      32.944 -19.917 -20.813  0.00  0.00    -0.115 NA
ATOM     12  N   UNL     1      35.151 -19.058 -21.339  0.00  0.00    -0.335 NA
ATOM     13  N   UNL     1      37.454 -18.481 -21.552  0.00  0.00    -0.332 N 
ATOM     14  C   UNL     1      33.597 -21.370 -19.171  0.00  0.00    +0.097 C 
ATOM     15  C   UNL     1      34.717 -20.741 -19.639  0.00  0.00    +0.090 C 
ATOM     16  C   UNL     1      34.271 -19.847 -20.658  0.00  0.00    +0.105 C 
ATOM     17  C   UNL     1      36.015 -20.951 -19.196  0.00  0.00    +0.016 C 
ATOM     18  C   UNL     1      36.900 -20.133 -19.905  0.00  0.00    +0.049 C 
ATOM     19  C   UNL     1      36.440 -19.251 -20.913  0.00  0.00    +0.189 C 
ATOM     20  H   UNL     1      31.631 -21.114 -19.779  0.00  0.00    +0.175 HD
ATOM     21  H   UNL     1      37.214 -17.845 -22.264  0.00  0.00    +0.145 HD
ATOM     22  H   UNL     1      38.395 -18.585 -21.282  0.00  0.00    +0.145 HD
ENDBRANCH   9  14
ENDBRANCH   8   9
ENDBRANCH   2   8
BRANCH   4  23
ATOM     23  O   UNL     1      33.526 -23.855 -13.472  0.00  0.00    -0.452 OA
BRANCH  23  25
ATOM     24 CL   UNL     1      37.234 -21.241 -15.778  0.00  0.00    -0.082 Cl
ATOM     25  C   UNL     1      34.806 -23.852 -14.001  0.00  0.00    +0.147 C 
ATOM     26  C   UNL     1      35.554 -25.016 -13.966  0.00  0.00    +0.048 C 
ATOM     27  C   UNL     1      35.305 -22.685 -14.553  0.00  0.00    +0.049 C 
ATOM     28  C   UNL     1      36.842 -25.012 -14.500  0.00  0.00    +0.072 C 
ATOM     29  C   UNL     1      36.593 -22.682 -15.087  0.00  0.00    +0.061 C 
ATOM     30  C   UNL     1      37.362 -23.845 -15.060  0.00  0.00    +0.022 C 
BRANCH  28  32
ATOM     31  N   UNL     1      38.271 -27.176 -14.447  0.00  0.00    -0.191 NA
ATOM     32  C   UNL     1      37.630 -26.204 -14.472  0.00  0.00    +0.101 C 
ENDBRANCH  28  32
ENDBRANCH  23  25
ENDBRANCH   4  23
TORSDOF 6
ENDMDL
MODEL 4
REMARK VINA RESULT:     -10.7      6.963     12.621
REMARK  Name = 16045418
REMARK  6 active torsions:
REMARK  status: ('A' for Active; 'I' for Inactive)
REMARK    1  A    between atoms: C_2  and  O_8
REMARK    2  A    between atoms: C_4  and  O_23
REMARK    3  A    between atoms: O_8  and  C_9
REMARK    4  A    between atoms: C_9  and  C_14
REMARK    5  A    between atoms: O_23  and  C_25
REMARK    6  A    between atoms: C_28  and  C_32
REMARK                            x       y       z     vdW  Elec       q    Type
REMARK                         _______ _______ _______ _____ _____    ______ ____
ROOT
ATOM      1 CL   UNL     1      31.248 -23.671 -14.497  0.00  0.00    -0.079 Cl
ATOM      2  C   UNL     1      34.503 -22.416 -17.354  0.00  0.00    +0.142 C 
ATOM      3  C   UNL     1      34.842 -22.810 -16.063  0.00  0.00    +0.075 C 
ATOM      4  C   UNL     1      33.841 -23.200 -15.172  0.00  0.00    +0.159 C 
ATOM      5  C   UNL     1      33.172 -22.409 -17.763  0.00  0.00    +0.038 C 
ATOM      6  C   UNL     1      32.506 -23.194 -15.577  0.00  0.00    +0.092 C 
ATOM      7  C   UNL     1      32.172 -22.798 -16.872  0.00  0.00    +0.018 C 
ENDROOT
BRANCH   2   8
ATOM      8  O   UNL     1      35.484 -22.033 -18.227  0.00  0.00    -0.469 OA
BRANCH   8   9
ATOM      9  C   UNL     1      35.071 -21.743 -19.563  0.00  0.00    +0.249 C 
BRANCH   9  14
ATOM     10  N   UNL     1      36.770 -19.940 -19.394  0.00  0.00    -0.227 N 
ATOM     11  N   UNL     1      37.211 -18.785 -19.935  0.00  0.00    -0.115 NA
ATOM     12  N   UNL     1      36.371 -17.539 -21.839  0.00  0.00    -0.335 NA
ATOM     13  N   UNL     1      35.254 -16.624 -23.737  0.00  0.00    -0.332 N 
ATOM     14  C   UNL     1      35.683 -20.485 -20.021  0.00  0.00    +0.097 C 
ATOM     15  C   UNL     1      35.400 -19.620 -21.042  0.00  0.00    +0.090 C 
ATOM     16  C   UNL     1      36.371 -18.577 -20.955  0.00  0.00    +0.105 C 
ATOM     17  C   UNL     1      34.370 -19.753 -21.961  0.00  0.00    +0.016 C 
ATOM     18  C   UNL     1      34.388 -18.680 -22.858  0.00  0.00    +0.049 C 
ATOM     19  C   UNL     1      35.359 -17.654 -22.757  0.00  0.00    +0.189 C 
ATOM     20  H   UNL     1      37.197 -20.357 -18.610  0.00  0.00    +0.175 HD
ATOM     21  H   UNL     1      35.893 -15.875 -23.733  0.00  0.00    +0.145 HD
ATOM     22  H   UNL     1      34.543 -16.662 -24.417  0.00  0.00    +0.145 HD
ENDBRANCH   9  14
ENDBRANCH   8   9
ENDBRANCH   2   8
BRANCH   4  23
ATOM     23  O   UNL     1      34.196 -23.583 -13.913  0.00  0.00    -0.452 OA
BRANCH  23  25
ATOM     24 CL   UNL     1      38.660 -24.094 -11.524  0.00  0.00    -0.082 Cl
ATOM     25  C   UNL     1      35.375 -24.294 -13.768  0.00  0.00    +0.147 C 
ATOM     26  C   UNL     1      35.596 -25.404 -14.565  0.00  0.00    +0.048 C 
ATOM     27  C   UNL     1      36.304 -23.878 -12.830  0.00  0.00    +0.049 C 
ATOM     28  C   UNL     1      36.784 -26.119 -14.419  0.00  0.00    +0.072 C 
ATOM     29  C   UNL     1      37.492 -24.593 -12.684  0.00  0.00    +0.061 C 
ATOM     30  C   UNL     1      37.732 -25.715 -13.478  0.00  0.00    +0.022 C 
BRANCH  28  32
ATOM     31  N   UNL     1      37.228 -28.206 -15.894  0.00  0.00    -0.191 NA
ATOM     32  C   UNL     1      37.030 -27.269 -15.232  0.00  0.00    +0.101 C 
ENDBRANCH  28  32
ENDBRANCH  23  25
ENDBRANCH   4  23
TORSDOF 6
ENDMDL
MODEL 5
REMARK VINA RESULT:     -10.6      1.649      2.059
REMARK  Name = 16045418
REMARK  6 active torsions:
REMARK  status: ('A' for Active; 'I' for Inactive)
REMARK    1  A    between atoms: C_2  and  O_8
REMARK    2  A    between atoms: C_4  and  O_23
REMARK    3  A    between atoms: O_8  and  C_9
REMARK    4  A    between atoms: C_9  and  C_14
REMARK    5  A    between atoms: O_23  and  C_25
REMARK    6  A    between atoms: C_28  and  C_32
REMARK                            x       y       z     vdW  Elec       q    Type
REMARK                         _______ _______ _______ _____ _____    ______ ____
ROOT
ATOM      1 CL   UNL     1      32.174 -12.368 -19.814  0.00  0.00    -0.079 Cl
ATOM      2  C   UNL     1      34.621 -15.208 -22.319  0.00  0.00    +0.142 C 
ATOM      3  C   UNL     1      33.868 -14.219 -22.946  0.00  0.00    +0.075 C 
ATOM      4  C   UNL     1      33.108 -13.336 -22.178  0.00  0.00    +0.159 C 
ATOM      5  C   UNL     1      34.620 -15.322 -20.932  0.00  0.00    +0.038 C 
ATOM      6  C   UNL     1      33.104 -13.445 -20.788  0.00  0.00    +0.092 C 
ATOM      7  C   UNL     1      33.860 -14.438 -20.165  0.00  0.00    +0.018 C 
ENDROOT
BRANCH   2   8
ATOM      8  O   UNL     1      35.365 -16.074 -23.071  0.00  0.00    -0.469 OA
BRANCH   8   9
ATOM      9  C   UNL     1      34.925 -17.434 -23.100  0.00  0.00    +0.249 C 
BRANCH   9  14
ATOM     10  N   UNL     1      37.004 -18.091 -21.911  0.00  0.00    -0.227 N 
ATOM     11  N   UNL     1      37.521 -18.886 -20.950  0.00  0.00    -0.115 NA
ATOM     12  N   UNL     1      36.425 -20.501 -19.511  0.00  0.00    -0.335 NA
ATOM     13  N   UNL     1      34.993 -21.975 -18.302  0.00  0.00    -0.332 N 
ATOM     14  C   UNL     1      35.654 -18.223 -22.094  0.00  0.00    +0.097 C 
ATOM     15  C   UNL     1      35.271 -19.171 -21.186  0.00  0.00    +0.090 C 
ATOM     16  C   UNL     1      36.458 -19.559 -20.495  0.00  0.00    +0.105 C 
ATOM     17  C   UNL     1      33.981 -19.644 -20.997  0.00  0.00    +0.016 C 
ATOM     18  C   UNL     1      33.968 -20.608 -19.984  0.00  0.00    +0.049 C 
ATOM     19  C   UNL     1      35.157 -20.980 -19.308  0.00  0.00    +0.189 C 
ATOM     20  H   UNL     1      37.554 -17.466 -22.438  0.00  0.00    +0.175 HD
ATOM     21  H   UNL     1      35.772 -22.287 -17.787  0.00  0.00    +0.145 HD
ATOM     22  H   UNL     1      34.101 -22.350 -18.121  0.00  0.00    +0.145 HD
ENDBRANCH   9  14
ENDBRANCH   8   9
ENDBRANCH   2   8
BRANCH   4  23
ATOM     23  O   UNL     1      32.379 -12.375 -22.814  0.00  0.00    -0.452 OA
BRANCH  23  25
ATOM     24 CL   UNL     1      33.006  -7.412 -21.880  0.00  0.00    -0.082 Cl
ATOM     25  C   UNL     1      33.021 -11.192 -23.137  0.00  0.00    +0.147 C 
ATOM     26  C   UNL     1      33.949 -11.186 -24.165  0.00  0.00    +0.048 C 
ATOM     27  C   UNL     1      32.720 -10.044 -22.426  0.00  0.00    +0.049 C 
ATOM     28  C   UNL     1      34.595  -9.994 -24.491  0.00  0.00    +0.072 C 
ATOM     29  C   UNL     1      33.366  -8.852 -22.752  0.00  0.00    +0.061 C 
ATOM     30  C   UNL     1      34.304  -8.827 -23.785  0.00  0.00    +0.022 C 
BRANCH  28  32
ATOM     31  N   UNL     1      36.340  -9.950 -26.409  0.00  0.00    -0.191 NA
ATOM     32  C   UNL     1      35.556  -9.969 -25.548  0.00  0.00    +0.101 C 
ENDBRANCH  28  32
ENDBRANCH  23  25
ENDBRANCH   4  23
TORSDOF 6
ENDMDL
MODEL 6
REMARK VINA RESULT:     -10.5      3.701      5.831
REMARK  Name = 16045418
REMARK  6 active torsions:
REMARK  status: ('A' for Active; 'I' for Inactive)
REMARK    1  A    between atoms: C_2  and  O_8
REMARK    2  A    between atoms: C_4  and  O_23
REMARK    3  A    between atoms: O_8  and  C_9
REMARK    4  A    between atoms: C_9  and  C_14
REMARK    5  A    between atoms: O_23  and  C_25
REMARK    6  A    between atoms: C_28  and  C_32
REMARK                            x       y       z     vdW  Elec       q    Type
REMARK                         _______ _______ _______ _____ _____    ______ ____
ROOT
ATOM      1 CL   UNL     1      32.050  -6.025 -20.638  0.00  0.00    -0.079 Cl
ATOM      2  C   UNL     1      33.110  -9.771 -22.911  0.00  0.00    +0.142 C 
ATOM      3  C   UNL     1      33.877  -8.623 -23.090  0.00  0.00    +0.075 C 
ATOM      4  C   UNL     1      33.557  -7.460 -22.390  0.00  0.00    +0.159 C 
ATOM      5  C   UNL     1      32.024  -9.765 -22.040  0.00  0.00    +0.038 C 
ATOM      6  C   UNL     1      32.470  -7.449 -21.515  0.00  0.00    +0.092 C 
ATOM      7  C   UNL     1      31.704  -8.601 -21.341  0.00  0.00    +0.018 C 
ENDROOT
BRANCH   2   8
ATOM      8  O   UNL     1      33.424 -10.911 -23.598  0.00  0.00    -0.469 OA
BRANCH   8   9
ATOM      9  C   UNL     1      33.831 -12.035 -22.815  0.00  0.00    +0.249 C 
BRANCH   9  14
ATOM     10  N   UNL     1      33.464 -13.236 -24.957  0.00  0.00    -0.227 N 
ATOM     11  N   UNL     1      33.551 -14.429 -25.582  0.00  0.00    -0.115 NA
ATOM     12  N   UNL     1      34.301 -16.576 -24.739  0.00  0.00    -0.335 NA
ATOM     13  N   UNL     1      35.100 -18.478 -23.543  0.00  0.00    -0.332 N 
ATOM     14  C   UNL     1      33.861 -13.248 -23.648  0.00  0.00    +0.097 C 
ATOM     15  C   UNL     1      34.232 -14.542 -23.409  0.00  0.00    +0.090 C 
ATOM     16  C   UNL     1      34.026 -15.245 -24.634  0.00  0.00    +0.105 C 
ATOM     17  C   UNL     1      34.710 -15.045 -22.207  0.00  0.00    +0.016 C 
ATOM     18  C   UNL     1      34.987 -16.410 -22.336  0.00  0.00    +0.049 C 
ATOM     19  C   UNL     1      34.776 -17.091 -23.560  0.00  0.00    +0.189 C 
ATOM     20  H   UNL     1      33.140 -12.422 -25.408  0.00  0.00    +0.175 HD
ATOM     21  H   UNL     1      34.981 -19.021 -24.356  0.00  0.00    +0.145 HD
ATOM     22  H   UNL     1      35.443 -18.894 -22.719  0.00  0.00    +0.145 HD
ENDBRANCH   9  14
ENDBRANCH   8   9
ENDBRANCH   2   8
BRANCH   4  23
ATOM     23  O   UNL     1      34.323  -6.349 -22.579  0.00  0.00    -0.452 OA
BRANCH  23  25
ATOM     24 CL   UNL     1      35.648  -4.524 -27.141  0.00  0.00    -0.082 Cl
ATOM     25  C   UNL     1      34.012  -5.530 -23.652  0.00  0.00    +0.147 C 
ATOM     26  C   UNL     1      32.833  -4.805 -23.627  0.00  0.00    +0.048 C 
ATOM     27  C   UNL     1      34.887  -5.456 -24.721  0.00  0.00    +0.049 C 
ATOM     28  C   UNL     1      32.521  -3.980 -24.707  0.00  0.00    +0.072 C 
ATOM     29  C   UNL     1      34.574  -4.630 -25.800  0.00  0.00    +0.061 C 
ATOM     30  C   UNL     1      33.391  -3.893 -25.794  0.00  0.00    +0.022 C 
BRANCH  28  32
ATOM     31  N   UNL     1      30.320  -2.608 -24.695  0.00  0.00    -0.191 NA
ATOM     32  C   UNL     1      31.307  -3.224 -24.700  0.00  0.00    +0.101 C 
ENDBRANCH  28  32
ENDBRANCH  23  25
ENDBRANCH   4  23
TORSDOF 6
ENDMDL
MODEL 7
REMARK VINA RESULT:     -10.5      3.323      5.258
REMARK  Name = 16045418
REMARK  6 active torsions:
REMARK  status: ('A' for Active; 'I' for Inactive)
REMARK    1  A    between atoms: C_2  and  O_8
REMARK    2  A    between atoms: C_4  and  O_23
REMARK    3  A    between atoms: O_8  and  C_9
REMARK    4  A    between atoms: C_9  and  C_14
REMARK    5  A    between atoms: O_23  and  C_25
REMARK    6  A    between atoms: C_28  and  C_32
REMARK                            x       y       z     vdW  Elec       q    Type
REMARK                         _______ _______ _______ _____ _____    ______ ____
ROOT
ATOM      1 CL   UNL     1      33.900 -17.550 -24.627  0.00  0.00    -0.079 Cl
ATOM      2  C   UNL     1      35.553 -19.158 -20.754  0.00  0.00    +0.142 C 
ATOM      3  C   UNL     1      35.951 -17.899 -21.196  0.00  0.00    +0.075 C 
ATOM      4  C   UNL     1      35.444 -17.394 -22.393  0.00  0.00    +0.159 C 
ATOM      5  C   UNL     1      34.654 -19.915 -21.498  0.00  0.00    +0.038 C 
ATOM      6  C   UNL     1      34.542 -18.149 -23.143  0.00  0.00    +0.092 C 
ATOM      7  C   UNL     1      34.148 -19.410 -22.696  0.00  0.00    +0.018 C 
ENDROOT
BRANCH   2   8
ATOM      8  O   UNL     1      36.051 -19.654 -19.580  0.00  0.00    -0.469 OA
BRANCH   8   9
ATOM      9  C   UNL     1      36.427 -21.032 -19.579  0.00  0.00    +0.249 C 
BRANCH   9  14
ATOM     10  N   UNL     1      36.955 -21.961 -17.337  0.00  0.00    -0.227 N 
ATOM     11  N   UNL     1      36.437 -22.537 -16.231  0.00  0.00    -0.115 NA
ATOM     12  N   UNL     1      34.140 -23.116 -15.710  0.00  0.00    -0.335 NA
ATOM     13  N   UNL     1      31.795 -23.526 -15.583  0.00  0.00    -0.332 N 
ATOM     14  C   UNL     1      36.037 -21.662 -18.307  0.00  0.00    +0.097 C 
ATOM     15  C   UNL     1      34.839 -22.073 -17.792  0.00  0.00    +0.090 C 
ATOM     16  C   UNL     1      35.128 -22.611 -16.501  0.00  0.00    +0.105 C 
ATOM     17  C   UNL     1      33.606 -21.977 -18.419  0.00  0.00    +0.016 C 
ATOM     18  C   UNL     1      32.606 -22.499 -17.591  0.00  0.00    +0.049 C 
ATOM     19  C   UNL     1      32.912 -23.028 -16.313  0.00  0.00    +0.189 C 
ATOM     20  H   UNL     1      37.916 -21.772 -17.437  0.00  0.00    +0.175 HD
ATOM     21  H   UNL     1      31.925 -23.910 -14.686  0.00  0.00    +0.145 HD
ATOM     22  H   UNL     1      30.892 -23.486 -15.975  0.00  0.00    +0.145 HD
ENDBRANCH   9  14
ENDBRANCH   8   9
ENDBRANCH   2   8
BRANCH   4  23
ATOM     23  O   UNL     1      35.846 -16.159 -22.806  0.00  0.00    -0.452 OA
BRANCH  23  25
ATOM     24 CL   UNL     1      32.549 -13.352 -20.133  0.00  0.00    -0.082 Cl
ATOM     25  C   UNL     1      34.907 -15.142 -22.798  0.00  0.00    +0.147 C 
ATOM     26  C   UNL     1      34.614 -14.484 -23.980  0.00  0.00    +0.048 C 
ATOM     27  C   UNL     1      34.283 -14.808 -21.609  0.00  0.00    +0.049 C 
ATOM     28  C   UNL     1      33.667 -13.461 -23.973  0.00  0.00    +0.072 C 
ATOM     29  C   UNL     1      33.336 -13.784 -21.601  0.00  0.00    +0.061 C 
ATOM     30  C   UNL     1      33.028 -13.110 -22.783  0.00  0.00    +0.022 C 
BRANCH  28  32
ATOM     31  N   UNL     1      33.097 -12.209 -26.171  0.00  0.00    -0.191 NA
ATOM     32  C   UNL     1      33.353 -12.770 -25.184  0.00  0.00    +0.101 C 
ENDBRANCH  28  32
ENDBRANCH  23  25
ENDBRANCH   4  23
TORSDOF 6
ENDMDL
MODEL 8
REMARK VINA RESULT:     -10.4      3.970      6.134
REMARK  Name = 16045418
REMARK  6 active torsions:
REMARK  status: ('A' for Active; 'I' for Inactive)
REMARK    1  A    between atoms: C_2  and  O_8
REMARK    2  A    between atoms: C_4  and  O_23
REMARK    3  A    between atoms: O_8  and  C_9
REMARK    4  A    between atoms: C_9  and  C_14
REMARK    5  A    between atoms: O_23  and  C_25
REMARK    6  A    between atoms: C_28  and  C_32
REMARK                            x       y       z     vdW  Elec       q    Type
REMARK                         _______ _______ _______ _____ _____    ______ ____
ROOT
ATOM      1 CL   UNL     1      32.284  -5.928 -20.357  0.00  0.00    -0.079 Cl
ATOM      2  C   UNL     1      32.930  -9.702 -22.738  0.00  0.00    +0.142 C 
ATOM      3  C   UNL     1      33.735  -8.593 -22.983  0.00  0.00    +0.075 C 
ATOM      4  C   UNL     1      33.543  -7.421 -22.250  0.00  0.00    +0.159 C 
ATOM      5  C   UNL     1      31.934  -9.649 -21.767  0.00  0.00    +0.038 C 
ATOM      6  C   UNL     1      32.546  -7.363 -21.276  0.00  0.00    +0.092 C 
ATOM      7  C   UNL     1      31.741  -8.477 -21.035  0.00  0.00    +0.018 C 
ENDROOT
BRANCH   2   8
ATOM      8  O   UNL     1      33.118 -10.850 -23.456  0.00  0.00    -0.469 OA
BRANCH   8   9
ATOM      9  C   UNL     1      33.836 -11.900 -22.804  0.00  0.00    +0.249 C 
BRANCH   9  14
ATOM     10  N   UNL     1      33.416 -13.087 -24.944  0.00  0.00    -0.227 N 
ATOM     11  N   UNL     1      33.478 -14.279 -25.576  0.00  0.00    -0.115 NA
ATOM     12  N   UNL     1      34.218 -16.438 -24.755  0.00  0.00    -0.335 NA
ATOM     13  N   UNL     1      35.016 -18.354 -23.581  0.00  0.00    -0.332 N 
ATOM     14  C   UNL     1      33.836 -13.110 -23.642  0.00  0.00    +0.097 C 
ATOM     15  C   UNL     1      34.197 -14.409 -23.415  0.00  0.00    +0.090 C 
ATOM     16  C   UNL     1      33.960 -15.104 -24.640  0.00  0.00    +0.105 C 
ATOM     17  C   UNL     1      34.690 -14.922 -22.225  0.00  0.00    +0.016 C 
ATOM     18  C   UNL     1      34.949 -16.289 -22.364  0.00  0.00    +0.049 C 
ATOM     19  C   UNL     1      34.708 -16.963 -23.587  0.00  0.00    +0.189 C 
ATOM     20  H   UNL     1      33.094 -12.268 -25.386  0.00  0.00    +0.175 HD
ATOM     21  H   UNL     1      34.876 -18.892 -24.394  0.00  0.00    +0.145 HD
ATOM     22  H   UNL     1      35.369 -18.777 -22.765  0.00  0.00    +0.145 HD
ENDBRANCH   9  14
ENDBRANCH   8   9
ENDBRANCH   2   8
BRANCH   4  23
ATOM     23  O   UNL     1      34.344  -6.349 -22.507  0.00  0.00    -0.452 OA
BRANCH  23  25
ATOM     24 CL   UNL     1      30.979  -3.284 -24.783  0.00  0.00    -0.082 Cl
ATOM     25  C   UNL     1      34.027  -5.558 -23.598  0.00  0.00    +0.147 C 
ATOM     26  C   UNL     1      34.938  -5.442 -24.634  0.00  0.00    +0.048 C 
ATOM     27  C   UNL     1      32.809  -4.904 -23.627  0.00  0.00    +0.049 C 
ATOM     28  C   UNL     1      34.619  -4.646 -25.733  0.00  0.00    +0.072 C 
ATOM     29  C   UNL     1      32.489  -4.108 -24.727  0.00  0.00    +0.061 C 
ATOM     30  C   UNL     1      33.395  -3.979 -25.780  0.00  0.00    +0.022 C 
BRANCH  28  32
ATOM     31  N   UNL     1      36.304  -4.407 -27.690  0.00  0.00    -0.191 NA
ATOM     32  C   UNL     1      35.547  -4.514 -26.812  0.00  0.00    +0.101 C 
ENDBRANCH  28  32
ENDBRANCH  23  25
ENDBRANCH   4  23
TORSDOF 6
ENDMDL
MODEL 9
REMARK VINA RESULT:     -10.4      3.207      9.865
REMARK  Name = 16045418
REMARK  6 active torsions:
REMARK  status: ('A' for Active; 'I' for Inactive)
REMARK    1  A    between atoms: C_2  and  O_8
REMARK    2  A    between atoms: C_4  and  O_23
REMARK    3  A    between atoms: O_8  and  C_9
REMARK    4  A    between atoms: C_9  and  C_14
REMARK    5  A    between atoms: O_23  and  C_25
REMARK    6  A    between atoms: C_28  and  C_32
REMARK                            x       y       z     vdW  Elec       q    Type
REMARK                         _______ _______ _______ _____ _____    ______ ____
ROOT
ATOM      1 CL   UNL     1      34.954 -19.824 -24.325  0.00  0.00    -0.079 Cl
ATOM      2  C   UNL     1      34.744 -15.557 -22.885  0.00  0.00    +0.142 C 
ATOM      3  C   UNL     1      35.526 -16.475 -22.190  0.00  0.00    +0.075 C 
ATOM      4  C   UNL     1      35.597 -17.797 -22.629  0.00  0.00    +0.159 C 
ATOM      5  C   UNL     1      34.033 -15.949 -24.015  0.00  0.00    +0.038 C 
ATOM      6  C   UNL     1      34.886 -18.196 -23.760  0.00  0.00    +0.092 C 
ATOM      7  C   UNL     1      34.103 -17.272 -24.453  0.00  0.00    +0.018 C 
ENDROOT
BRANCH   2   8
ATOM      8  O   UNL     1      34.675 -14.260 -22.455  0.00  0.00    -0.469 OA
BRANCH   8   9
ATOM      9  C   UNL     1      33.378 -13.661 -22.445  0.00  0.00    +0.249 C 
BRANCH   9  14
ATOM     10  N   UNL     1      34.326 -11.883 -23.897  0.00  0.00    -0.227 N 
ATOM     11  N   UNL     1      34.281 -10.570 -24.206  0.00  0.00    -0.115 NA
ATOM     12  N   UNL     1      32.908  -8.799 -23.278  0.00  0.00    -0.335 NA
ATOM     13  N   UNL     1      31.398  -7.366 -22.116  0.00  0.00    -0.332 N 
ATOM     14  C   UNL     1      33.462 -12.266 -22.908  0.00  0.00    +0.097 C 
ATOM     15  C   UNL     1      32.810 -11.118 -22.552  0.00  0.00    +0.090 C 
ATOM     16  C   UNL     1      33.347 -10.086 -23.380  0.00  0.00    +0.105 C 
ATOM     17  C   UNL     1      31.830 -11.005 -21.577  0.00  0.00    +0.016 C 
ATOM     18  C   UNL     1      31.393  -9.680 -21.488  0.00  0.00    +0.049 C 
ATOM     19  C   UNL     1      31.937  -8.669 -22.319  0.00  0.00    +0.189 C 
ATOM     20  H   UNL     1      34.933 -12.515 -24.348  0.00  0.00    +0.175 HD
ATOM     21  H   UNL     1      31.724  -6.609 -22.655  0.00  0.00    +0.145 HD
ATOM     22  H   UNL     1      30.699  -7.222 -21.438  0.00  0.00    +0.145 HD
ENDBRANCH   9  14
ENDBRANCH   8   9
ENDBRANCH   2   8
BRANCH   4  23
ATOM     23  O   UNL     1      36.370 -18.678 -21.933  0.00  0.00    -0.452 OA
BRANCH  23  25
ATOM     24 CL   UNL     1      32.040 -20.675 -20.155  0.00  0.00    -0.082 Cl
ATOM     25  C   UNL     1      35.745 -19.470 -20.985  0.00  0.00    +0.147 C 
ATOM     26  C   UNL     1      36.507 -20.067 -19.995  0.00  0.00    +0.048 C 
ATOM     27  C   UNL     1      34.374 -19.645 -21.049  0.00  0.00    +0.049 C 
ATOM     28  C   UNL     1      35.878 -20.864 -19.040  0.00  0.00    +0.072 C 
ATOM     29  C   UNL     1      33.744 -20.442 -20.093  0.00  0.00    +0.061 C 
ATOM     30  C   UNL     1      34.496 -21.052 -19.089  0.00  0.00    +0.022 C 
BRANCH  28  32
ATOM     31  N   UNL     1      37.275 -21.997 -17.172  0.00  0.00    -0.191 NA
ATOM     32  C   UNL     1      36.648 -21.488 -18.011  0.00  0.00    +0.101 C 
ENDBRANCH  28  32
ENDBRANCH  23  25
ENDBRANCH   4  23
TORSDOF 6
ENDMDL
