MODEL 1
REMARK VINA RESULT:     -11.2      0.000      0.000
REMARK  Name = 446752
REMARK  3 active torsions:
REMARK  status: ('A' for Active; 'I' for Inactive)
REMARK    1  A    between atoms: C_6  and  C_18
REMARK    2  A    between atoms: C_18  and  N_19
REMARK    3  A    between atoms: N_19  and  C_22
REMARK                            x       y       z     vdW  Elec       q    Type
REMARK                         _______ _______ _______ _____ _____    ______ ____
ROOT
ATOM      1  N   UNL     1      32.667 -21.151 -19.406  0.00  0.00    -0.182 NA
ATOM      2  N   UNL     1      31.939 -22.421 -17.612  0.00  0.00    -0.273 NA
ATOM      3  N   UNL     1      33.480 -23.304 -15.987  0.00  0.00    -0.312 NA
ATOM      4  N   UNL     1      35.764 -22.913 -16.161  0.00  0.00    -0.332 N 
ATOM      5  N   UNL     1      31.181 -23.706 -15.800  0.00  0.00    -0.283 N 
ATOM      6  C   UNL     1      35.002 -20.670 -19.708  0.00  0.00    +0.010 C 
ATOM      7  C   UNL     1      35.301 -21.383 -18.571  0.00  0.00    -0.009 C 
ATOM      8  C   UNL     1      34.258 -21.983 -17.849  0.00  0.00    +0.115 C 
ATOM      9  C   UNL     1      32.938 -21.850 -18.295  0.00  0.00    +0.104 C 
ATOM     10  C   UNL     1      33.688 -20.579 -20.089  0.00  0.00    +0.107 C 
ATOM     11  C   UNL     1      36.745 -21.466 -18.179  0.00  0.00    +0.032 C 
ATOM     12  C   UNL     1      34.468 -22.723 -16.688  0.00  0.00    +0.201 C 
ATOM     13  C   UNL     1      32.256 -23.115 -16.498  0.00  0.00    +0.206 C 
ATOM     14  H   UNL     1      35.887 -23.440 -15.338  0.00  0.00    +0.145 HD
ATOM     15  H   UNL     1      36.543 -22.521 -16.616  0.00  0.00    +0.145 HD
ATOM     16  H   UNL     1      30.260 -23.600 -16.131  0.00  0.00    +0.156 HD
ATOM     17  H   UNL     1      31.353 -24.225 -14.981  0.00  0.00    +0.156 HD
ENDROOT
BRANCH   6  18
ATOM     18  C   UNL     1      36.061 -19.997 -20.538  0.00  0.00    +0.097 C 
BRANCH  18  19
ATOM     19  N   UNL     1      35.633 -18.695 -20.935  0.00  0.00    -0.288 NA
ATOM     20  H   UNL     1      35.718 -17.953 -20.292  0.00  0.00    +0.124 HD
BRANCH  19  22
ATOM     21  N   UNL     1      33.929 -15.640 -24.327  0.00  0.00    -0.248 NA
ATOM     22  C   UNL     1      35.090 -18.425 -22.215  0.00  0.00    +0.101 C 
ATOM     23  C   UNL     1      34.779 -17.118 -22.623  0.00  0.00    +0.010 C 
ATOM     24  C   UNL     1      34.239 -16.880 -23.904  0.00  0.00    +0.061 C 
ATOM     25  C   UNL     1      34.872 -19.501 -23.071  0.00  0.00    -0.010 C 
ATOM     26  C   UNL     1      34.990 -16.016 -21.782  0.00  0.00    +0.000 C 
ATOM     27  C   UNL     1      34.029 -17.974 -24.739  0.00  0.00    +0.071 C 
ATOM     28  C   UNL     1      34.340 -19.275 -24.334  0.00  0.00    -0.023 C 
ATOM     29  C   UNL     1      34.671 -14.737 -22.214  0.00  0.00    +0.020 C 
ATOM     30  C   UNL     1      34.148 -14.604 -23.484  0.00  0.00    +0.098 C 
ENDBRANCH  19  22
ENDBRANCH  18  19
ENDBRANCH   6  18
TORSDOF 3
ENDMDL
MODEL 2
REMARK VINA RESULT:     -11.1      2.628      8.914
REMARK  Name = 446752
REMARK  3 active torsions:
REMARK  status: ('A' for Active; 'I' for Inactive)
REMARK    1  A    between atoms: C_6  and  C_18
REMARK    2  A    between atoms: C_18  and  N_19
REMARK    3  A    between atoms: N_19  and  C_22
REMARK                            x       y       z     vdW  Elec       q    Type
REMARK                         _______ _______ _______ _____ _____    ______ ____
ROOT
ATOM      1  N   UNL     1      36.495 -21.119 -18.527  0.00  0.00    -0.182 NA
ATOM      2  N   UNL     1      37.300 -19.654 -20.128  0.00  0.00    -0.273 NA
ATOM      3  N   UNL     1      35.863 -18.731 -21.825  0.00  0.00    -0.312 NA
ATOM      4  N   UNL     1      33.607 -19.280 -21.918  0.00  0.00    -0.332 N 
ATOM      5  N   UNL     1      38.135 -18.170 -21.744  0.00  0.00    -0.283 N 
ATOM      6  C   UNL     1      34.182 -21.773 -18.505  0.00  0.00    +0.010 C 
ATOM      7  C   UNL     1      33.945 -20.984 -19.606  0.00  0.00    -0.009 C 
ATOM      8  C   UNL     1      35.006 -20.257 -20.165  0.00  0.00    +0.115 C 
ATOM      9  C   UNL     1      36.283 -20.345 -19.599  0.00  0.00    +0.104 C 
ATOM     10  C   UNL     1      35.457 -21.815 -18.001  0.00  0.00    +0.107 C 
ATOM     11  C   UNL     1      32.543 -20.959 -20.135  0.00  0.00    +0.032 C 
ATOM     12  C   UNL     1      34.856 -19.433 -21.278  0.00  0.00    +0.201 C 
ATOM     13  C   UNL     1      37.042 -18.886 -21.208  0.00  0.00    +0.206 C 
ATOM     14  H   UNL     1      33.526 -18.692 -22.704  0.00  0.00    +0.145 HD
ATOM     15  H   UNL     1      32.819 -19.762 -21.579  0.00  0.00    +0.145 HD
ATOM     16  H   UNL     1      39.024 -18.246 -21.330  0.00  0.00    +0.156 HD
ATOM     17  H   UNL     1      38.006 -17.593 -22.532  0.00  0.00    +0.156 HD
ENDROOT
BRANCH   6  18
ATOM     18  C   UNL     1      33.100 -22.585 -17.846  0.00  0.00    +0.097 C 
BRANCH  18  19
ATOM     19  N   UNL     1      33.644 -23.390 -16.802  0.00  0.00    -0.288 NA
ATOM     20  H   UNL     1      34.428 -23.953 -16.999  0.00  0.00    +0.124 HD
BRANCH  19  22
ATOM     21  N   UNL     1      34.037 -24.120 -12.001  0.00  0.00    -0.248 NA
ATOM     22  C   UNL     1      33.105 -23.413 -15.493  0.00  0.00    +0.101 C 
ATOM     23  C   UNL     1      33.884 -23.769 -14.380  0.00  0.00    +0.010 C 
ATOM     24  C   UNL     1      33.318 -23.783 -13.088  0.00  0.00    +0.061 C 
ATOM     25  C   UNL     1      31.765 -23.068 -15.334  0.00  0.00    -0.010 C 
ATOM     26  C   UNL     1      35.235 -24.120 -14.512  0.00  0.00    +0.000 C 
ATOM     27  C   UNL     1      31.977 -23.436 -12.958  0.00  0.00    +0.071 C 
ATOM     28  C   UNL     1      31.201 -23.080 -14.064  0.00  0.00    -0.023 C 
ATOM     29  C   UNL     1      35.978 -24.467 -13.394  0.00  0.00    +0.020 C 
ATOM     30  C   UNL     1      35.338 -24.452 -12.171  0.00  0.00    +0.098 C 
ENDBRANCH  19  22
ENDBRANCH  18  19
ENDBRANCH   6  18
TORSDOF 3
ENDMDL
MODEL 3
REMARK VINA RESULT:     -11.1      1.519      2.408
REMARK  Name = 446752
REMARK  3 active torsions:
REMARK  status: ('A' for Active; 'I' for Inactive)
REMARK    1  A    between atoms: C_6  and  C_18
REMARK    2  A    between atoms: C_18  and  N_19
REMARK    3  A    between atoms: N_19  and  C_22
REMARK                            x       y       z     vdW  Elec       q    Type
REMARK                         _______ _______ _______ _____ _____    ______ ____
ROOT
ATOM      1  N   UNL     1      32.978 -20.249 -20.732  0.00  0.00    -0.182 NA
ATOM      2  N   UNL     1      32.713 -21.731 -18.974  0.00  0.00    -0.273 NA
ATOM      3  N   UNL     1      34.580 -22.429 -17.623  0.00  0.00    -0.312 NA
ATOM      4  N   UNL     1      36.725 -21.638 -18.038  0.00  0.00    -0.332 N 
ATOM      5  N   UNL     1      32.423 -23.236 -17.195  0.00  0.00    -0.283 N 
ATOM      6  C   UNL     1      35.141 -19.351 -21.272  0.00  0.00    +0.010 C 
ATOM      7  C   UNL     1      35.701 -20.069 -20.241  0.00  0.00    -0.009 C 
ATOM      8  C   UNL     1      34.876 -20.884 -19.451  0.00  0.00    +0.115 C 
ATOM      9  C   UNL     1      33.505 -20.955 -19.723  0.00  0.00    +0.104 C 
ATOM     10  C   UNL     1      33.791 -19.468 -21.484  0.00  0.00    +0.107 C 
ATOM     11  C   UNL     1      37.178 -19.923 -20.034  0.00  0.00    +0.032 C 
ATOM     12  C   UNL     1      35.357 -21.644 -18.388  0.00  0.00    +0.201 C 
ATOM     13  C   UNL     1      33.285 -22.426 -17.967  0.00  0.00    +0.206 C 
ATOM     14  H   UNL     1      37.041 -22.184 -17.282  0.00  0.00    +0.145 HD
ATOM     15  H   UNL     1      37.361 -21.089 -18.550  0.00  0.00    +0.145 HD
ATOM     16  H   UNL     1      31.462 -23.271 -17.403  0.00  0.00    +0.156 HD
ATOM     17  H   UNL     1      32.785 -23.765 -16.448  0.00  0.00    +0.156 HD
ENDROOT
BRANCH   6  18
ATOM     18  C   UNL     1      35.956 -18.456 -22.165  0.00  0.00    +0.097 C 
BRANCH  18  19
ATOM     19  N   UNL     1      35.737 -17.086 -21.833  0.00  0.00    -0.288 NA
ATOM     20  H   UNL     1      36.109 -16.739 -20.989  0.00  0.00    +0.124 HD
BRANCH  19  22
ATOM     21  N   UNL     1      32.950 -13.151 -22.534  0.00  0.00    -0.248 NA
ATOM     22  C   UNL     1      35.008 -16.203 -22.666  0.00  0.00    +0.101 C 
ATOM     23  C   UNL     1      34.330 -15.088 -22.145  0.00  0.00    +0.010 C 
ATOM     24  C   UNL     1      33.612 -14.227 -23.000  0.00  0.00    +0.061 C 
ATOM     25  C   UNL     1      34.980 -16.469 -24.032  0.00  0.00    -0.010 C 
ATOM     26  C   UNL     1      34.342 -14.796 -20.774  0.00  0.00    +0.000 C 
ATOM     27  C   UNL     1      33.599 -14.518 -24.362  0.00  0.00    +0.071 C 
ATOM     28  C   UNL     1      34.275 -15.625 -24.880  0.00  0.00    -0.023 C 
ATOM     29  C   UNL     1      33.662 -13.689 -20.290  0.00  0.00    +0.020 C 
ATOM     30  C   UNL     1      32.987 -12.904 -21.204  0.00  0.00    +0.098 C 
ENDBRANCH  19  22
ENDBRANCH  18  19
ENDBRANCH   6  18
TORSDOF 3
ENDMDL
MODEL 4
REMARK VINA RESULT:     -10.7      5.038      8.399
REMARK  Name = 446752
REMARK  3 active torsions:
REMARK  status: ('A' for Active; 'I' for Inactive)
REMARK    1  A    between atoms: C_6  and  C_18
REMARK    2  A    between atoms: C_18  and  N_19
REMARK    3  A    between atoms: N_19  and  C_22
REMARK                            x       y       z     vdW  Elec       q    Type
REMARK                         _______ _______ _______ _____ _____    ______ ____
ROOT
ATOM      1  N   UNL     1      33.876 -15.457 -25.126  0.00  0.00    -0.182 NA
ATOM      2  N   UNL     1      34.371 -17.665 -24.638  0.00  0.00    -0.273 NA
ATOM      3  N   UNL     1      35.049 -18.344 -22.429  0.00  0.00    -0.312 NA
ATOM      4  N   UNL     1      35.232 -16.802 -20.702  0.00  0.00    -0.332 N 
ATOM      5  N   UNL     1      34.869 -19.909 -24.162  0.00  0.00    -0.283 N 
ATOM      6  C   UNL     1      34.023 -13.757 -23.434  0.00  0.00    +0.010 C 
ATOM      7  C   UNL     1      34.417 -14.701 -22.514  0.00  0.00    -0.009 C 
ATOM      8  C   UNL     1      34.537 -16.038 -22.919  0.00  0.00    +0.115 C 
ATOM      9  C   UNL     1      34.258 -16.391 -24.245  0.00  0.00    +0.104 C 
ATOM     10  C   UNL     1      33.766 -14.170 -24.717  0.00  0.00    +0.107 C 
ATOM     11  C   UNL     1      34.692 -14.220 -21.122  0.00  0.00    +0.032 C 
ATOM     12  C   UNL     1      34.929 -17.059 -22.056  0.00  0.00    +0.201 C 
ATOM     13  C   UNL     1      34.758 -18.574 -23.717  0.00  0.00    +0.206 C 
ATOM     14  H   UNL     1      35.507 -17.539 -20.110  0.00  0.00    +0.145 HD
ATOM     15  H   UNL     1      35.170 -15.884 -20.349  0.00  0.00    +0.145 HD
ATOM     16  H   UNL     1      34.668 -20.135 -25.098  0.00  0.00    +0.156 HD
ATOM     17  H   UNL     1      35.148 -20.615 -23.534  0.00  0.00    +0.156 HD
ENDROOT
BRANCH   6  18
ATOM     18  C   UNL     1      33.871 -12.302 -23.081  0.00  0.00    +0.097 C 
BRANCH  18  19
ATOM     19  N   UNL     1      32.544 -12.033 -22.631  0.00  0.00    -0.288 NA
ATOM     20  H   UNL     1      31.795 -12.511 -23.057  0.00  0.00    +0.124 HD
BRANCH  19  22
ATOM     21  N   UNL     1      31.903  -7.495 -20.979  0.00  0.00    -0.248 NA
ATOM     22  C   UNL     1      32.259 -11.107 -21.598  0.00  0.00    +0.101 C 
ATOM     23  C   UNL     1      32.227  -9.724 -21.836  0.00  0.00    +0.010 C 
ATOM     24  C   UNL     1      31.940  -8.826 -20.786  0.00  0.00    +0.061 C 
ATOM     25  C   UNL     1      32.005 -11.610 -20.325  0.00  0.00    -0.010 C 
ATOM     26  C   UNL     1      32.478  -9.191 -23.108  0.00  0.00    +0.000 C 
ATOM     27  C   UNL     1      31.692  -9.355 -19.523  0.00  0.00    +0.071 C 
ATOM     28  C   UNL     1      31.722 -10.732 -19.286  0.00  0.00    -0.023 C 
ATOM     29  C   UNL     1      32.440  -7.820 -23.311  0.00  0.00    +0.020 C 
ATOM     30  C   UNL     1      32.150  -7.021 -22.223  0.00  0.00    +0.098 C 
ENDBRANCH  19  22
ENDBRANCH  18  19
ENDBRANCH   6  18
TORSDOF 3
ENDMDL
MODEL 5
REMARK VINA RESULT:     -10.7      5.095      9.918
REMARK  Name = 446752
REMARK  3 active torsions:
REMARK  status: ('A' for Active; 'I' for Inactive)
REMARK    1  A    between atoms: C_6  and  C_18
REMARK    2  A    between atoms: C_18  and  N_19
REMARK    3  A    between atoms: N_19  and  C_22
REMARK                            x       y       z     vdW  Elec       q    Type
REMARK                         _______ _______ _______ _____ _____    ______ ____
ROOT
ATOM      1  N   UNL     1      35.993 -22.879 -16.253  0.00  0.00    -0.182 NA
ATOM      2  N   UNL     1      34.393 -22.292 -17.819  0.00  0.00    -0.273 NA
ATOM      3  N   UNL     1      32.046 -22.642 -17.413  0.00  0.00    -0.312 NA
ATOM      4  N   UNL     1      31.298 -23.587 -15.427  0.00  0.00    -0.332 N 
ATOM      5  N   UNL     1      32.786 -21.689 -19.420  0.00  0.00    -0.283 N 
ATOM      6  C   UNL     1      35.360 -23.867 -14.154  0.00  0.00    +0.010 C 
ATOM      7  C   UNL     1      34.036 -23.799 -14.518  0.00  0.00    -0.009 C 
ATOM      8  C   UNL     1      33.698 -23.261 -15.768  0.00  0.00    +0.115 C 
ATOM      9  C   UNL     1      34.708 -22.805 -16.624  0.00  0.00    +0.104 C 
ATOM     10  C   UNL     1      36.299 -23.403 -15.040  0.00  0.00    +0.107 C 
ATOM     11  C   UNL     1      33.033 -24.314 -13.530  0.00  0.00    +0.032 C 
ATOM     12  C   UNL     1      32.384 -23.154 -16.218  0.00  0.00    +0.201 C 
ATOM     13  C   UNL     1      33.086 -22.235 -18.153  0.00  0.00    +0.206 C 
ATOM     14  H   UNL     1      30.378 -23.501 -15.765  0.00  0.00    +0.145 HD
ATOM     15  H   UNL     1      31.462 -23.976 -14.537  0.00  0.00    +0.145 HD
ATOM     16  H   UNL     1      33.511 -21.374 -20.006  0.00  0.00    +0.156 HD
ATOM     17  H   UNL     1      31.849 -21.623 -19.717  0.00  0.00    +0.156 HD
ENDROOT
BRANCH   6  18
ATOM     18  C   UNL     1      35.806 -24.430 -12.832  0.00  0.00    +0.097 C 
BRANCH  18  19
ATOM     19  N   UNL     1      36.419 -25.705 -13.013  0.00  0.00    -0.288 NA
ATOM     20  H   UNL     1      35.883 -26.515 -12.846  0.00  0.00    +0.124 HD
BRANCH  19  22
ATOM     21  N   UNL     1      39.869 -27.744 -15.784  0.00  0.00    -0.248 NA
ATOM     22  C   UNL     1      37.766 -25.856 -13.423  0.00  0.00    +0.101 C 
ATOM     23  C   UNL     1      38.133 -26.759 -14.434  0.00  0.00    +0.010 C 
ATOM     24  C   UNL     1      39.483 -26.887 -14.820  0.00  0.00    +0.061 C 
ATOM     25  C   UNL     1      38.730 -25.074 -12.792  0.00  0.00    -0.010 C 
ATOM     26  C   UNL     1      37.182 -27.557 -15.086  0.00  0.00    +0.000 C 
ATOM     27  C   UNL     1      40.427 -26.095 -14.172  0.00  0.00    +0.071 C 
ATOM     28  C   UNL     1      40.062 -25.195 -13.168  0.00  0.00    -0.023 C 
ATOM     29  C   UNL     1      37.576 -28.441 -16.079  0.00  0.00    +0.020 C 
ATOM     30  C   UNL     1      38.920 -28.496 -16.389  0.00  0.00    +0.098 C 
ENDBRANCH  19  22
ENDBRANCH  18  19
ENDBRANCH   6  18
TORSDOF 3
ENDMDL
MODEL 6
REMARK VINA RESULT:     -10.7      1.823      8.260
REMARK  Name = 446752
REMARK  3 active torsions:
REMARK  status: ('A' for Active; 'I' for Inactive)
REMARK    1  A    between atoms: C_6  and  C_18
REMARK    2  A    between atoms: C_18  and  N_19
REMARK    3  A    between atoms: N_19  and  C_22
REMARK                            x       y       z     vdW  Elec       q    Type
REMARK                         _______ _______ _______ _____ _____    ______ ____
ROOT
ATOM      1  N   UNL     1      33.092 -20.522 -20.632  0.00  0.00    -0.182 NA
ATOM      2  N   UNL     1      33.671 -19.075 -22.344  0.00  0.00    -0.273 NA
ATOM      3  N   UNL     1      35.922 -18.258 -22.594  0.00  0.00    -0.312 NA
ATOM      4  N   UNL     1      37.602 -18.895 -21.120  0.00  0.00    -0.332 N 
ATOM      5  N   UNL     1      34.239 -17.608 -24.086  0.00  0.00    -0.283 N 
ATOM      6  C   UNL     1      34.729 -21.262 -19.036  0.00  0.00    +0.010 C 
ATOM      7  C   UNL     1      35.693 -20.514 -19.672  0.00  0.00    -0.009 C 
ATOM      8  C   UNL     1      35.338 -19.765 -20.803  0.00  0.00    +0.115 C 
ATOM      9  C   UNL     1      34.017 -19.788 -21.266  0.00  0.00    +0.104 C 
ATOM     10  C   UNL     1      33.454 -21.238 -19.541  0.00  0.00    +0.107 C 
ATOM     11  C   UNL     1      37.076 -20.558 -19.098  0.00  0.00    +0.032 C 
ATOM     12  C   UNL     1      36.247 -18.982 -21.509  0.00  0.00    +0.201 C 
ATOM     13  C   UNL     1      34.635 -18.350 -22.952  0.00  0.00    +0.206 C 
ATOM     14  H   UNL     1      38.226 -18.334 -21.634  0.00  0.00    +0.145 HD
ATOM     15  H   UNL     1      37.920 -19.394 -20.334  0.00  0.00    +0.145 HD
ATOM     16  H   UNL     1      33.305 -17.639 -24.394  0.00  0.00    +0.156 HD
ATOM     17  H   UNL     1      34.900 -17.061 -24.570  0.00  0.00    +0.156 HD
ENDROOT
BRANCH   6  18
ATOM     18  C   UNL     1      35.027 -22.091 -17.816  0.00  0.00    +0.097 C 
BRANCH  18  19
ATOM     19  N   UNL     1      33.890 -22.872 -17.453  0.00  0.00    -0.288 NA
ATOM     20  H   UNL     1      33.280 -23.178 -18.164  0.00  0.00    +0.124 HD
BRANCH  19  22
ATOM     21  N   UNL     1      30.783 -23.563 -13.763  0.00  0.00    -0.248 NA
ATOM     22  C   UNL     1      33.599 -23.224 -16.112  0.00  0.00    +0.101 C 
ATOM     23  C   UNL     1      32.286 -23.211 -15.614  0.00  0.00    +0.010 C 
ATOM     24  C   UNL     1      32.029 -23.566 -14.273  0.00  0.00    +0.061 C 
ATOM     25  C   UNL     1      34.662 -23.590 -15.290  0.00  0.00    -0.010 C 
ATOM     26  C   UNL     1      31.199 -22.847 -16.419  0.00  0.00    +0.000 C 
ATOM     27  C   UNL     1      33.109 -23.927 -13.473  0.00  0.00    +0.071 C 
ATOM     28  C   UNL     1      34.416 -23.942 -13.969  0.00  0.00    -0.023 C 
ATOM     29  C   UNL     1      29.914 -22.843 -15.898  0.00  0.00    +0.020 C 
ATOM     30  C   UNL     1      29.761 -23.206 -14.575  0.00  0.00    +0.098 C 
ENDBRANCH  19  22
ENDBRANCH  18  19
ENDBRANCH   6  18
TORSDOF 3
ENDMDL
MODEL 7
REMARK VINA RESULT:     -10.6      1.311      2.654
REMARK  Name = 446752
REMARK  3 active torsions:
REMARK  status: ('A' for Active; 'I' for Inactive)
REMARK    1  A    between atoms: C_6  and  C_18
REMARK    2  A    between atoms: C_18  and  N_19
REMARK    3  A    between atoms: N_19  and  C_22
REMARK                            x       y       z     vdW  Elec       q    Type
REMARK                         _______ _______ _______ _____ _____    ______ ____
ROOT
ATOM      1  N   UNL     1      36.800 -20.965 -18.759  0.00  0.00    -0.182 NA
ATOM      2  N   UNL     1      36.328 -22.304 -16.931  0.00  0.00    -0.273 NA
ATOM      3  N   UNL     1      34.087 -23.050 -16.462  0.00  0.00    -0.312 NA
ATOM      4  N   UNL     1      32.309 -22.448 -17.832  0.00  0.00    -0.332 N 
ATOM      5  N   UNL     1      35.869 -23.662 -15.072  0.00  0.00    -0.283 N 
ATOM      6  C   UNL     1      35.057 -20.267 -20.260  0.00  0.00    +0.010 C 
ATOM      7  C   UNL     1      34.131 -20.955 -19.510  0.00  0.00    -0.009 C 
ATOM      8  C   UNL     1      34.559 -21.654 -18.372  0.00  0.00    +0.115 C 
ATOM      9  C   UNL     1      35.913 -21.641 -18.016  0.00  0.00    +0.104 C 
ATOM     10  C   UNL     1      36.367 -20.295 -19.855  0.00  0.00    +0.107 C 
ATOM     11  C   UNL     1      32.708 -20.906 -19.976  0.00  0.00    +0.032 C 
ATOM     12  C   UNL     1      33.692 -22.376 -17.556  0.00  0.00    +0.201 C 
ATOM     13  C   UNL     1      35.401 -22.973 -16.212  0.00  0.00    +0.206 C 
ATOM     14  H   UNL     1      31.716 -22.965 -17.241  0.00  0.00    +0.145 HD
ATOM     15  H   UNL     1      31.939 -21.980 -18.616  0.00  0.00    +0.145 HD
ATOM     16  H   UNL     1      36.825 -23.640 -14.841  0.00  0.00    +0.156 HD
ATOM     17  H   UNL     1      35.237 -24.167 -14.510  0.00  0.00    +0.156 HD
ENDROOT
BRANCH   6  18
ATOM     18  C   UNL     1      34.680 -19.493 -21.494  0.00  0.00    +0.097 C 
BRANCH  18  19
ATOM     19  N   UNL     1      35.273 -18.195 -21.469  0.00  0.00    -0.288 NA
ATOM     20  H   UNL     1      35.924 -17.987 -20.760  0.00  0.00    +0.124 HD
BRANCH  19  22
ATOM     21  N   UNL     1      34.043 -13.637 -22.672  0.00  0.00    -0.248 NA
ATOM     22  C   UNL     1      34.963 -17.194 -22.421  0.00  0.00    +0.101 C 
ATOM     23  C   UNL     1      34.652 -15.880 -22.035  0.00  0.00    +0.010 C 
ATOM     24  C   UNL     1      34.347 -14.904 -23.007  0.00  0.00    +0.061 C 
ATOM     25  C   UNL     1      34.976 -17.549 -23.768  0.00  0.00    -0.010 C 
ATOM     26  C   UNL     1      34.632 -15.496 -20.687  0.00  0.00    +0.000 C 
ATOM     27  C   UNL     1      34.366 -15.286 -24.346  0.00  0.00    +0.071 C 
ATOM     28  C   UNL     1      34.677 -16.593 -24.730  0.00  0.00    -0.023 C 
ATOM     29  C   UNL     1      34.320 -14.191 -20.338  0.00  0.00    +0.020 C 
ATOM     30  C   UNL     1      34.036 -13.307 -21.359  0.00  0.00    +0.098 C 
ENDBRANCH  19  22
ENDBRANCH  18  19
ENDBRANCH   6  18
TORSDOF 3
ENDMDL
MODEL 8
REMARK VINA RESULT:     -10.6      1.866      8.441
REMARK  Name = 446752
REMARK  3 active torsions:
REMARK  status: ('A' for Active; 'I' for Inactive)
REMARK    1  A    between atoms: C_6  and  C_18
REMARK    2  A    between atoms: C_18  and  N_19
REMARK    3  A    between atoms: N_19  and  C_22
REMARK                            x       y       z     vdW  Elec       q    Type
REMARK                         _______ _______ _______ _____ _____    ______ ____
ROOT
ATOM      1  N   UNL     1      34.622 -16.600 -24.692  0.00  0.00    -0.182 NA
ATOM      2  N   UNL     1      33.849 -14.583 -25.524  0.00  0.00    -0.273 NA
ATOM      3  N   UNL     1      33.447 -12.698 -24.082  0.00  0.00    -0.312 NA
ATOM      4  N   UNL     1      33.819 -12.836 -21.793  0.00  0.00    -0.332 N 
ATOM      5  N   UNL     1      33.066 -12.545 -26.387  0.00  0.00    -0.283 N 
ATOM      6  C   UNL     1      35.050 -16.883 -22.344  0.00  0.00    +0.010 C 
ATOM      7  C   UNL     1      34.662 -15.583 -22.113  0.00  0.00    -0.009 C 
ATOM      8  C   UNL     1      34.251 -14.792 -23.196  0.00  0.00    +0.115 C 
ATOM      9  C   UNL     1      34.241 -15.332 -24.487  0.00  0.00    +0.104 C 
ATOM     10  C   UNL     1      35.015 -17.349 -23.633  0.00  0.00    +0.107 C 
ATOM     11  C   UNL     1      34.710 -15.102 -20.695  0.00  0.00    +0.032 C 
ATOM     12  C   UNL     1      33.843 -13.468 -23.055  0.00  0.00    +0.201 C 
ATOM     13  C   UNL     1      33.474 -13.310 -25.273  0.00  0.00    +0.206 C 
ATOM     14  H   UNL     1      33.527 -11.898 -21.717  0.00  0.00    +0.145 HD
ATOM     15  H   UNL     1      34.094 -13.332 -20.988  0.00  0.00    +0.145 HD
ATOM     16  H   UNL     1      33.066 -12.945 -27.286  0.00  0.00    +0.156 HD
ATOM     17  H   UNL     1      32.781 -11.611 -26.264  0.00  0.00    +0.156 HD
ENDROOT
BRANCH   6  18
ATOM     18  C   UNL     1      35.502 -17.797 -21.238  0.00  0.00    +0.097 C 
BRANCH  18  19
ATOM     19  N   UNL     1      35.168 -19.151 -21.541  0.00  0.00    -0.288 NA
ATOM     20  H   UNL     1      35.432 -19.518 -22.416  0.00  0.00    +0.124 HD
BRANCH  19  22
ATOM     21  N   UNL     1      35.012 -22.143 -17.699  0.00  0.00    -0.248 NA
ATOM     22  C   UNL     1      34.471 -19.988 -20.636  0.00  0.00    +0.101 C 
ATOM     23  C   UNL     1      35.132 -20.658 -19.593  0.00  0.00    +0.010 C 
ATOM     24  C   UNL     1      34.410 -21.486 -18.708  0.00  0.00    +0.061 C 
ATOM     25  C   UNL     1      33.097 -20.131 -20.807  0.00  0.00    -0.010 C 
ATOM     26  C   UNL     1      36.514 -20.531 -19.398  0.00  0.00    +0.000 C 
ATOM     27  C   UNL     1      33.038 -21.613 -18.902  0.00  0.00    +0.071 C 
ATOM     28  C   UNL     1      32.380 -20.945 -19.939  0.00  0.00    -0.023 C 
ATOM     29  C   UNL     1      37.137 -21.206 -18.360  0.00  0.00    +0.020 C 
ATOM     30  C   UNL     1      36.348 -21.993 -17.545  0.00  0.00    +0.098 C 
ENDBRANCH  19  22
ENDBRANCH  18  19
ENDBRANCH   6  18
TORSDOF 3
ENDMDL
MODEL 9
REMARK VINA RESULT:     -10.6      1.945      8.383
REMARK  Name = 446752
REMARK  3 active torsions:
REMARK  status: ('A' for Active; 'I' for Inactive)
REMARK    1  A    between atoms: C_6  and  C_18
REMARK    2  A    between atoms: C_18  and  N_19
REMARK    3  A    between atoms: N_19  and  C_22
REMARK                            x       y       z     vdW  Elec       q    Type
REMARK                         _______ _______ _______ _____ _____    ______ ____
ROOT
ATOM      1  N   UNL     1      32.978 -20.551 -20.613  0.00  0.00    -0.182 NA
ATOM      2  N   UNL     1      33.687 -19.104 -22.275  0.00  0.00    -0.273 NA
ATOM      3  N   UNL     1      35.973 -18.359 -22.405  0.00  0.00    -0.312 NA
ATOM      4  N   UNL     1      37.557 -19.067 -20.860  0.00  0.00    -0.332 N 
ATOM      5  N   UNL     1      34.387 -17.637 -23.969  0.00  0.00    -0.283 N 
ATOM      6  C   UNL     1      34.511 -21.362 -18.949  0.00  0.00    +0.010 C 
ATOM      7  C   UNL     1      35.528 -20.640 -19.527  0.00  0.00    -0.009 C 
ATOM      8  C   UNL     1      35.254 -19.867 -20.665  0.00  0.00    +0.115 C 
ATOM      9  C   UNL     1      33.957 -19.840 -21.191  0.00  0.00    +0.104 C 
ATOM     10  C   UNL     1      33.263 -21.291 -19.514  0.00  0.00    +0.107 C 
ATOM     11  C   UNL     1      36.880 -20.736 -18.888  0.00  0.00    +0.032 C 
ATOM     12  C   UNL     1      36.221 -19.105 -21.316  0.00  0.00    +0.201 C 
ATOM     13  C   UNL     1      34.702 -18.404 -22.826  0.00  0.00    +0.206 C 
ATOM     14  H   UNL     1      38.224 -18.521 -21.336  0.00  0.00    +0.145 HD
ATOM     15  H   UNL     1      37.821 -19.586 -20.065  0.00  0.00    +0.145 HD
ATOM     16  H   UNL     1      33.468 -17.633 -24.322  0.00  0.00    +0.156 HD
ATOM     17  H   UNL     1      35.088 -17.106 -24.413  0.00  0.00    +0.156 HD
ENDROOT
BRANCH   6  18
ATOM     18  C   UNL     1      34.722 -22.215 -17.727  0.00  0.00    +0.097 C 
BRANCH  18  19
ATOM     19  N   UNL     1      33.635 -23.122 -17.557  0.00  0.00    -0.288 NA
ATOM     20  H   UNL     1      33.414 -23.740 -18.293  0.00  0.00    +0.124 HD
BRANCH  19  22
ATOM     21  N   UNL     1      33.131 -23.881 -12.771  0.00  0.00    -0.248 NA
ATOM     22  C   UNL     1      32.857 -23.173 -16.374  0.00  0.00    +0.101 C 
ATOM     23  C   UNL     1      33.422 -23.514 -15.134  0.00  0.00    +0.010 C 
ATOM     24  C   UNL     1      32.622 -23.556 -13.974  0.00  0.00    +0.061 C 
ATOM     25  C   UNL     1      31.502 -22.870 -16.472  0.00  0.00    -0.010 C 
ATOM     26  C   UNL     1      34.783 -23.823 -15.008  0.00  0.00    +0.000 C 
ATOM     27  C   UNL     1      31.270 -23.251 -14.100  0.00  0.00    +0.071 C 
ATOM     28  C   UNL     1      30.708 -22.910 -15.333  0.00  0.00    -0.023 C 
ATOM     29  C   UNL     1      35.311 -24.157 -13.770  0.00  0.00    +0.020 C 
ATOM     30  C   UNL     1      34.450 -24.171 -12.691  0.00  0.00    +0.098 C 
ENDBRANCH  19  22
ENDBRANCH  18  19
ENDBRANCH   6  18
TORSDOF 3
ENDMDL
