MODEL 1
REMARK VINA RESULT:     -11.6      0.000      0.000
REMARK  Name = 3822
REMARK  5 active torsions:
REMARK  status: ('A' for Active; 'I' for Inactive)
REMARK    1  A    between atoms: N_1  and  C_17
REMARK    2  A    between atoms: C_2  and  C_9
REMARK    3  A    between atoms: C_9  and  C_11
REMARK    4  A    between atoms: C_17  and  C_18
REMARK    5  A    between atoms: C_18  and  N_21
REMARK                            x       y       z     vdW  Elec       q    Type
REMARK                         _______ _______ _______ _____ _____    ______ ____
ROOT
ATOM      1  N   UNL     1      35.093 -23.156 -13.160  0.00  0.00    +0.388 N 
ATOM      2  C   UNL     1      37.381 -24.162 -11.617  0.00  0.00    +0.058 C 
ATOM      3  C   UNL     1      37.549 -23.391 -12.926  0.00  0.00    -0.015 C 
ATOM      4  C   UNL     1      36.011 -23.909 -10.990  0.00  0.00    -0.015 C 
ATOM      5  C   UNL     1      36.337 -23.517 -13.853  0.00  0.00    -0.077 C 
ATOM      6  C   UNL     1      34.867 -24.027 -12.001  0.00  0.00    -0.077 C 
ATOM      7  H   UNL     1      35.184 -22.197 -12.823  0.00  0.00    -0.080 HD
ENDROOT
BRANCH   2   9
ATOM      8  O   UNL     1      37.120 -26.455 -11.041  0.00  0.00    -0.291 OA
ATOM      9  C   UNL     1      37.594 -25.634 -11.822  0.00  0.00    +0.172 C 
BRANCH   9  11
ATOM     10  F   UNL     1      40.588 -27.350 -16.212  0.00  0.00    -0.204 F 
ATOM     11  C   UNL     1      38.393 -26.093 -12.994  0.00  0.00    +0.035 C 
ATOM     12  C   UNL     1      37.843 -27.023 -13.847  0.00  0.00    +0.005 C 
ATOM     13  C   UNL     1      39.653 -25.568 -13.181  0.00  0.00    +0.005 C 
ATOM     14  C   UNL     1      38.591 -27.452 -14.944  0.00  0.00    +0.030 C 
ATOM     15  C   UNL     1      40.401 -25.996 -14.277  0.00  0.00    +0.030 C 
ATOM     16  C   UNL     1      39.870 -26.938 -15.159  0.00  0.00    +0.140 C 
ENDBRANCH   9  11
ENDBRANCH   2   9
BRANCH   1  17
ATOM     17  C   UNL     1      33.957 -23.224 -14.080  0.00  0.00    -0.052 C 
BRANCH  17  18
ATOM     18  C   UNL     1      34.375 -23.877 -15.389  0.00  0.00    +0.091 C 
BRANCH  18  21
ATOM     19  O   UNL     1      36.204 -22.570 -17.012  0.00  0.00    -0.267 OA
ATOM     20  O   UNL     1      31.702 -23.513 -16.171  0.00  0.00    -0.246 OA
ATOM     21  N   UNL     1      33.976 -23.082 -16.518  0.00  0.00    -0.251 N 
ATOM     22  N   UNL     1      32.277 -22.183 -17.926  0.00  0.00    -0.306 N 
ATOM     23  C   UNL     1      35.006 -22.462 -17.268  0.00  0.00    +0.265 A 
ATOM     24  C   UNL     1      32.593 -22.964 -16.826  0.00  0.00    +0.330 A 
ATOM     25  C   UNL     1      34.584 -21.648 -18.424  0.00  0.00    +0.072 A 
ATOM     26  C   UNL     1      33.228 -21.533 -18.717  0.00  0.00    +0.065 A 
ATOM     27  C   UNL     1      35.530 -20.995 -19.221  0.00  0.00    +0.006 C 
ATOM     28  C   UNL     1      32.808 -20.766 -19.807  0.00  0.00    +0.017 C 
ATOM     29  C   UNL     1      35.110 -20.228 -20.309  0.00  0.00    +0.000 C 
ATOM     30  C   UNL     1      33.751 -20.115 -20.602  0.00  0.00    +0.001 C 
ATOM     31  H   UNL     1      31.327 -22.080 -18.164  0.00  0.00    +0.170 HD
ENDBRANCH  18  21
ENDBRANCH  17  18
ENDBRANCH   1  17
TORSDOF 5
ENDMDL
MODEL 2
REMARK VINA RESULT:     -11.5      5.162     10.281
REMARK  Name = 3822
REMARK  5 active torsions:
REMARK  status: ('A' for Active; 'I' for Inactive)
REMARK    1  A    between atoms: N_1  and  C_17
REMARK    2  A    between atoms: C_2  and  C_9
REMARK    3  A    between atoms: C_9  and  C_11
REMARK    4  A    between atoms: C_17  and  C_18
REMARK    5  A    between atoms: C_18  and  N_21
REMARK                            x       y       z     vdW  Elec       q    Type
REMARK                         _______ _______ _______ _____ _____    ______ ____
ROOT
ATOM      1  N   UNL     1      35.994 -20.296 -20.151  0.00  0.00    +0.388 N 
ATOM      2  C   UNL     1      35.856 -18.187 -22.190  0.00  0.00    +0.058 C 
ATOM      3  C   UNL     1      37.161 -18.571 -21.493  0.00  0.00    -0.015 C 
ATOM      4  C   UNL     1      34.816 -19.301 -22.085  0.00  0.00    -0.015 C 
ATOM      5  C   UNL     1      36.941 -19.174 -20.103  0.00  0.00    -0.077 C 
ATOM      6  C   UNL     1      34.691 -19.860 -20.665  0.00  0.00    -0.077 C 
ATOM      7  H   UNL     1      36.368 -21.000 -20.788  0.00  0.00    -0.080 HD
ENDROOT
BRANCH   2   9
ATOM      8  O   UNL     1      35.304 -16.687 -20.429  0.00  0.00    -0.291 OA
ATOM      9  C   UNL     1      35.302 -16.906 -21.637  0.00  0.00    +0.172 C 
BRANCH   9  11
ATOM     10  F   UNL     1      33.215 -13.110 -25.160  0.00  0.00    -0.204 F 
ATOM     11  C   UNL     1      34.746 -15.893 -22.578  0.00  0.00    +0.035 C 
ATOM     12  C   UNL     1      34.537 -16.252 -23.891  0.00  0.00    +0.005 C 
ATOM     13  C   UNL     1      34.458 -14.633 -22.099  0.00  0.00    +0.005 C 
ATOM     14  C   UNL     1      34.015 -15.304 -24.771  0.00  0.00    +0.030 C 
ATOM     15  C   UNL     1      33.937 -13.685 -22.979  0.00  0.00    +0.030 C 
ATOM     16  C   UNL     1      33.716 -14.020 -24.315  0.00  0.00    +0.140 C 
ENDBRANCH   9  11
ENDBRANCH   2   9
BRANCH   1  17
ATOM     17  C   UNL     1      35.846 -20.896 -18.824  0.00  0.00    -0.052 C 
BRANCH  17  18
ATOM     18  C   UNL     1      35.231 -22.283 -18.938  0.00  0.00    +0.091 C 
BRANCH  18  21
ATOM     19  O   UNL     1      35.680 -23.063 -16.316  0.00  0.00    -0.267 OA
ATOM     20  O   UNL     1      32.522 -21.857 -19.545  0.00  0.00    -0.246 OA
ATOM     21  N   UNL     1      34.164 -22.458 -17.990  0.00  0.00    -0.251 N 
ATOM     22  N   UNL     1      31.846 -22.405 -17.442  0.00  0.00    -0.306 N 
ATOM     23  C   UNL     1      34.524 -22.862 -16.680  0.00  0.00    +0.265 A 
ATOM     24  C   UNL     1      32.825 -22.216 -18.404  0.00  0.00    +0.330 A 
ATOM     25  C   UNL     1      33.419 -23.041 -15.717  0.00  0.00    +0.072 A 
ATOM     26  C   UNL     1      32.111 -22.806 -16.130  0.00  0.00    +0.065 A 
ATOM     27  C   UNL     1      33.678 -23.441 -14.403  0.00  0.00    +0.006 C 
ATOM     28  C   UNL     1      31.052 -22.970 -15.233  0.00  0.00    +0.017 C 
ATOM     29  C   UNL     1      32.619 -23.606 -13.507  0.00  0.00    +0.000 C 
ATOM     30  C   UNL     1      31.309 -23.370 -13.922  0.00  0.00    +0.001 C 
ATOM     31  H   UNL     1      30.909 -22.246 -17.698  0.00  0.00    +0.170 HD
ENDBRANCH  18  21
ENDBRANCH  17  18
ENDBRANCH   1  17
TORSDOF 5
ENDMDL
MODEL 3
REMARK VINA RESULT:     -11.4      5.108     10.343
REMARK  Name = 3822
REMARK  5 active torsions:
REMARK  status: ('A' for Active; 'I' for Inactive)
REMARK    1  A    between atoms: N_1  and  C_17
REMARK    2  A    between atoms: C_2  and  C_9
REMARK    3  A    between atoms: C_9  and  C_11
REMARK    4  A    between atoms: C_17  and  C_18
REMARK    5  A    between atoms: C_18  and  N_21
REMARK                            x       y       z     vdW  Elec       q    Type
REMARK                         _______ _______ _______ _____ _____    ______ ____
ROOT
ATOM      1  N   UNL     1      36.018 -20.357 -20.135  0.00  0.00    +0.388 N 
ATOM      2  C   UNL     1      35.818 -18.260 -22.182  0.00  0.00    +0.058 C 
ATOM      3  C   UNL     1      37.145 -18.649 -21.532  0.00  0.00    -0.015 C 
ATOM      4  C   UNL     1      34.775 -19.367 -22.031  0.00  0.00    -0.015 C 
ATOM      5  C   UNL     1      36.973 -19.241 -20.131  0.00  0.00    -0.077 C 
ATOM      6  C   UNL     1      34.699 -19.915 -20.603  0.00  0.00    -0.077 C 
ATOM      7  H   UNL     1      36.362 -21.067 -20.781  0.00  0.00    -0.080 HD
ENDROOT
BRANCH   2   9
ATOM      8  O   UNL     1      35.315 -16.757 -20.409  0.00  0.00    -0.291 OA
ATOM      9  C   UNL     1      35.293 -16.972 -21.618  0.00  0.00    +0.172 C 
BRANCH   9  11
ATOM     10  F   UNL     1      33.228 -13.127 -25.102  0.00  0.00    -0.204 F 
ATOM     11  C   UNL     1      34.743 -15.946 -22.549  0.00  0.00    +0.035 C 
ATOM     12  C   UNL     1      34.503 -16.299 -23.857  0.00  0.00    +0.005 C 
ATOM     13  C   UNL     1      34.491 -14.681 -22.063  0.00  0.00    +0.005 C 
ATOM     14  C   UNL     1      33.988 -15.339 -24.728  0.00  0.00    +0.030 C 
ATOM     15  C   UNL     1      33.975 -13.720 -22.934  0.00  0.00    +0.030 C 
ATOM     16  C   UNL     1      33.724 -14.049 -24.266  0.00  0.00    +0.140 C 
ENDBRANCH   9  11
ENDBRANCH   2   9
BRANCH   1  17
ATOM     17  C   UNL     1      35.915 -20.946 -18.799  0.00  0.00    -0.052 C 
BRANCH  17  18
ATOM     18  C   UNL     1      35.125 -22.245 -18.855  0.00  0.00    +0.091 C 
BRANCH  18  21
ATOM     19  O   UNL     1      32.366 -22.379 -18.614  0.00  0.00    -0.267 OA
ATOM     20  O   UNL     1      36.496 -22.694 -16.445  0.00  0.00    -0.246 OA
ATOM     21  N   UNL     1      34.471 -22.511 -17.603  0.00  0.00    -0.251 N 
ATOM     22  N   UNL     1      34.569 -22.973 -15.267  0.00  0.00    -0.306 N 
ATOM     23  C   UNL     1      33.054 -22.552 -17.610  0.00  0.00    +0.265 A 
ATOM     24  C   UNL     1      35.262 -22.723 -16.441  0.00  0.00    +0.330 A 
ATOM     25  C   UNL     1      32.394 -22.824 -16.318  0.00  0.00    +0.072 A 
ATOM     26  C   UNL     1      33.175 -23.026 -15.184  0.00  0.00    +0.065 A 
ATOM     27  C   UNL     1      31.000 -22.879 -16.227  0.00  0.00    +0.006 C 
ATOM     28  C   UNL     1      32.569 -23.284 -13.951  0.00  0.00    +0.017 C 
ATOM     29  C   UNL     1      30.395 -23.136 -14.995  0.00  0.00    +0.000 C 
ATOM     30  C   UNL     1      31.179 -23.339 -13.860  0.00  0.00    +0.001 C 
ATOM     31  H   UNL     1      35.089 -23.123 -14.445  0.00  0.00    +0.170 HD
ENDBRANCH  18  21
ENDBRANCH  17  18
ENDBRANCH   1  17
TORSDOF 5
ENDMDL
MODEL 4
REMARK VINA RESULT:     -11.1      8.657     12.500
REMARK  Name = 3822
REMARK  5 active torsions:
REMARK  status: ('A' for Active; 'I' for Inactive)
REMARK    1  A    between atoms: N_1  and  C_17
REMARK    2  A    between atoms: C_2  and  C_9
REMARK    3  A    between atoms: C_9  and  C_11
REMARK    4  A    between atoms: C_17  and  C_18
REMARK    5  A    between atoms: C_18  and  N_21
REMARK                            x       y       z     vdW  Elec       q    Type
REMARK                         _______ _______ _______ _____ _____    ______ ____
ROOT
ATOM      1  N   UNL     1      34.532 -14.892 -22.412  0.00  0.00    +0.388 N 
ATOM      2  C   UNL     1      35.402 -17.613 -23.094  0.00  0.00    +0.058 C 
ATOM      3  C   UNL     1      34.950 -16.607 -24.151  0.00  0.00    -0.015 C 
ATOM      4  C   UNL     1      35.814 -16.916 -21.798  0.00  0.00    -0.015 C 
ATOM      5  C   UNL     1      33.981 -15.556 -23.601  0.00  0.00    -0.077 C 
ATOM      6  C   UNL     1      34.798 -15.864 -21.345  0.00  0.00    -0.077 C 
ATOM      7  H   UNL     1      35.417 -14.457 -22.673  0.00  0.00    -0.080 HD
ENDROOT
BRANCH   2   9
ATOM      8  O   UNL     1      33.393 -18.782 -23.595  0.00  0.00    -0.291 OA
ATOM      9  C   UNL     1      34.333 -18.631 -22.820  0.00  0.00    +0.172 C 
BRANCH   9  11
ATOM     10  F   UNL     1      34.681 -21.751 -18.202  0.00  0.00    -0.204 F 
ATOM     11  C   UNL     1      34.426 -19.463 -21.587  0.00  0.00    +0.035 C 
ATOM     12  C   UNL     1      33.262 -19.862 -20.969  0.00  0.00    +0.005 C 
ATOM     13  C   UNL     1      35.673 -19.804 -21.112  0.00  0.00    +0.005 C 
ATOM     14  C   UNL     1      33.349 -20.642 -19.815  0.00  0.00    +0.030 C 
ATOM     15  C   UNL     1      35.760 -20.584 -19.958  0.00  0.00    +0.030 C 
ATOM     16  C   UNL     1      34.598 -21.002 -19.309  0.00  0.00    +0.140 C 
ENDBRANCH   9  11
ENDBRANCH   2   9
BRANCH   1  17
ATOM     17  C   UNL     1      33.618 -13.851 -21.939  0.00  0.00    -0.052 C 
BRANCH  17  18
ATOM     18  C   UNL     1      33.074 -13.053 -23.114  0.00  0.00    +0.091 C 
BRANCH  18  21
ATOM     19  O   UNL     1      34.659 -11.175 -24.397  0.00  0.00    -0.267 OA
ATOM     20  O   UNL     1      31.345 -11.954 -21.193  0.00  0.00    -0.246 OA
ATOM     21  N   UNL     1      33.012 -11.650 -22.806  0.00  0.00    -0.251 N 
ATOM     22  N   UNL     1      32.091  -9.836 -21.565  0.00  0.00    -0.306 N 
ATOM     23  C   UNL     1      33.876 -10.791 -23.531  0.00  0.00    +0.265 A 
ATOM     24  C   UNL     1      32.099 -11.200 -21.813  0.00  0.00    +0.330 A 
ATOM     25  C   UNL     1      33.804  -9.353 -23.205  0.00  0.00    +0.072 A 
ATOM     26  C   UNL     1      32.912  -8.920 -22.229  0.00  0.00    +0.065 A 
ATOM     27  C   UNL     1      34.621  -8.431 -23.865  0.00  0.00    +0.006 C 
ATOM     28  C   UNL     1      32.830  -7.563 -21.906  0.00  0.00    +0.017 C 
ATOM     29  C   UNL     1      34.540  -7.075 -23.542  0.00  0.00    +0.000 C 
ATOM     30  C   UNL     1      33.645  -6.643 -22.564  0.00  0.00    +0.001 C 
ATOM     31  H   UNL     1      31.471  -9.493 -20.882  0.00  0.00    +0.170 HD
ENDBRANCH  18  21
ENDBRANCH  17  18
ENDBRANCH   1  17
TORSDOF 5
ENDMDL
MODEL 5
REMARK VINA RESULT:     -10.9      7.747     11.452
REMARK  Name = 3822
REMARK  5 active torsions:
REMARK  status: ('A' for Active; 'I' for Inactive)
REMARK    1  A    between atoms: N_1  and  C_17
REMARK    2  A    between atoms: C_2  and  C_9
REMARK    3  A    between atoms: C_9  and  C_11
REMARK    4  A    between atoms: C_17  and  C_18
REMARK    5  A    between atoms: C_18  and  N_21
REMARK                            x       y       z     vdW  Elec       q    Type
REMARK                         _______ _______ _______ _____ _____    ______ ____
ROOT
ATOM      1  N   UNL     1      35.230 -15.787 -21.828  0.00  0.00    +0.388 N 
ATOM      2  C   UNL     1      35.538 -18.665 -22.323  0.00  0.00    +0.058 C 
ATOM      3  C   UNL     1      35.292 -17.661 -23.449  0.00  0.00    -0.015 C 
ATOM      4  C   UNL     1      36.084 -17.982 -21.071  0.00  0.00    -0.015 C 
ATOM      5  C   UNL     1      34.555 -16.404 -22.977  0.00  0.00    -0.077 C 
ATOM      6  C   UNL     1      35.300 -16.720 -20.698  0.00  0.00    -0.077 C 
ATOM      7  H   UNL     1      36.184 -15.555 -22.108  0.00  0.00    -0.080 HD
ENDROOT
BRANCH   2   9
ATOM      8  O   UNL     1      33.313 -19.395 -22.742  0.00  0.00    -0.291 OA
ATOM      9  C   UNL     1      34.288 -19.429 -21.995  0.00  0.00    +0.172 C 
BRANCH   9  11
ATOM     10  F   UNL     1      34.114 -22.456 -17.306  0.00  0.00    -0.204 F 
ATOM     11  C   UNL     1      34.241 -20.237 -20.743  0.00  0.00    +0.035 C 
ATOM     12  C   UNL     1      33.020 -20.472 -20.153  0.00  0.00    +0.005 C 
ATOM     13  C   UNL     1      35.422 -20.719 -20.224  0.00  0.00    +0.005 C 
ATOM     14  C   UNL     1      32.976 -21.228 -18.981  0.00  0.00    +0.030 C 
ATOM     15  C   UNL     1      35.379 -21.475 -19.052  0.00  0.00    +0.030 C 
ATOM     16  C   UNL     1      34.156 -21.730 -18.431  0.00  0.00    +0.140 C 
ENDBRANCH   9  11
ENDBRANCH   2   9
BRANCH   1  17
ATOM     17  C   UNL     1      34.545 -14.556 -21.433  0.00  0.00    -0.052 C 
BRANCH  17  18
ATOM     18  C   UNL     1      33.614 -14.090 -22.543  0.00  0.00    +0.091 C 
BRANCH  18  21
ATOM     19  O   UNL     1      34.190 -11.876 -24.108  0.00  0.00    -0.267 OA
ATOM     20  O   UNL     1      31.891 -13.542 -20.393  0.00  0.00    -0.246 OA
ATOM     21  N   UNL     1      33.080 -12.786 -22.262  0.00  0.00    -0.251 N 
ATOM     22  N   UNL     1      31.738 -11.335 -20.930  0.00  0.00    -0.306 N 
ATOM     23  C   UNL     1      33.451 -11.733 -23.135  0.00  0.00    +0.265 A 
ATOM     24  C   UNL     1      32.215 -12.618 -21.145  0.00  0.00    +0.330 A 
ATOM     25  C   UNL     1      32.898 -10.398 -22.835  0.00  0.00    +0.072 A 
ATOM     26  C   UNL     1      32.057 -10.241 -21.738  0.00  0.00    +0.065 A 
ATOM     27  C   UNL     1      33.213  -9.299 -23.639  0.00  0.00    +0.006 C 
ATOM     28  C   UNL     1      31.524  -8.985 -21.437  0.00  0.00    +0.017 C 
ATOM     29  C   UNL     1      32.680  -8.044 -23.338  0.00  0.00    +0.000 C 
ATOM     30  C   UNL     1      31.837  -7.888 -22.239  0.00  0.00    +0.001 C 
ATOM     31  H   UNL     1      31.138 -11.187 -20.163  0.00  0.00    +0.170 HD
ENDBRANCH  18  21
ENDBRANCH  17  18
ENDBRANCH   1  17
TORSDOF 5
ENDMDL
MODEL 6
REMARK VINA RESULT:     -10.6      4.682      6.953
REMARK  Name = 3822
REMARK  5 active torsions:
REMARK  status: ('A' for Active; 'I' for Inactive)
REMARK    1  A    between atoms: N_1  and  C_17
REMARK    2  A    between atoms: C_2  and  C_9
REMARK    3  A    between atoms: C_9  and  C_11
REMARK    4  A    between atoms: C_17  and  C_18
REMARK    5  A    between atoms: C_18  and  N_21
REMARK                            x       y       z     vdW  Elec       q    Type
REMARK                         _______ _______ _______ _____ _____    ______ ____
ROOT
ATOM      1  N   UNL     1      33.160 -23.147 -13.895  0.00  0.00    +0.388 N 
ATOM      2  C   UNL     1      30.544 -24.273 -13.179  0.00  0.00    +0.058 C 
ATOM      3  C   UNL     1      31.854 -25.022 -12.938  0.00  0.00    -0.015 C 
ATOM      4  C   UNL     1      30.779 -22.772 -13.341  0.00  0.00    -0.015 C 
ATOM      5  C   UNL     1      32.968 -24.603 -13.901  0.00  0.00    -0.077 C 
ATOM      6  C   UNL     1      31.931 -22.454 -14.299  0.00  0.00    -0.077 C 
ATOM      7  H   UNL     1      33.388 -22.861 -12.943  0.00  0.00    -0.080 HD
ENDROOT
BRANCH   2   9
ATOM      8  O   UNL     1      30.021 -25.964 -14.767  0.00  0.00    -0.291 OA
ATOM      9  C   UNL     1      29.819 -24.817 -14.376  0.00  0.00    +0.172 C 
BRANCH   9  11
ATOM     10  F   UNL     1      26.170 -21.549 -17.056  0.00  0.00    -0.204 F 
ATOM     11  C   UNL     1      28.845 -23.945 -15.091  0.00  0.00    +0.035 C 
ATOM     12  C   UNL     1      28.144 -23.005 -14.369  0.00  0.00    +0.005 C 
ATOM     13  C   UNL     1      28.683 -24.110 -16.449  0.00  0.00    +0.005 C 
ATOM     14  C   UNL     1      27.232 -22.189 -15.039  0.00  0.00    +0.030 C 
ATOM     15  C   UNL     1      27.771 -23.294 -17.119  0.00  0.00    +0.030 C 
ATOM     16  C   UNL     1      27.046 -22.333 -16.414  0.00  0.00    +0.140 C 
ENDBRANCH   9  11
ENDBRANCH   2   9
BRANCH   1  17
ATOM     17  C   UNL     1      34.269 -22.775 -14.775  0.00  0.00    -0.052 C 
BRANCH  17  18
ATOM     18  C   UNL     1      34.206 -23.569 -16.070  0.00  0.00    +0.091 C 
BRANCH  18  21
ATOM     19  O   UNL     1      36.375 -22.347 -17.290  0.00  0.00    -0.267 OA
ATOM     20  O   UNL     1      31.740 -22.965 -17.273  0.00  0.00    -0.246 OA
ATOM     21  N   UNL     1      34.065 -22.701 -17.207  0.00  0.00    -0.251 N 
ATOM     22  N   UNL     1      32.702 -21.615 -18.833  0.00  0.00    -0.306 N 
ATOM     23  C   UNL     1      35.250 -22.135 -17.739  0.00  0.00    +0.265 A 
ATOM     24  C   UNL     1      32.767 -22.462 -17.738  0.00  0.00    +0.330 A 
ATOM     25  C   UNL     1      35.092 -21.244 -18.905  0.00  0.00    +0.072 A 
ATOM     26  C   UNL     1      33.819 -21.011 -19.416  0.00  0.00    +0.065 A 
ATOM     27  C   UNL     1      36.205 -20.636 -19.494  0.00  0.00    +0.006 C 
ATOM     28  C   UNL     1      33.649 -20.170 -20.519  0.00  0.00    +0.017 C 
ATOM     29  C   UNL     1      36.035 -19.796 -20.596  0.00  0.00    +0.000 C 
ATOM     30  C   UNL     1      34.758 -19.564 -21.107  0.00  0.00    +0.001 C 
ATOM     31  H   UNL     1      31.818 -21.429 -19.222  0.00  0.00    +0.170 HD
ENDBRANCH  18  21
ENDBRANCH  17  18
ENDBRANCH   1  17
TORSDOF 5
ENDMDL
MODEL 7
REMARK VINA RESULT:     -10.6      8.345     12.232
REMARK  Name = 3822
REMARK  5 active torsions:
REMARK  status: ('A' for Active; 'I' for Inactive)
REMARK    1  A    between atoms: N_1  and  C_17
REMARK    2  A    between atoms: C_2  and  C_9
REMARK    3  A    between atoms: C_9  and  C_11
REMARK    4  A    between atoms: C_17  and  C_18
REMARK    5  A    between atoms: C_18  and  N_21
REMARK                            x       y       z     vdW  Elec       q    Type
REMARK                         _______ _______ _______ _____ _____    ______ ____
ROOT
ATOM      1  N   UNL     1      34.809 -15.208 -22.246  0.00  0.00    +0.388 N 
ATOM      2  C   UNL     1      35.466 -18.002 -22.869  0.00  0.00    +0.058 C 
ATOM      3  C   UNL     1      35.100 -16.984 -23.949  0.00  0.00    -0.015 C 
ATOM      4  C   UNL     1      35.925 -17.314 -21.584  0.00  0.00    -0.015 C 
ATOM      5  C   UNL     1      34.214 -15.851 -23.425  0.00  0.00    -0.077 C 
ATOM      6  C   UNL     1      34.993 -16.176 -21.158  0.00  0.00    -0.077 C 
ATOM      7  H   UNL     1      35.727 -14.848 -22.510  0.00  0.00    -0.080 HD
ENDROOT
BRANCH   2   9
ATOM      8  O   UNL     1      33.368 -19.011 -23.354  0.00  0.00    -0.291 OA
ATOM      9  C   UNL     1      34.320 -18.927 -22.581  0.00  0.00    +0.172 C 
BRANCH   9  11
ATOM     10  F   UNL     1      34.425 -22.013 -17.929  0.00  0.00    -0.204 F 
ATOM     11  C   UNL     1      34.347 -19.750 -21.339  0.00  0.00    +0.035 C 
ATOM     12  C   UNL     1      33.155 -20.068 -20.729  0.00  0.00    +0.005 C 
ATOM     13  C   UNL     1      35.566 -20.164 -20.848  0.00  0.00    +0.005 C 
ATOM     14  C   UNL     1      33.181 -20.839 -19.567  0.00  0.00    +0.030 C 
ATOM     15  C   UNL     1      35.593 -20.935 -19.686  0.00  0.00    +0.030 C 
ATOM     16  C   UNL     1      34.400 -21.273 -19.045  0.00  0.00    +0.140 C 
ENDBRANCH   9  11
ENDBRANCH   2   9
BRANCH   1  17
ATOM     17  C   UNL     1      33.978 -14.089 -21.800  0.00  0.00    -0.052 C 
BRANCH  17  18
ATOM     18  C   UNL     1      33.098 -13.597 -22.939  0.00  0.00    +0.091 C 
BRANCH  18  21
ATOM     19  O   UNL     1      31.876 -12.004 -21.028  0.00  0.00    -0.267 OA
ATOM     20  O   UNL     1      34.337 -12.146 -25.000  0.00  0.00    -0.246 OA
ATOM     21  N   UNL     1      33.098 -12.162 -23.015  0.00  0.00    -0.251 N 
ATOM     22  N   UNL     1      33.718 -10.142 -24.117  0.00  0.00    -0.306 N 
ATOM     23  C   UNL     1      32.437 -11.460 -21.976  0.00  0.00    +0.265 A 
ATOM     24  C   UNL     1      33.757 -11.527 -24.104  0.00  0.00    +0.330 A 
ATOM     25  C   UNL     1      32.443  -9.986 -22.066  0.00  0.00    +0.072 A 
ATOM     26  C   UNL     1      33.085  -9.372 -23.137  0.00  0.00    +0.065 A 
ATOM     27  C   UNL     1      31.812  -9.210 -21.090  0.00  0.00    +0.006 C 
ATOM     28  C   UNL     1      33.101  -7.979 -23.241  0.00  0.00    +0.017 C 
ATOM     29  C   UNL     1      31.828  -7.818 -21.193  0.00  0.00    +0.000 C 
ATOM     30  C   UNL     1      32.472  -7.204 -22.267  0.00  0.00    +0.001 C 
ATOM     31  H   UNL     1      34.164  -9.673 -24.859  0.00  0.00    +0.170 HD
ENDBRANCH  18  21
ENDBRANCH  17  18
ENDBRANCH   1  17
TORSDOF 5
ENDMDL
MODEL 8
REMARK VINA RESULT:     -10.6     10.952     15.890
REMARK  Name = 3822
REMARK  5 active torsions:
REMARK  status: ('A' for Active; 'I' for Inactive)
REMARK    1  A    between atoms: N_1  and  C_17
REMARK    2  A    between atoms: C_2  and  C_9
REMARK    3  A    between atoms: C_9  and  C_11
REMARK    4  A    between atoms: C_17  and  C_18
REMARK    5  A    between atoms: C_18  and  N_21
REMARK                            x       y       z     vdW  Elec       q    Type
REMARK                         _______ _______ _______ _____ _____    ______ ____
ROOT
ATOM      1  N   UNL     1      31.914 -11.626 -21.157  0.00  0.00    +0.388 N 
ATOM      2  C   UNL     1      31.348  -8.758 -20.878  0.00  0.00    +0.058 C 
ATOM      3  C   UNL     1      31.425  -9.450 -22.238  0.00  0.00    -0.015 C 
ATOM      4  C   UNL     1      31.100  -9.760 -19.752  0.00  0.00    -0.015 C 
ATOM      5  C   UNL     1      32.313 -10.697 -22.224  0.00  0.00    -0.077 C 
ATOM      6  C   UNL     1      32.014 -10.985 -19.841  0.00  0.00    -0.077 C 
ATOM      7  H   UNL     1      30.940 -11.886 -21.311  0.00  0.00    -0.080 HD
ENDROOT
BRANCH   2   9
ATOM      8  O   UNL     1      33.112  -7.974 -19.489  0.00  0.00    -0.291 OA
ATOM      9  C   UNL     1      32.591  -7.963 -20.601  0.00  0.00    +0.172 C 
BRANCH   9  11
ATOM     10  F   UNL     1      34.838  -4.929 -24.716  0.00  0.00    -0.204 F 
ATOM     11  C   UNL     1      33.191  -7.153 -21.699  0.00  0.00    +0.035 C 
ATOM     12  C   UNL     1      34.388  -7.561 -22.244  0.00  0.00    +0.005 C 
ATOM     13  C   UNL     1      32.525  -6.027 -22.130  0.00  0.00    +0.005 C 
ATOM     14  C   UNL     1      34.950  -6.803 -23.272  0.00  0.00    +0.030 C 
ATOM     15  C   UNL     1      33.086  -5.269 -23.158  0.00  0.00    +0.030 C 
ATOM     16  C   UNL     1      34.299  -5.657 -23.729  0.00  0.00    +0.140 C 
ENDBRANCH   9  11
ENDBRANCH   2   9
BRANCH   1  17
ATOM     17  C   UNL     1      32.735 -12.836 -21.201  0.00  0.00    -0.052 C 
BRANCH  17  18
ATOM     18  C   UNL     1      33.544 -12.881 -22.488  0.00  0.00    +0.091 C 
BRANCH  18  21
ATOM     19  O   UNL     1      34.687 -14.591 -20.629  0.00  0.00    -0.267 OA
ATOM     20  O   UNL     1      33.211 -14.029 -25.029  0.00  0.00    -0.246 OA
ATOM     21  N   UNL     1      33.934 -14.226 -22.812  0.00  0.00    -0.251 N 
ATOM     22  N   UNL     1      34.119 -16.012 -24.379  0.00  0.00    -0.306 N 
ATOM     23  C   UNL     1      34.509 -15.000 -21.774  0.00  0.00    +0.265 A 
ATOM     24  C   UNL     1      33.720 -14.708 -24.133  0.00  0.00    +0.330 A 
ATOM     25  C   UNL     1      34.906 -16.379 -22.120  0.00  0.00    +0.072 A 
ATOM     26  C   UNL     1      34.698 -16.842 -23.416  0.00  0.00    +0.065 A 
ATOM     27  C   UNL     1      35.486 -17.216 -21.162  0.00  0.00    +0.006 C 
ATOM     28  C   UNL     1      35.068 -18.145 -23.764  0.00  0.00    +0.017 C 
ATOM     29  C   UNL     1      35.856 -18.516 -21.510  0.00  0.00    +0.000 C 
ATOM     30  C   UNL     1      35.647 -18.980 -22.808  0.00  0.00    +0.001 C 
ATOM     31  H   UNL     1      33.985 -16.374 -25.284  0.00  0.00    +0.170 HD
ENDBRANCH  18  21
ENDBRANCH  17  18
ENDBRANCH   1  17
TORSDOF 5
ENDMDL
MODEL 9
REMARK VINA RESULT:     -10.5      4.673      7.307
REMARK  Name = 3822
REMARK  5 active torsions:
REMARK  status: ('A' for Active; 'I' for Inactive)
REMARK    1  A    between atoms: N_1  and  C_17
REMARK    2  A    between atoms: C_2  and  C_9
REMARK    3  A    between atoms: C_9  and  C_11
REMARK    4  A    between atoms: C_17  and  C_18
REMARK    5  A    between atoms: C_18  and  N_21
REMARK                            x       y       z     vdW  Elec       q    Type
REMARK                         _______ _______ _______ _____ _____    ______ ____
ROOT
ATOM      1  N   UNL     1      33.105 -23.141 -13.903  0.00  0.00    +0.388 N 
ATOM      2  C   UNL     1      30.369 -24.040 -13.325  0.00  0.00    +0.058 C 
ATOM      3  C   UNL     1      31.600 -24.871 -12.963  0.00  0.00    -0.015 C 
ATOM      4  C   UNL     1      30.727 -22.569 -13.530  0.00  0.00    -0.015 C 
ATOM      5  C   UNL     1      32.804 -24.578 -13.863  0.00  0.00    -0.077 C 
ATOM      6  C   UNL     1      31.961 -22.380 -14.417  0.00  0.00    -0.077 C 
ATOM      7  H   UNL     1      33.290 -22.829 -12.949  0.00  0.00    -0.080 HD
ENDROOT
BRANCH   2   9
ATOM      8  O   UNL     1      29.954 -25.704 -14.972  0.00  0.00    -0.291 OA
ATOM      9  C   UNL     1      29.686 -24.584 -14.546  0.00  0.00    +0.172 C 
BRANCH   9  11
ATOM     10  F   UNL     1      25.880 -21.436 -17.150  0.00  0.00    -0.204 F 
ATOM     11  C   UNL     1      28.670 -23.743 -15.242  0.00  0.00    +0.035 C 
ATOM     12  C   UNL     1      28.569 -23.826 -16.612  0.00  0.00    +0.005 C 
ATOM     13  C   UNL     1      27.869 -22.916 -14.486  0.00  0.00    +0.005 C 
ATOM     14  C   UNL     1      27.619 -23.039 -17.263  0.00  0.00    +0.030 C 
ATOM     15  C   UNL     1      26.918 -22.130 -15.137  0.00  0.00    +0.030 C 
ATOM     16  C   UNL     1      26.792 -22.191 -16.525  0.00  0.00    +0.140 C 
ENDBRANCH   9  11
ENDBRANCH   2   9
BRANCH   1  17
ATOM     17  C   UNL     1      34.294 -22.890 -14.718  0.00  0.00    -0.052 C 
BRANCH  17  18
ATOM     18  C   UNL     1      34.143 -23.539 -16.086  0.00  0.00    +0.091 C 
BRANCH  18  21
ATOM     19  O   UNL     1      32.343 -22.516 -17.930  0.00  0.00    -0.267 OA
ATOM     20  O   UNL     1      36.778 -22.639 -16.455  0.00  0.00    -0.246 OA
ATOM     21  N   UNL     1      34.539 -22.639 -17.135  0.00  0.00    -0.251 N 
ATOM     22  N   UNL     1      36.216 -21.380 -18.266  0.00  0.00    -0.306 N 
ATOM     23  C   UNL     1      33.524 -22.188 -18.016  0.00  0.00    +0.265 A 
ATOM     24  C   UNL     1      35.902 -22.247 -17.231  0.00  0.00    +0.330 A 
ATOM     25  C   UNL     1      33.943 -21.266 -19.090  0.00  0.00    +0.072 A 
ATOM     26  C   UNL     1      35.280 -20.890 -19.181  0.00  0.00    +0.065 A 
ATOM     27  C   UNL     1      33.013 -20.772 -20.009  0.00  0.00    +0.006 C 
ATOM     28  C   UNL     1      35.697 -20.019 -20.191  0.00  0.00    +0.017 C 
ATOM     29  C   UNL     1      33.429 -19.902 -21.018  0.00  0.00    +0.000 C 
ATOM     30  C   UNL     1      34.769 -19.526 -21.108  0.00  0.00    +0.001 C 
ATOM     31  H   UNL     1      37.152 -21.091 -18.360  0.00  0.00    +0.170 HD
ENDBRANCH  18  21
ENDBRANCH  17  18
ENDBRANCH   1  17
TORSDOF 5
ENDMDL
