MODEL 1
REMARK VINA RESULT:     -11.6      0.000      0.000
REMARK  Name = 42628063
REMARK  6 active torsions:
REMARK  status: ('A' for Active; 'I' for Inactive)
REMARK    1  A    between atoms: C_1  and  N_3
REMARK    2  A    between atoms: C_1  and  C_21
REMARK    3  A    between atoms: C_4  and  N_10
REMARK    4  A    between atoms: C_11  and  C_15
REMARK    5  A    between atoms: N_20  and  C_24
REMARK    6  A    between atoms: C_27  and  N_31
REMARK                            x       y       z     vdW  Elec       q    Type
REMARK                         _______ _______ _______ _____ _____    ______ ____
ROOT
ATOM      1  C   UNL     1      34.074 -17.489 -24.148  0.00  0.00    +0.010 C 
ENDROOT
BRANCH   1   3
ATOM      2  F   UNL     1      37.167 -18.339 -21.024  0.00  0.00    -0.238 F 
ATOM      3  N   UNL     1      34.942 -18.168 -23.197  0.00  0.00    +0.396 N 
ATOM      4  C   UNL     1      35.257 -19.640 -21.435  0.00  0.00    +0.082 C 
ATOM      5  C   UNL     1      35.809 -18.280 -21.017  0.00  0.00    +0.156 C 
ATOM      6  C   UNL     1      34.295 -19.322 -22.573  0.00  0.00    -0.054 C 
ATOM      7  C   UNL     1      35.342 -17.299 -22.084  0.00  0.00    -0.039 C 
ATOM      8  H   UNL     1      35.747 -18.449 -23.756  0.00  0.00    -0.079 HD
BRANCH   4  10
ATOM      9  O   UNL     1      36.511 -21.360 -19.509  0.00  0.00    -0.270 OA
ATOM     10  N   UNL     1      34.610 -20.338 -20.359  0.00  0.00    -0.302 N 
ATOM     11  C   UNL     1      35.301 -21.154 -19.470  0.00  0.00    +0.252 C 
ATOM     12  H   UNL     1      33.639 -20.234 -20.246  0.00  0.00    +0.150 HD
BRANCH  11  15
ATOM     13 CL   UNL     1      33.729 -23.758 -14.851  0.00  0.00    -0.075 Cl
ATOM     14  S   UNL     1      35.251 -22.406 -17.011  0.00  0.00    -0.071 S 
ATOM     15  C   UNL     1      34.484 -21.825 -18.427  0.00  0.00    +0.084 C 
ATOM     16  C   UNL     1      33.128 -22.067 -18.416  0.00  0.00    +0.012 C 
ATOM     17  C   UNL     1      32.713 -22.739 -17.230  0.00  0.00    +0.019 C 
ATOM     18  C   UNL     1      33.769 -22.984 -16.379  0.00  0.00    +0.087 C 
ENDBRANCH  11  15
ENDBRANCH   4  10
ENDBRANCH   1   3
BRANCH   1  21
ATOM     19  O   UNL     1      35.539 -15.674 -24.766  0.00  0.00    -0.277 OA
ATOM     20  N   UNL     1      33.498 -15.213 -23.700  0.00  0.00    -0.284 N 
ATOM     21  C   UNL     1      34.483 -16.029 -24.252  0.00  0.00    +0.205 C 
ATOM     22  H   UNL     1      32.708 -15.671 -23.334  0.00  0.00    +0.155 HD
BRANCH  20  24
ATOM     23  F   UNL     1      33.557 -13.598 -25.972  0.00  0.00    -0.203 F 
ATOM     24  C   UNL     1      33.502 -13.801 -23.605  0.00  0.00    +0.078 C 
ATOM     25  C   UNL     1      33.532 -13.021 -24.761  0.00  0.00    +0.155 C 
ATOM     26  C   UNL     1      33.476 -13.189 -22.352  0.00  0.00    +0.018 C 
ATOM     27  C   UNL     1      33.509 -11.018 -23.412  0.00  0.00    +0.061 C 
ATOM     28  C   UNL     1      33.535 -11.630 -24.665  0.00  0.00    +0.046 C 
ATOM     29  C   UNL     1      33.479 -11.797 -22.255  0.00  0.00    +0.017 C 
BRANCH  27  31
ATOM     30  O   UNL     1      31.362  -9.412 -22.327  0.00  0.00    -0.269 OA
ATOM     31  N   UNL     1      33.513  -9.571 -23.311  0.00  0.00    -0.233 N 
ATOM     32  C   UNL     1      32.377  -8.895 -22.794  0.00  0.00    +0.257 C 
ATOM     33  C   UNL     1      34.635  -8.836 -23.699  0.00  0.00    +0.072 C 
ATOM     34  C   UNL     1      32.445  -7.402 -22.768  0.00  0.00    +0.059 C 
ATOM     35  C   UNL     1      34.685  -7.502 -23.635  0.00  0.00    +0.017 C 
ATOM     36  C   UNL     1      33.552  -6.765 -23.162  0.00  0.00    +0.006 C 
ENDBRANCH  27  31
ENDBRANCH  20  24
ENDBRANCH   1  21
TORSDOF 6
ENDMDL
MODEL 2
REMARK VINA RESULT:     -11.0      5.963      9.645
REMARK  Name = 42628063
REMARK  6 active torsions:
REMARK  status: ('A' for Active; 'I' for Inactive)
REMARK    1  A    between atoms: C_1  and  N_3
REMARK    2  A    between atoms: C_1  and  C_21
REMARK    3  A    between atoms: C_4  and  N_10
REMARK    4  A    between atoms: C_11  and  C_15
REMARK    5  A    between atoms: N_20  and  C_24
REMARK    6  A    between atoms: C_27  and  N_31
REMARK                            x       y       z     vdW  Elec       q    Type
REMARK                         _______ _______ _______ _____ _____    ______ ____
ROOT
ATOM      1  C   UNL     1      32.512 -23.893 -15.599  0.00  0.00    +0.010 C 
ENDROOT
BRANCH   1   3
ATOM      2  F   UNL     1      35.751 -23.065 -12.621  0.00  0.00    -0.238 F 
ATOM      3  N   UNL     1      33.813 -23.716 -14.970  0.00  0.00    +0.396 N 
ATOM      4  C   UNL     1      35.948 -24.476 -14.486  0.00  0.00    +0.082 C 
ATOM      5  C   UNL     1      35.236 -24.200 -13.165  0.00  0.00    +0.156 C 
ATOM      6  C   UNL     1      34.818 -24.641 -15.495  0.00  0.00    -0.054 C 
ATOM      7  C   UNL     1      33.774 -23.966 -13.525  0.00  0.00    -0.039 C 
ATOM      8  H   UNL     1      34.056 -22.747 -15.173  0.00  0.00    -0.079 HD
BRANCH   4  10
ATOM      9  O   UNL     1      38.764 -24.510 -13.930  0.00  0.00    -0.270 OA
ATOM     10  N   UNL     1      36.798 -25.633 -14.433  0.00  0.00    -0.302 N 
ATOM     11  C   UNL     1      38.158 -25.554 -14.155  0.00  0.00    +0.252 C 
ATOM     12  H   UNL     1      36.401 -26.518 -14.600  0.00  0.00    +0.150 HD
BRANCH  11  15
ATOM     13 CL   UNL     1      41.981 -29.442 -15.081  0.00  0.00    -0.075 Cl
ATOM     14  S   UNL     1      40.394 -26.935 -14.999  0.00  0.00    -0.071 S 
ATOM     15  C   UNL     1      38.903 -26.840 -14.161  0.00  0.00    +0.084 C 
ATOM     16  C   UNL     1      38.568 -28.034 -13.564  0.00  0.00    +0.012 C 
ATOM     17  C   UNL     1      39.547 -29.043 -13.798  0.00  0.00    +0.019 C 
ATOM     18  C   UNL     1      40.594 -28.580 -14.565  0.00  0.00    +0.087 C 
ENDBRANCH  11  15
ENDBRANCH   4  10
ENDBRANCH   1   3
BRANCH   1  21
ATOM     19  O   UNL     1      31.261 -22.300 -16.910  0.00  0.00    -0.277 OA
ATOM     20  N   UNL     1      33.539 -22.643 -17.358  0.00  0.00    -0.284 N 
ATOM     21  C   UNL     1      32.334 -22.852 -16.692  0.00  0.00    +0.205 C 
ATOM     22  H   UNL     1      34.307 -23.173 -17.045  0.00  0.00    +0.155 HD
BRANCH  20  24
ATOM     23  F   UNL     1      36.133 -22.072 -18.207  0.00  0.00    -0.203 F 
ATOM     24  C   UNL     1      33.788 -21.757 -18.433  0.00  0.00    +0.078 C 
ATOM     25  C   UNL     1      35.098 -21.492 -18.834  0.00  0.00    +0.155 C 
ATOM     26  C   UNL     1      32.721 -21.146 -19.092  0.00  0.00    +0.018 C 
ATOM     27  C   UNL     1      34.274 -20.009 -20.553  0.00  0.00    +0.061 C 
ATOM     28  C   UNL     1      35.341 -20.618 -19.893  0.00  0.00    +0.046 C 
ATOM     29  C   UNL     1      32.964 -20.273 -20.152  0.00  0.00    +0.017 C 
BRANCH  27  31
ATOM     30  O   UNL     1      35.678 -17.488 -20.353  0.00  0.00    -0.269 OA
ATOM     31  N   UNL     1      34.526 -19.100 -21.654  0.00  0.00    -0.233 N 
ATOM     32  C   UNL     1      35.194 -17.871 -21.418  0.00  0.00    +0.257 C 
ATOM     33  C   UNL     1      34.136 -19.435 -22.953  0.00  0.00    +0.072 C 
ATOM     34  C   UNL     1      35.372 -16.972 -22.600  0.00  0.00    +0.059 C 
ATOM     35  C   UNL     1      34.337 -18.628 -24.000  0.00  0.00    +0.017 C 
ATOM     36  C   UNL     1      34.968 -17.357 -23.813  0.00  0.00    +0.006 C 
ENDBRANCH  27  31
ENDBRANCH  20  24
ENDBRANCH   1  21
TORSDOF 6
ENDMDL
MODEL 3
REMARK VINA RESULT:     -10.8      5.608     11.840
REMARK  Name = 42628063
REMARK  6 active torsions:
REMARK  status: ('A' for Active; 'I' for Inactive)
REMARK    1  A    between atoms: C_1  and  N_3
REMARK    2  A    between atoms: C_1  and  C_21
REMARK    3  A    between atoms: C_4  and  N_10
REMARK    4  A    between atoms: C_11  and  C_15
REMARK    5  A    between atoms: N_20  and  C_24
REMARK    6  A    between atoms: C_27  and  N_31
REMARK                            x       y       z     vdW  Elec       q    Type
REMARK                         _______ _______ _______ _____ _____    ______ ____
ROOT
ATOM      1  C   UNL     1      33.528 -13.055 -24.834  0.00  0.00    +0.010 C 
ENDROOT
BRANCH   1   3
ATOM      2  F   UNL     1      36.398  -9.619 -24.892  0.00  0.00    -0.238 F 
ATOM      3  N   UNL     1      34.285 -11.867 -24.467  0.00  0.00    +0.396 N 
ATOM      4  C   UNL     1      34.378  -9.683 -23.698  0.00  0.00    +0.082 C 
ATOM      5  C   UNL     1      35.053  -9.730 -25.065  0.00  0.00    +0.156 C 
ATOM      6  C   UNL     1      33.497 -10.926 -23.671  0.00  0.00    -0.054 C 
ATOM      7  C   UNL     1      34.732 -11.104 -25.638  0.00  0.00    -0.039 C 
ATOM      8  H   UNL     1      35.076 -12.232 -23.938  0.00  0.00    -0.079 HD
BRANCH   4  10
ATOM      9  O   UNL     1      35.352  -7.219 -22.593  0.00  0.00    -0.270 OA
ATOM     10  N   UNL     1      33.622  -8.480 -23.487  0.00  0.00    -0.302 N 
ATOM     11  C   UNL     1      34.180  -7.328 -22.943  0.00  0.00    +0.252 C 
ATOM     12  H   UNL     1      32.671  -8.470 -23.738  0.00  0.00    +0.150 HD
BRANCH  11  15
ATOM     13 CL   UNL     1      31.279  -2.699 -23.809  0.00  0.00    -0.075 Cl
ATOM     14  S   UNL     1      33.091  -5.040 -24.036  0.00  0.00    -0.071 S 
ATOM     15  C   UNL     1      33.259  -6.175 -22.766  0.00  0.00    +0.084 C 
ATOM     16  C   UNL     1      32.472  -5.859 -21.681  0.00  0.00    +0.012 C 
ATOM     17  C   UNL     1      31.721  -4.666 -21.894  0.00  0.00    +0.019 C 
ATOM     18  C   UNL     1      31.963  -4.118 -23.135  0.00  0.00    +0.087 C 
ENDBRANCH  11  15
ENDBRANCH   4  10
ENDBRANCH   1   3
BRANCH   1  21
ATOM     19  O   UNL     1      32.826 -13.808 -22.652  0.00  0.00    -0.277 OA
ATOM     20  N   UNL     1      34.309 -15.118 -23.915  0.00  0.00    -0.284 N 
ATOM     21  C   UNL     1      33.496 -14.017 -23.658  0.00  0.00    +0.205 C 
ATOM     22  H   UNL     1      34.773 -15.124 -24.783  0.00  0.00    +0.155 HD
BRANCH  20  24
ATOM     23  F   UNL     1      33.901 -17.730 -24.800  0.00  0.00    -0.203 F 
ATOM     24  C   UNL     1      34.546 -16.231 -23.073  0.00  0.00    +0.078 C 
ATOM     25  C   UNL     1      34.331 -17.526 -23.547  0.00  0.00    +0.155 C 
ATOM     26  C   UNL     1      34.993 -16.032 -21.767  0.00  0.00    +0.018 C 
ATOM     27  C   UNL     1      35.014 -18.421 -21.410  0.00  0.00    +0.061 C 
ATOM     28  C   UNL     1      34.565 -18.620 -22.715  0.00  0.00    +0.046 C 
ATOM     29  C   UNL     1      35.228 -17.127 -20.936  0.00  0.00    +0.017 C 
BRANCH  27  31
ATOM     30  O   UNL     1      32.989 -20.237 -20.427  0.00  0.00    -0.269 OA
ATOM     31  N   UNL     1      35.257 -19.559 -20.545  0.00  0.00    -0.233 N 
ATOM     32  C   UNL     1      34.169 -20.353 -20.098  0.00  0.00    +0.257 C 
ATOM     33  C   UNL     1      36.558 -19.896 -20.165  0.00  0.00    +0.072 C 
ATOM     34  C   UNL     1      34.502 -21.479 -19.171  0.00  0.00    +0.059 C 
ATOM     35  C   UNL     1      36.834 -20.928 -19.361  0.00  0.00    +0.017 C 
ATOM     36  C   UNL     1      35.771 -21.738 -18.846  0.00  0.00    +0.006 C 
ENDBRANCH  27  31
ENDBRANCH  20  24
ENDBRANCH   1  21
TORSDOF 6
ENDMDL
MODEL 4
REMARK VINA RESULT:     -10.7      3.539      6.015
REMARK  Name = 42628063
REMARK  6 active torsions:
REMARK  status: ('A' for Active; 'I' for Inactive)
REMARK    1  A    between atoms: C_1  and  N_3
REMARK    2  A    between atoms: C_1  and  C_21
REMARK    3  A    between atoms: C_4  and  N_10
REMARK    4  A    between atoms: C_11  and  C_15
REMARK    5  A    between atoms: N_20  and  C_24
REMARK    6  A    between atoms: C_27  and  N_31
REMARK                            x       y       z     vdW  Elec       q    Type
REMARK                         _______ _______ _______ _____ _____    ______ ____
ROOT
ATOM      1  C   UNL     1      35.694 -21.221 -19.563  0.00  0.00    +0.010 C 
ENDROOT
BRANCH   1   3
ATOM      2  F   UNL     1      32.826 -22.660 -16.441  0.00  0.00    -0.238 F 
ATOM      3  N   UNL     1      35.082 -21.567 -18.289  0.00  0.00    +0.396 N 
ATOM      4  C   UNL     1      35.162 -22.609 -16.220  0.00  0.00    +0.082 C 
ATOM      5  C   UNL     1      33.965 -23.168 -16.983  0.00  0.00    +0.156 C 
ATOM      6  C   UNL     1      36.062 -22.029 -17.305  0.00  0.00    -0.054 C 
ATOM      7  C   UNL     1      34.112 -22.660 -18.411  0.00  0.00    -0.039 C 
ATOM      8  H   UNL     1      34.632 -20.703 -17.989  0.00  0.00    -0.079 HD
BRANCH   4  10
ATOM      9  O   UNL     1      34.408 -23.525 -13.606  0.00  0.00    -0.270 OA
ATOM     10  N   UNL     1      35.838 -23.601 -15.432  0.00  0.00    -0.302 N 
ATOM     11  C   UNL     1      35.399 -23.984 -14.169  0.00  0.00    +0.252 C 
ATOM     12  H   UNL     1      36.644 -24.028 -15.800  0.00  0.00    +0.150 HD
BRANCH  11  15
ATOM     13 CL   UNL     1      38.501 -28.434 -13.089  0.00  0.00    -0.075 Cl
ATOM     14  S   UNL     1      36.838 -26.331 -14.364  0.00  0.00    -0.071 S 
ATOM     15  C   UNL     1      36.222 -25.006 -13.471  0.00  0.00    +0.084 C 
ATOM     16  C   UNL     1      36.592 -25.058 -12.146  0.00  0.00    +0.012 C 
ATOM     17  C   UNL     1      37.391 -26.202 -11.858  0.00  0.00    +0.019 C 
ATOM     18  C   UNL     1      37.602 -26.980 -12.975  0.00  0.00    +0.087 C 
ENDBRANCH  11  15
ENDBRANCH   4  10
ENDBRANCH   1   3
BRANCH   1  21
ATOM     19  O   UNL     1      33.662 -20.173 -20.333  0.00  0.00    -0.277 OA
ATOM     20  N   UNL     1      35.725 -19.106 -20.675  0.00  0.00    -0.284 N 
ATOM     21  C   UNL     1      34.883 -20.123 -20.231  0.00  0.00    +0.205 C 
ATOM     22  H   UNL     1      36.685 -19.230 -20.504  0.00  0.00    +0.155 HD
BRANCH  20  24
ATOM     23  F   UNL     1      35.459 -19.013 -23.449  0.00  0.00    -0.203 F 
ATOM     24  C   UNL     1      35.358 -17.914 -21.344  0.00  0.00    +0.078 C 
ATOM     25  C   UNL     1      35.234 -17.900 -22.734  0.00  0.00    +0.155 C 
ATOM     26  C   UNL     1      35.121 -16.750 -20.613  0.00  0.00    +0.018 C 
ATOM     27  C   UNL     1      34.635 -15.562 -22.659  0.00  0.00    +0.061 C 
ATOM     28  C   UNL     1      34.873 -16.725 -23.391  0.00  0.00    +0.046 C 
ATOM     29  C   UNL     1      34.760 -15.574 -21.270  0.00  0.00    +0.017 C 
BRANCH  27  31
ATOM     30  O   UNL     1      33.830 -15.374 -25.430  0.00  0.00    -0.269 OA
ATOM     31  N   UNL     1      34.260 -14.339 -23.342  0.00  0.00    -0.233 N 
ATOM     32  C   UNL     1      33.921 -14.373 -24.720  0.00  0.00    +0.257 C 
ATOM     33  C   UNL     1      34.206 -13.127 -22.649  0.00  0.00    +0.072 C 
ATOM     34  C   UNL     1      33.591 -13.062 -25.358  0.00  0.00    +0.059 C 
ATOM     35  C   UNL     1      33.876 -11.972 -23.235  0.00  0.00    +0.017 C 
ATOM     36  C   UNL     1      33.566 -11.941 -24.633  0.00  0.00    +0.006 C 
ENDBRANCH  27  31
ENDBRANCH  20  24
ENDBRANCH   1  21
TORSDOF 6
ENDMDL
MODEL 5
REMARK VINA RESULT:     -10.7      4.425     11.193
REMARK  Name = 42628063
REMARK  6 active torsions:
REMARK  status: ('A' for Active; 'I' for Inactive)
REMARK    1  A    between atoms: C_1  and  N_3
REMARK    2  A    between atoms: C_1  and  C_21
REMARK    3  A    between atoms: C_4  and  N_10
REMARK    4  A    between atoms: C_11  and  C_15
REMARK    5  A    between atoms: N_20  and  C_24
REMARK    6  A    between atoms: C_27  and  N_31
REMARK                            x       y       z     vdW  Elec       q    Type
REMARK                         _______ _______ _______ _____ _____    ______ ____
ROOT
ATOM      1  C   UNL     1      36.609 -18.820 -22.141  0.00  0.00    +0.010 C 
ENDROOT
BRANCH   1   3
ATOM      2  F   UNL     1      33.836 -16.907 -25.090  0.00  0.00    -0.238 F 
ATOM      3  N   UNL     1      35.928 -17.848 -22.983  0.00  0.00    +0.396 N 
ATOM      4  C   UNL     1      34.834 -15.824 -23.263  0.00  0.00    +0.082 C 
ATOM      5  C   UNL     1      33.898 -16.934 -23.732  0.00  0.00    +0.156 C 
ATOM      6  C   UNL     1      35.830 -16.532 -22.351  0.00  0.00    -0.054 C 
ATOM      7  C   UNL     1      34.546 -18.237 -23.283  0.00  0.00    -0.039 C 
ATOM      8  H   UNL     1      36.496 -17.814 -23.829  0.00  0.00    -0.079 HD
BRANCH   4  10
ATOM      9  O   UNL     1      33.514 -13.589 -24.488  0.00  0.00    -0.270 OA
ATOM     10  N   UNL     1      34.147 -14.759 -22.587  0.00  0.00    -0.302 N 
ATOM     11  C   UNL     1      33.533 -13.712 -23.266  0.00  0.00    +0.252 C 
ATOM     12  H   UNL     1      34.107 -14.771 -21.604  0.00  0.00    +0.150 HD
BRANCH  11  15
ATOM     13 CL   UNL     1      31.702  -8.872 -21.313  0.00  0.00    -0.075 Cl
ATOM     14  S   UNL     1      32.963 -11.035 -22.908  0.00  0.00    -0.071 S 
ATOM     15  C   UNL     1      32.884 -12.675 -22.422  0.00  0.00    +0.084 C 
ATOM     16  C   UNL     1      32.188 -12.833 -21.244  0.00  0.00    +0.012 C 
ATOM     17  C   UNL     1      31.713 -11.591 -20.732  0.00  0.00    +0.019 C 
ATOM     18  C   UNL     1      32.064 -10.531 -21.540  0.00  0.00    +0.087 C 
ENDBRANCH  11  15
ENDBRANCH   4  10
ENDBRANCH   1   3
BRANCH   1  21
ATOM     19  O   UNL     1      35.311 -18.133 -20.227  0.00  0.00    -0.277 OA
ATOM     20  N   UNL     1      35.699 -20.416 -20.613  0.00  0.00    -0.284 N 
ATOM     21  C   UNL     1      35.796 -19.052 -20.879  0.00  0.00    +0.205 C 
ATOM     22  H   UNL     1      36.149 -21.017 -21.249  0.00  0.00    +0.155 HD
BRANCH  20  24
ATOM     23  F   UNL     1      32.916 -20.538 -20.502  0.00  0.00    -0.203 F 
ATOM     24  C   UNL     1      35.028 -21.039 -19.534  0.00  0.00    +0.078 C 
ATOM     25  C   UNL     1      33.633 -21.083 -19.508  0.00  0.00    +0.155 C 
ATOM     26  C   UNL     1      35.761 -21.609 -18.494  0.00  0.00    +0.018 C 
ATOM     27  C   UNL     1      33.708 -22.268 -17.406  0.00  0.00    +0.061 C 
ATOM     28  C   UNL     1      32.974 -21.697 -18.445  0.00  0.00    +0.046 C 
ATOM     29  C   UNL     1      35.102 -22.224 -17.430  0.00  0.00    +0.017 C 
BRANCH  27  31
ATOM     30  O   UNL     1      30.840 -22.351 -17.039  0.00  0.00    -0.269 OA
ATOM     31  N   UNL     1      33.022 -22.907 -16.299  0.00  0.00    -0.233 N 
ATOM     32  C   UNL     1      31.607 -22.844 -16.212  0.00  0.00    +0.257 C 
ATOM     33  C   UNL     1      33.742 -23.606 -15.327  0.00  0.00    +0.072 C 
ATOM     34  C   UNL     1      30.984 -23.489 -15.015  0.00  0.00    +0.059 C 
ATOM     35  C   UNL     1      33.159 -24.203 -14.283  0.00  0.00    +0.017 C 
ATOM     36  C   UNL     1      31.737 -24.134 -14.122  0.00  0.00    +0.006 C 
ENDBRANCH  27  31
ENDBRANCH  20  24
ENDBRANCH   1  21
TORSDOF 6
ENDMDL
MODEL 6
REMARK VINA RESULT:     -10.5      4.842     11.613
REMARK  Name = 42628063
REMARK  6 active torsions:
REMARK  status: ('A' for Active; 'I' for Inactive)
REMARK    1  A    between atoms: C_1  and  N_3
REMARK    2  A    between atoms: C_1  and  C_21
REMARK    3  A    between atoms: C_4  and  N_10
REMARK    4  A    between atoms: C_11  and  C_15
REMARK    5  A    between atoms: N_20  and  C_24
REMARK    6  A    between atoms: C_27  and  N_31
REMARK                            x       y       z     vdW  Elec       q    Type
REMARK                         _______ _______ _______ _____ _____    ______ ____
ROOT
ATOM      1  C   UNL     1      35.123 -17.564 -23.624  0.00  0.00    +0.010 C 
ENDROOT
BRANCH   1   3
ATOM      2  F   UNL     1      33.365 -14.601 -20.765  0.00  0.00    -0.238 F 
ATOM      3  N   UNL     1      34.387 -16.443 -23.059  0.00  0.00    +0.396 N 
ATOM      4  C   UNL     1      33.833 -14.193 -23.028  0.00  0.00    +0.082 C 
ATOM      5  C   UNL     1      34.391 -14.560 -21.656  0.00  0.00    +0.156 C 
ATOM      6  C   UNL     1      34.359 -15.284 -23.952  0.00  0.00    -0.054 C 
ATOM      7  C   UNL     1      34.981 -15.955 -21.810  0.00  0.00    -0.039 C 
ATOM      8  H   UNL     1      33.451 -16.816 -22.904  0.00  0.00    -0.079 HD
BRANCH   4  10
ATOM      9  O   UNL     1      32.564 -11.710 -22.347  0.00  0.00    -0.270 OA
ATOM     10  N   UNL     1      34.227 -12.882 -23.462  0.00  0.00    -0.302 N 
ATOM     11  C   UNL     1      33.549 -11.729 -23.079  0.00  0.00    +0.252 C 
ATOM     12  H   UNL     1      35.008 -12.795 -24.053  0.00  0.00    +0.150 HD
BRANCH  11  15
ATOM     13 CL   UNL     1      34.524  -6.354 -23.946  0.00  0.00    -0.075 Cl
ATOM     14  S   UNL     1      33.557  -8.973 -22.936  0.00  0.00    -0.071 S 
ATOM     15  C   UNL     1      34.067 -10.451 -23.633  0.00  0.00    +0.084 C 
ATOM     16  C   UNL     1      34.945 -10.256 -24.676  0.00  0.00    +0.012 C 
ATOM     17  C   UNL     1      35.201  -8.873 -24.908  0.00  0.00    +0.019 C 
ATOM     18  C   UNL     1      34.510  -8.065 -24.032  0.00  0.00    +0.087 C 
ENDBRANCH  11  15
ENDBRANCH   4  10
ENDBRANCH   1   3
BRANCH   1  21
ATOM     19  O   UNL     1      36.857 -18.612 -22.314  0.00  0.00    -0.277 OA
ATOM     20  N   UNL     1      34.604 -18.962 -21.757  0.00  0.00    -0.284 N 
ATOM     21  C   UNL     1      35.658 -18.436 -22.500  0.00  0.00    +0.205 C 
ATOM     22  H   UNL     1      33.698 -18.710 -22.046  0.00  0.00    +0.155 HD
BRANCH  20  24
ATOM     23  F   UNL     1      32.323 -20.086 -20.613  0.00  0.00    -0.203 F 
ATOM     24  C   UNL     1      34.684 -19.818 -20.632  0.00  0.00    +0.078 C 
ATOM     25  C   UNL     1      33.523 -20.364 -20.083  0.00  0.00    +0.155 C 
ATOM     26  C   UNL     1      35.926 -20.114 -20.072  0.00  0.00    +0.018 C 
ATOM     27  C   UNL     1      34.848 -21.504 -18.416  0.00  0.00    +0.061 C 
ATOM     28  C   UNL     1      33.605 -21.207 -18.975  0.00  0.00    +0.046 C 
ATOM     29  C   UNL     1      36.008 -20.958 -18.964  0.00  0.00    +0.017 C 
BRANCH  27  31
ATOM     30  O   UNL     1      32.787 -23.342 -17.557  0.00  0.00    -0.269 OA
ATOM     31  N   UNL     1      34.933 -22.380 -17.264  0.00  0.00    -0.233 N 
ATOM     32  C   UNL     1      33.833 -23.210 -16.923  0.00  0.00    +0.257 C 
ATOM     33  C   UNL     1      36.099 -22.432 -16.497  0.00  0.00    +0.072 C 
ATOM     34  C   UNL     1      33.987 -24.048 -15.694  0.00  0.00    +0.059 C 
ATOM     35  C   UNL     1      36.224 -23.215 -15.420  0.00  0.00    +0.017 C 
ATOM     36  C   UNL     1      35.131 -24.041 -15.005  0.00  0.00    +0.006 C 
ENDBRANCH  27  31
ENDBRANCH  20  24
ENDBRANCH   1  21
TORSDOF 6
ENDMDL
MODEL 7
REMARK VINA RESULT:     -10.2      1.715      2.181
REMARK  Name = 42628063
REMARK  6 active torsions:
REMARK  status: ('A' for Active; 'I' for Inactive)
REMARK    1  A    between atoms: C_1  and  N_3
REMARK    2  A    between atoms: C_1  and  C_21
REMARK    3  A    between atoms: C_4  and  N_10
REMARK    4  A    between atoms: C_11  and  C_15
REMARK    5  A    between atoms: N_20  and  C_24
REMARK    6  A    between atoms: C_27  and  N_31
REMARK                            x       y       z     vdW  Elec       q    Type
REMARK                         _______ _______ _______ _____ _____    ______ ____
ROOT
ATOM      1  C   UNL     1      34.272 -15.825 -24.279  0.00  0.00    +0.010 C 
ENDROOT
BRANCH   1   3
ATOM      2  F   UNL     1      37.402 -18.019 -21.948  0.00  0.00    -0.238 F 
ATOM      3  N   UNL     1      35.056 -16.876 -23.648  0.00  0.00    +0.396 N 
ATOM      4  C   UNL     1      35.209 -18.768 -22.318  0.00  0.00    +0.082 C 
ATOM      5  C   UNL     1      36.103 -17.691 -21.710  0.00  0.00    +0.156 C 
ATOM      6  C   UNL     1      34.229 -17.993 -23.191  0.00  0.00    -0.054 C 
ATOM      7  C   UNL     1      35.765 -16.406 -22.453  0.00  0.00    -0.039 C 
ATOM      8  H   UNL     1      35.708 -17.168 -24.376  0.00  0.00    -0.079 HD
BRANCH   4  10
ATOM      9  O   UNL     1      36.424 -20.133 -20.105  0.00  0.00    -0.270 OA
ATOM     10  N   UNL     1      34.537 -19.563 -21.328  0.00  0.00    -0.302 N 
ATOM     11  C   UNL     1      35.211 -20.191 -20.286  0.00  0.00    +0.252 C 
ATOM     12  H   UNL     1      33.561 -19.668 -21.389  0.00  0.00    +0.150 HD
BRANCH  11  15
ATOM     13 CL   UNL     1      33.590 -23.659 -16.293  0.00  0.00    -0.075 Cl
ATOM     14  S   UNL     1      35.145 -22.003 -18.205  0.00  0.00    -0.071 S 
ATOM     15  C   UNL     1      34.376 -20.998 -19.359  0.00  0.00    +0.084 C 
ATOM     16  C   UNL     1      33.003 -21.069 -19.274  0.00  0.00    +0.012 C 
ATOM     17  C   UNL     1      32.576 -21.961 -18.248  0.00  0.00    +0.019 C 
ATOM     18  C   UNL     1      33.639 -22.537 -17.588  0.00  0.00    +0.087 C 
ENDBRANCH  11  15
ENDBRANCH   4  10
ENDBRANCH   1   3
BRANCH   1  21
ATOM     19  O   UNL     1      34.429 -14.742 -22.128  0.00  0.00    -0.277 OA
ATOM     20  N   UNL     1      33.570 -13.562 -23.967  0.00  0.00    -0.284 N 
ATOM     21  C   UNL     1      34.109 -14.666 -23.310  0.00  0.00    +0.205 C 
ATOM     22  H   UNL     1      33.377 -13.677 -24.925  0.00  0.00    +0.155 HD
BRANCH  20  24
ATOM     23  F   UNL     1      31.815 -13.285 -21.819  0.00  0.00    -0.203 F 
ATOM     24  C   UNL     1      33.268 -12.293 -23.416  0.00  0.00    +0.078 C 
ATOM     25  C   UNL     1      32.385 -12.188 -22.341  0.00  0.00    +0.155 C 
ATOM     26  C   UNL     1      33.854 -11.146 -23.951  0.00  0.00    +0.018 C 
ATOM     27  C   UNL     1      32.676  -9.791 -22.334  0.00  0.00    +0.061 C 
ATOM     28  C   UNL     1      32.089 -10.938 -21.800  0.00  0.00    +0.046 C 
ATOM     29  C   UNL     1      33.558  -9.895 -23.409  0.00  0.00    +0.017 C 
BRANCH  27  31
ATOM     30  O   UNL     1      31.213  -7.691 -23.681  0.00  0.00    -0.269 OA
ATOM     31  N   UNL     1      32.368  -8.490 -21.772  0.00  0.00    -0.233 N 
ATOM     32  C   UNL     1      31.675  -7.528 -22.552  0.00  0.00    +0.257 C 
ATOM     33  C   UNL     1      32.729  -8.182 -20.459  0.00  0.00    +0.072 C 
ATOM     34  C   UNL     1      31.440  -6.197 -21.913  0.00  0.00    +0.059 C 
ATOM     35  C   UNL     1      32.478  -6.994 -19.898  0.00  0.00    +0.017 C 
ATOM     36  C   UNL     1      31.819  -5.971 -20.653  0.00  0.00    +0.006 C 
ENDBRANCH  27  31
ENDBRANCH  20  24
ENDBRANCH   1  21
TORSDOF 6
ENDMDL
MODEL 8
REMARK VINA RESULT:     -10.0      4.561     11.760
REMARK  Name = 42628063
REMARK  6 active torsions:
REMARK  status: ('A' for Active; 'I' for Inactive)
REMARK    1  A    between atoms: C_1  and  N_3
REMARK    2  A    between atoms: C_1  and  C_21
REMARK    3  A    between atoms: C_4  and  N_10
REMARK    4  A    between atoms: C_11  and  C_15
REMARK    5  A    between atoms: N_20  and  C_24
REMARK    6  A    between atoms: C_27  and  N_31
REMARK                            x       y       z     vdW  Elec       q    Type
REMARK                         _______ _______ _______ _____ _____    ______ ____
ROOT
ATOM      1  C   UNL     1      34.790 -19.409 -22.240  0.00  0.00    +0.010 C 
ENDROOT
BRANCH   1   3
ATOM      2  F   UNL     1      35.570 -15.868 -24.867  0.00  0.00    -0.238 F 
ATOM      3  N   UNL     1      35.149 -18.081 -22.716  0.00  0.00    +0.396 N 
ATOM      4  C   UNL     1      34.979 -15.773 -22.597  0.00  0.00    +0.082 C 
ATOM      5  C   UNL     1      34.573 -16.203 -24.004  0.00  0.00    +0.156 C 
ATOM      6  C   UNL     1      34.808 -17.031 -21.755  0.00  0.00    -0.054 C 
ATOM      7  C   UNL     1      34.443 -17.720 -23.950  0.00  0.00    -0.039 C 
ATOM      8  H   UNL     1      36.155 -18.136 -22.866  0.00  0.00    -0.079 HD
BRANCH   4  10
ATOM      9  O   UNL     1      34.077 -13.491 -24.087  0.00  0.00    -0.270 OA
ATOM     10  N   UNL     1      34.195 -14.678 -22.098  0.00  0.00    -0.302 N 
ATOM     11  C   UNL     1      33.801 -13.610 -22.897  0.00  0.00    +0.252 C 
ATOM     12  H   UNL     1      33.924 -14.684 -21.152  0.00  0.00    +0.150 HD
BRANCH  11  15
ATOM     13 CL   UNL     1      31.464  -8.755 -21.647  0.00  0.00    -0.075 Cl
ATOM     14  S   UNL     1      33.003 -10.968 -22.892  0.00  0.00    -0.071 S 
ATOM     15  C   UNL     1      33.014 -12.544 -22.224  0.00  0.00    +0.084 C 
ATOM     16  C   UNL     1      32.246 -12.629 -21.084  0.00  0.00    +0.012 C 
ATOM     17  C   UNL     1      31.640 -11.382 -20.753  0.00  0.00    +0.019 C 
ATOM     18  C   UNL     1      31.968 -10.392 -21.654  0.00  0.00    +0.087 C 
ENDBRANCH  11  15
ENDBRANCH   4  10
ENDBRANCH   1   3
BRANCH   1  21
ATOM     19  O   UNL     1      36.167 -18.838 -20.342  0.00  0.00    -0.277 OA
ATOM     20  N   UNL     1      34.882 -20.802 -20.300  0.00  0.00    -0.284 N 
ATOM     21  C   UNL     1      35.377 -19.625 -20.855  0.00  0.00    +0.205 C 
ATOM     22  H   UNL     1      34.248 -21.311 -20.854  0.00  0.00    +0.155 HD
BRANCH  20  24
ATOM     23  F   UNL     1      32.945 -22.107 -18.778  0.00  0.00    -0.203 F 
ATOM     24  C   UNL     1      35.183 -21.352 -19.031  0.00  0.00    +0.078 C 
ATOM     25  C   UNL     1      34.191 -21.999 -18.294  0.00  0.00    +0.155 C 
ATOM     26  C   UNL     1      36.475 -21.245 -18.517  0.00  0.00    +0.018 C 
ATOM     27  C   UNL     1      35.782 -22.434 -16.531  0.00  0.00    +0.061 C 
ATOM     28  C   UNL     1      34.490 -22.540 -17.045  0.00  0.00    +0.046 C 
ATOM     29  C   UNL     1      36.775 -21.787 -17.267  0.00  0.00    +0.017 C 
BRANCH  27  31
ATOM     30  O   UNL     1      38.445 -22.950 -15.528  0.00  0.00    -0.269 OA
ATOM     31  N   UNL     1      36.094 -22.996 -15.231  0.00  0.00    -0.233 N 
ATOM     32  C   UNL     1      37.445 -23.239 -14.871  0.00  0.00    +0.257 C 
ATOM     33  C   UNL     1      35.076 -23.281 -14.319  0.00  0.00    +0.072 C 
ATOM     34  C   UNL     1      37.676 -23.864 -13.532  0.00  0.00    +0.059 C 
ATOM     35  C   UNL     1      35.310 -23.809 -13.113  0.00  0.00    +0.017 C 
ATOM     36  C   UNL     1      36.651 -24.114 -12.714  0.00  0.00    +0.006 C 
ENDBRANCH  27  31
ENDBRANCH  20  24
ENDBRANCH   1  21
TORSDOF 6
ENDMDL
MODEL 9
REMARK VINA RESULT:     -10.0      2.445      3.442
REMARK  Name = 42628063
REMARK  6 active torsions:
REMARK  status: ('A' for Active; 'I' for Inactive)
REMARK    1  A    between atoms: C_1  and  N_3
REMARK    2  A    between atoms: C_1  and  C_21
REMARK    3  A    between atoms: C_4  and  N_10
REMARK    4  A    between atoms: C_11  and  C_15
REMARK    5  A    between atoms: N_20  and  C_24
REMARK    6  A    between atoms: C_27  and  N_31
REMARK                            x       y       z     vdW  Elec       q    Type
REMARK                         _______ _______ _______ _____ _____    ______ ____
ROOT
ATOM      1  C   UNL     1      33.987 -14.573 -24.573  0.00  0.00    +0.010 C 
ENDROOT
BRANCH   1   3
ATOM      2  F   UNL     1      34.996 -14.019 -20.246  0.00  0.00    -0.238 F 
ATOM      3  N   UNL     1      34.596 -14.705 -23.258  0.00  0.00    +0.396 N 
ATOM      4  C   UNL     1      35.283 -16.003 -21.465  0.00  0.00    +0.082 C 
ATOM      5  C   UNL     1      34.302 -14.959 -20.941  0.00  0.00    +0.156 C 
ATOM      6  C   UNL     1      34.987 -16.083 -22.957  0.00  0.00    -0.054 C 
ATOM      7  C   UNL     1      33.684 -14.318 -22.177  0.00  0.00    -0.039 C 
ATOM      8  H   UNL     1      35.407 -14.089 -23.298  0.00  0.00    -0.079 HD
BRANCH   4  10
ATOM      9  O   UNL     1      36.996 -18.285 -21.786  0.00  0.00    -0.270 OA
ATOM     10  N   UNL     1      35.144 -17.278 -20.818  0.00  0.00    -0.302 N 
ATOM     11  C   UNL     1      36.026 -18.331 -21.035  0.00  0.00    +0.252 C 
ATOM     12  H   UNL     1      34.394 -17.412 -20.195  0.00  0.00    +0.150 HD
BRANCH  11  15
ATOM     13 CL   UNL     1      33.390 -22.649 -18.798  0.00  0.00    -0.075 Cl
ATOM     14  S   UNL     1      34.111 -20.141 -20.214  0.00  0.00    -0.071 S 
ATOM     15  C   UNL     1      35.730 -19.593 -20.308  0.00  0.00    +0.084 C 
ATOM     16  C   UNL     1      36.602 -20.442 -19.663  0.00  0.00    +0.012 C 
ATOM     17  C   UNL     1      35.932 -21.558 -19.082  0.00  0.00    +0.019 C 
ATOM     18  C   UNL     1      34.573 -21.518 -19.307  0.00  0.00    +0.087 C 
ENDBRANCH  11  15
ENDBRANCH   4  10
ENDBRANCH   1   3
BRANCH   1  21
ATOM     19  O   UNL     1      33.032 -12.747 -25.826  0.00  0.00    -0.277 OA
ATOM     20  N   UNL     1      33.754 -12.394 -23.621  0.00  0.00    -0.284 N 
ATOM     21  C   UNL     1      33.529 -13.139 -24.776  0.00  0.00    +0.205 C 
ATOM     22  H   UNL     1      34.161 -12.875 -22.865  0.00  0.00    +0.155 HD
BRANCH  20  24
ATOM     23  F   UNL     1      35.335 -10.382 -24.728  0.00  0.00    -0.203 F 
ATOM     24  C   UNL     1      33.466 -11.024 -23.408  0.00  0.00    +0.078 C 
ATOM     25  C   UNL     1      34.278 -10.041 -23.977  0.00  0.00    +0.155 C 
ATOM     26  C   UNL     1      32.370 -10.657 -22.628  0.00  0.00    +0.018 C 
ATOM     27  C   UNL     1      32.895  -8.327 -22.987  0.00  0.00    +0.061 C 
ATOM     28  C   UNL     1      33.992  -8.693 -23.766  0.00  0.00    +0.046 C 
ATOM     29  C   UNL     1      32.084  -9.309 -22.418  0.00  0.00    +0.017 C 
BRANCH  27  31
ATOM     30  O   UNL     1      33.119  -6.946 -20.455  0.00  0.00    -0.269 OA
ATOM     31  N   UNL     1      32.597  -6.924 -22.767  0.00  0.00    -0.233 N 
ATOM     32  C   UNL     1      32.709  -6.373 -21.464  0.00  0.00    +0.257 C 
ATOM     33  C   UNL     1      32.222  -6.104 -23.833  0.00  0.00    +0.072 C 
ATOM     34  C   UNL     1      32.339  -4.931 -21.317  0.00  0.00    +0.059 C 
ATOM     35  C   UNL     1      31.928  -4.808 -23.681  0.00  0.00    +0.017 C 
ATOM     36  C   UNL     1      31.983  -4.209 -22.382  0.00  0.00    +0.006 C 
ENDBRANCH  27  31
ENDBRANCH  20  24
ENDBRANCH   1  21
TORSDOF 6
ENDMDL
