MODEL 1
REMARK VINA RESULT:     -12.3      0.000      0.000
REMARK  Name = 10172943
REMARK  7 active torsions:
REMARK  status: ('A' for Active; 'I' for Inactive)
REMARK    1  A    between atoms: O_1  and  C_3
REMARK    2  A    between atoms: O_1  and  C_19
REMARK    3  A    between atoms: C_4  and  C_11
REMARK    4  A    between atoms: C_19  and  C_20
REMARK    5  A    between atoms: C_20  and  N_21
REMARK    6  A    between atoms: C_20  and  C_25
REMARK    7  A    between atoms: C_25  and  C_27
REMARK                            x       y       z     vdW  Elec       q    Type
REMARK                         _______ _______ _______ _____ _____    ______ ____
ROOT
ATOM      1  O   UNL     1      35.230 -16.369 -22.135  0.00  0.00    -0.476 OA
ENDROOT
BRANCH   1   3
ATOM      2  N   UNL     1      33.773 -14.875 -25.122  0.00  0.00    -0.239 NA
ATOM      3  C   UNL     1      34.599 -15.457 -22.940  0.00  0.00    +0.158 C 
ATOM      4  C   UNL     1      33.521 -13.347 -23.265  0.00  0.00    +0.022 C 
ATOM      5  C   UNL     1      34.160 -14.251 -22.424  0.00  0.00    +0.040 C 
ATOM      6  C   UNL     1      34.389 -15.728 -24.274  0.00  0.00    +0.136 C 
ATOM      7  C   UNL     1      33.354 -13.702 -24.594  0.00  0.00    +0.099 C 
BRANCH   4  11
ATOM      8  N   UNL     1      32.609  -7.725 -22.169  0.00  0.00    -0.280 N 
ATOM      9  N   UNL     1      31.753  -8.438 -21.410  0.00  0.00    -0.173 NA
ATOM     10  C   UNL     1      33.076  -9.767 -22.692  0.00  0.00    +0.032 A 
ATOM     11  C   UNL     1      33.046 -12.076 -22.768  0.00  0.00    +0.002 C 
ATOM     12  C   UNL     1      32.018  -9.721 -21.711  0.00  0.00    +0.102 A 
ATOM     13  C   UNL     1      33.643 -10.897 -23.267  0.00  0.00    +0.003 C 
ATOM     14  C   UNL     1      33.429  -8.474 -22.961  0.00  0.00    +0.053 A 
ATOM     15  C   UNL     1      31.993 -12.078 -21.795  0.00  0.00    +0.002 C 
ATOM     16  C   UNL     1      31.438 -10.909 -21.229  0.00  0.00    +0.021 C 
ATOM     17  C   UNL     1      34.424  -7.861 -23.856  0.00  0.00    +0.051 C 
ATOM     18  H   UNL     1      32.640  -6.742 -22.153  0.00  0.00    +0.189 HD
ENDBRANCH   4  11
ENDBRANCH   1   3
BRANCH   1  19
ATOM     19  C   UNL     1      35.706 -17.554 -22.760  0.00  0.00    +0.184 C 
BRANCH  19  20
ATOM     20  C   UNL     1      34.869 -18.780 -22.370  0.00  0.00    -0.017 C 
BRANCH  20  21
ATOM     21  N   UNL     1      34.856 -19.717 -23.501  0.00  0.00    +0.384 N 
ATOM     22  H   UNL     1      35.467 -20.507 -23.293  0.00  0.00    -0.089 HD
ATOM     23  H   UNL     1      35.187 -19.241 -24.340  0.00  0.00    -0.089 HD
ATOM     24  H   UNL     1      33.905 -20.052 -23.653  0.00  0.00    -0.089 HD
ENDBRANCH  20  21
BRANCH  20  25
ATOM     25  C   UNL     1      35.389 -19.510 -21.103  0.00  0.00    +0.009 C 
BRANCH  25  27
ATOM     26  N   UNL     1      32.363 -20.944 -19.648  0.00  0.00    -0.312 N 
ATOM     27  C   UNL     1      34.344 -20.213 -20.331  0.00  0.00    -0.008 C 
ATOM     28  C   UNL     1      34.546 -21.060 -19.206  0.00  0.00    +0.011 C 
ATOM     29  C   UNL     1      33.288 -21.505 -18.796  0.00  0.00    +0.048 C 
ATOM     30  C   UNL     1      32.991 -20.160 -20.578  0.00  0.00    +0.058 C 
ATOM     31  C   UNL     1      35.683 -21.492 -18.495  0.00  0.00    +0.001 C 
ATOM     32  C   UNL     1      33.108 -22.365 -17.706  0.00  0.00    +0.015 C 
ATOM     33  C   UNL     1      35.519 -22.352 -17.403  0.00  0.00    +0.000 C 
ATOM     34  C   UNL     1      34.251 -22.781 -17.017  0.00  0.00    +0.001 C 
ATOM     35  H   UNL     1      31.390 -21.084 -19.593  0.00  0.00    +0.152 HD
ENDBRANCH  25  27
ENDBRANCH  20  25
ENDBRANCH  19  20
ENDBRANCH   1  19
TORSDOF 7
ENDMDL
MODEL 2
REMARK VINA RESULT:     -12.1      1.194      1.615
REMARK  Name = 10172943
REMARK  7 active torsions:
REMARK  status: ('A' for Active; 'I' for Inactive)
REMARK    1  A    between atoms: O_1  and  C_3
REMARK    2  A    between atoms: O_1  and  C_19
REMARK    3  A    between atoms: C_4  and  C_11
REMARK    4  A    between atoms: C_19  and  C_20
REMARK    5  A    between atoms: C_20  and  N_21
REMARK    6  A    between atoms: C_20  and  C_25
REMARK    7  A    between atoms: C_25  and  C_27
REMARK                            x       y       z     vdW  Elec       q    Type
REMARK                         _______ _______ _______ _____ _____    ______ ____
ROOT
ATOM      1  O   UNL     1      35.336 -16.515 -22.332  0.00  0.00    -0.476 OA
ENDROOT
BRANCH   1   3
ATOM      2  N   UNL     1      33.800 -14.956 -25.246  0.00  0.00    -0.239 NA
ATOM      3  C   UNL     1      34.679 -15.587 -23.098  0.00  0.00    +0.158 C 
ATOM      4  C   UNL     1      33.575 -13.480 -23.344  0.00  0.00    +0.022 C 
ATOM      5  C   UNL     1      34.241 -14.400 -22.542  0.00  0.00    +0.040 C 
ATOM      6  C   UNL     1      34.442 -15.826 -24.435  0.00  0.00    +0.136 C 
ATOM      7  C   UNL     1      33.382 -13.801 -24.678  0.00  0.00    +0.099 C 
BRANCH   4  11
ATOM      8  N   UNL     1      32.619  -7.897 -22.097  0.00  0.00    -0.280 N 
ATOM      9  N   UNL     1      31.803  -8.639 -21.322  0.00  0.00    -0.173 NA
ATOM     10  C   UNL     1      33.098  -9.920 -22.680  0.00  0.00    +0.032 A 
ATOM     11  C   UNL     1      33.100 -12.227 -22.804  0.00  0.00    +0.002 C 
ATOM     12  C   UNL     1      32.076  -9.911 -21.660  0.00  0.00    +0.102 A 
ATOM     13  C   UNL     1      33.660 -11.029 -23.299  0.00  0.00    +0.003 C 
ATOM     14  C   UNL     1      33.421  -8.617 -22.934  0.00  0.00    +0.053 A 
ATOM     15  C   UNL     1      32.083 -12.266 -21.792  0.00  0.00    +0.002 C 
ATOM     16  C   UNL     1      31.532 -11.118 -21.182  0.00  0.00    +0.021 C 
ATOM     17  C   UNL     1      34.373  -7.969 -23.852  0.00  0.00    +0.051 C 
ATOM     18  H   UNL     1      32.636  -6.914 -22.061  0.00  0.00    +0.189 HD
ENDBRANCH   4  11
ENDBRANCH   1   3
BRANCH   1  19
ATOM     19  C   UNL     1      34.971 -17.876 -22.520  0.00  0.00    +0.184 C 
BRANCH  19  20
ATOM     20  C   UNL     1      35.596 -18.786 -21.454  0.00  0.00    -0.017 C 
BRANCH  20  21
ATOM     21  N   UNL     1      35.968 -17.965 -20.296  0.00  0.00    +0.384 N 
ATOM     22  H   UNL     1      35.156 -17.845 -19.690  0.00  0.00    -0.089 HD
ATOM     23  H   UNL     1      36.292 -17.053 -20.616  0.00  0.00    -0.089 HD
ATOM     24  H   UNL     1      36.714 -18.428 -19.777  0.00  0.00    -0.089 HD
ENDBRANCH  20  21
BRANCH  20  25
ATOM     25  C   UNL     1      34.660 -19.935 -20.992  0.00  0.00    +0.009 C 
BRANCH  25  27
ATOM     26  N   UNL     1      36.520 -21.616 -18.338  0.00  0.00    -0.312 N 
ATOM     27  C   UNL     1      35.156 -20.696 -19.827  0.00  0.00    -0.008 C 
ATOM     28  C   UNL     1      34.366 -21.404 -18.879  0.00  0.00    +0.011 C 
ATOM     29  C   UNL     1      35.246 -21.972 -17.956  0.00  0.00    +0.048 C 
ATOM     30  C   UNL     1      36.476 -20.845 -19.469  0.00  0.00    +0.058 C 
ATOM     31  C   UNL     1      32.983 -21.616 -18.717  0.00  0.00    +0.001 C 
ATOM     32  C   UNL     1      34.810 -22.745 -16.873  0.00  0.00    +0.015 C 
ATOM     33  C   UNL     1      32.532 -22.387 -17.639  0.00  0.00    +0.000 C 
ATOM     34  C   UNL     1      33.434 -22.942 -16.732  0.00  0.00    +0.001 C 
ATOM     35  H   UNL     1      37.343 -21.879 -17.867  0.00  0.00    +0.152 HD
ENDBRANCH  25  27
ENDBRANCH  20  25
ENDBRANCH  19  20
ENDBRANCH   1  19
TORSDOF 7
ENDMDL
MODEL 3
REMARK VINA RESULT:     -12.1      0.609      1.604
REMARK  Name = 10172943
REMARK  7 active torsions:
REMARK  status: ('A' for Active; 'I' for Inactive)
REMARK    1  A    between atoms: O_1  and  C_3
REMARK    2  A    between atoms: O_1  and  C_19
REMARK    3  A    between atoms: C_4  and  C_11
REMARK    4  A    between atoms: C_19  and  C_20
REMARK    5  A    between atoms: C_20  and  N_21
REMARK    6  A    between atoms: C_20  and  C_25
REMARK    7  A    between atoms: C_25  and  C_27
REMARK                            x       y       z     vdW  Elec       q    Type
REMARK                         _______ _______ _______ _____ _____    ______ ____
ROOT
ATOM      1  O   UNL     1      35.136 -16.317 -21.983  0.00  0.00    -0.476 OA
ENDROOT
BRANCH   1   3
ATOM      2  N   UNL     1      33.840 -15.206 -25.202  0.00  0.00    -0.239 NA
ATOM      3  C   UNL     1      34.611 -15.491 -22.942  0.00  0.00    +0.158 C 
ATOM      4  C   UNL     1      33.792 -13.357 -23.645  0.00  0.00    +0.022 C 
ATOM      5  C   UNL     1      34.326 -14.169 -22.652  0.00  0.00    +0.040 C 
ATOM      6  C   UNL     1      34.357 -15.966 -24.211  0.00  0.00    +0.136 C 
ATOM      7  C   UNL     1      33.571 -13.917 -24.893  0.00  0.00    +0.099 C 
BRANCH   4  11
ATOM      8  N   UNL     1      31.897  -8.340 -21.438  0.00  0.00    -0.280 N 
ATOM      9  N   UNL     1      32.553  -8.066 -22.582  0.00  0.00    -0.173 NA
ATOM     10  C   UNL     1      32.527 -10.289 -22.119  0.00  0.00    +0.032 A 
ATOM     11  C   UNL     1      33.479 -11.971 -23.386  0.00  0.00    +0.002 C 
ATOM     12  C   UNL     1      32.961  -9.263 -23.036  0.00  0.00    +0.102 A 
ATOM     13  C   UNL     1      32.744 -11.657 -22.221  0.00  0.00    +0.003 C 
ATOM     14  C   UNL     1      31.850  -9.663 -21.110  0.00  0.00    +0.053 A 
ATOM     15  C   UNL     1      33.931 -10.985 -24.324  0.00  0.00    +0.002 C 
ATOM     16  C   UNL     1      33.693  -9.599 -24.190  0.00  0.00    +0.021 C 
ATOM     17  C   UNL     1      31.176 -10.143 -19.892  0.00  0.00    +0.051 C 
ATOM     18  H   UNL     1      31.483  -7.641 -20.882  0.00  0.00    +0.189 HD
ENDBRANCH   4  11
ENDBRANCH   1   3
BRANCH   1  19
ATOM     19  C   UNL     1      35.774 -17.503 -22.437  0.00  0.00    +0.184 C 
BRANCH  19  20
ATOM     20  C   UNL     1      34.917 -18.748 -22.175  0.00  0.00    -0.017 C 
BRANCH  20  21
ATOM     21  N   UNL     1      34.863 -19.547 -23.406  0.00  0.00    +0.384 N 
ATOM     22  H   UNL     1      34.047 -19.272 -23.952  0.00  0.00    -0.089 HD
ATOM     23  H   UNL     1      34.795 -20.536 -23.166  0.00  0.00    -0.089 HD
ATOM     24  H   UNL     1      35.709 -19.387 -23.952  0.00  0.00    -0.089 HD
ENDBRANCH  20  21
BRANCH  20  25
ATOM     25  C   UNL     1      35.443 -19.631 -21.012  0.00  0.00    +0.009 C 
BRANCH  25  27
ATOM     26  N   UNL     1      32.394 -21.012 -19.552  0.00  0.00    -0.312 N 
ATOM     27  C   UNL     1      34.386 -20.312 -20.236  0.00  0.00    -0.008 C 
ATOM     28  C   UNL     1      34.574 -21.148 -19.100  0.00  0.00    +0.011 C 
ATOM     29  C   UNL     1      33.309 -21.573 -18.690  0.00  0.00    +0.048 C 
ATOM     30  C   UNL     1      33.035 -20.247 -20.490  0.00  0.00    +0.058 C 
ATOM     31  C   UNL     1      35.703 -21.585 -18.379  0.00  0.00    +0.001 C 
ATOM     32  C   UNL     1      33.115 -22.418 -17.591  0.00  0.00    +0.015 C 
ATOM     33  C   UNL     1      35.525 -22.430 -17.277  0.00  0.00    +0.000 C 
ATOM     34  C   UNL     1      34.249 -22.839 -16.891  0.00  0.00    +0.001 C 
ATOM     35  H   UNL     1      31.419 -21.140 -19.501  0.00  0.00    +0.152 HD
ENDBRANCH  25  27
ENDBRANCH  20  25
ENDBRANCH  19  20
ENDBRANCH   1  19
TORSDOF 7
ENDMDL
MODEL 4
REMARK VINA RESULT:     -12.0      2.054     10.623
REMARK  Name = 10172943
REMARK  7 active torsions:
REMARK  status: ('A' for Active; 'I' for Inactive)
REMARK    1  A    between atoms: O_1  and  C_3
REMARK    2  A    between atoms: O_1  and  C_19
REMARK    3  A    between atoms: C_4  and  C_11
REMARK    4  A    between atoms: C_19  and  C_20
REMARK    5  A    between atoms: C_20  and  N_21
REMARK    6  A    between atoms: C_20  and  C_25
REMARK    7  A    between atoms: C_25  and  C_27
REMARK                            x       y       z     vdW  Elec       q    Type
REMARK                         _______ _______ _______ _____ _____    ______ ____
ROOT
ATOM      1  O   UNL     1      34.329 -13.582 -22.834  0.00  0.00    -0.476 OA
ENDROOT
BRANCH   1   3
ATOM      2  N   UNL     1      34.178 -16.579 -24.902  0.00  0.00    -0.239 NA
ATOM      3  C   UNL     1      34.423 -14.901 -23.197  0.00  0.00    +0.158 C 
ATOM      4  C   UNL     1      34.925 -17.181 -22.682  0.00  0.00    +0.022 C 
ATOM      5  C   UNL     1      34.838 -15.853 -22.284  0.00  0.00    +0.040 C 
ATOM      6  C   UNL     1      34.106 -15.297 -24.478  0.00  0.00    +0.136 C 
ATOM      7  C   UNL     1      34.586 -17.491 -23.990  0.00  0.00    +0.099 C 
BRANCH   4  11
ATOM      8  N   UNL     1      35.246 -21.584 -18.921  0.00  0.00    -0.280 N 
ATOM      9  N   UNL     1      36.499 -21.141 -19.146  0.00  0.00    -0.173 NA
ATOM     10  C   UNL     1      34.949 -19.969 -20.323  0.00  0.00    +0.032 A 
ATOM     11  C   UNL     1      35.355 -18.208 -21.762  0.00  0.00    +0.002 C 
ATOM     12  C   UNL     1      36.351 -20.129 -20.018  0.00  0.00    +0.102 A 
ATOM     13  C   UNL     1      34.374 -19.039 -21.178  0.00  0.00    +0.003 C 
ATOM     14  C   UNL     1      34.273 -20.915 -19.604  0.00  0.00    +0.053 A 
ATOM     15  C   UNL     1      36.758 -18.331 -21.490  0.00  0.00    +0.002 C 
ATOM     16  C   UNL     1      37.311 -19.290 -20.612  0.00  0.00    +0.021 C 
ATOM     17  C   UNL     1      32.849 -21.268 -19.480  0.00  0.00    +0.051 C 
ATOM     18  H   UNL     1      35.048 -22.332 -18.313  0.00  0.00    +0.189 HD
ENDBRANCH   4  11
ENDBRANCH   1   3
BRANCH   1  19
ATOM     19  C   UNL     1      33.029 -13.089 -22.540  0.00  0.00    +0.184 C 
BRANCH  19  20
ATOM     20  C   UNL     1      33.026 -11.566 -22.348  0.00  0.00    -0.017 C 
BRANCH  20  21
ATOM     21  N   UNL     1      33.312 -10.930 -23.640  0.00  0.00    +0.384 N 
ATOM     22  H   UNL     1      33.247  -9.917 -23.541  0.00  0.00    -0.089 HD
ATOM     23  H   UNL     1      32.634 -11.249 -24.332  0.00  0.00    -0.089 HD
ATOM     24  H   UNL     1      34.252 -11.184 -23.942  0.00  0.00    -0.089 HD
ENDBRANCH  20  21
BRANCH  20  25
ATOM     25  C   UNL     1      31.689 -11.013 -21.786  0.00  0.00    +0.009 C 
BRANCH  25  27
ATOM     26  N   UNL     1      32.011  -8.773 -18.921  0.00  0.00    -0.312 N 
ATOM     27  C   UNL     1      31.844  -9.904 -20.823  0.00  0.00    -0.008 C 
ATOM     28  C   UNL     1      32.015  -8.527 -21.138  0.00  0.00    +0.011 C 
ATOM     29  C   UNL     1      32.118  -7.839 -19.926  0.00  0.00    +0.048 C 
ATOM     30  C   UNL     1      31.844 -10.024 -19.452  0.00  0.00    +0.058 C 
ATOM     31  C   UNL     1      32.094  -7.797 -22.340  0.00  0.00    +0.001 C 
ATOM     32  C   UNL     1      32.297  -6.453 -19.857  0.00  0.00    +0.015 C 
ATOM     33  C   UNL     1      32.273  -6.410 -22.287  0.00  0.00    +0.000 C 
ATOM     34  C   UNL     1      32.373  -5.750 -21.063  0.00  0.00    +0.001 C 
ATOM     35  H   UNL     1      32.048  -8.571 -17.958  0.00  0.00    +0.152 HD
ENDBRANCH  25  27
ENDBRANCH  20  25
ENDBRANCH  19  20
ENDBRANCH   1  19
TORSDOF 7
ENDMDL
MODEL 5
REMARK VINA RESULT:     -11.8      1.715     10.811
REMARK  Name = 10172943
REMARK  7 active torsions:
REMARK  status: ('A' for Active; 'I' for Inactive)
REMARK    1  A    between atoms: O_1  and  C_3
REMARK    2  A    between atoms: O_1  and  C_19
REMARK    3  A    between atoms: C_4  and  C_11
REMARK    4  A    between atoms: C_19  and  C_20
REMARK    5  A    between atoms: C_20  and  N_21
REMARK    6  A    between atoms: C_20  and  C_25
REMARK    7  A    between atoms: C_25  and  C_27
REMARK                            x       y       z     vdW  Elec       q    Type
REMARK                         _______ _______ _______ _____ _____    ______ ____
ROOT
ATOM      1  O   UNL     1      35.273 -15.020 -23.012  0.00  0.00    -0.476 OA
ENDROOT
BRANCH   1   3
ATOM      2  N   UNL     1      34.125 -18.205 -24.362  0.00  0.00    -0.239 NA
ATOM      3  C   UNL     1      34.989 -16.359 -23.085  0.00  0.00    +0.158 C 
ATOM      4  C   UNL     1      34.966 -18.548 -22.121  0.00  0.00    +0.022 C 
ATOM      5  C   UNL     1      35.263 -17.194 -22.017  0.00  0.00    +0.040 C 
ATOM      6  C   UNL     1      34.428 -16.895 -24.224  0.00  0.00    +0.136 C 
ATOM      7  C   UNL     1      34.402 -19.000 -23.304  0.00  0.00    +0.099 C 
BRANCH   4  11
ATOM      8  N   UNL     1      34.620 -22.306 -17.718  0.00  0.00    -0.280 N 
ATOM      9  N   UNL     1      35.924 -22.041 -17.933  0.00  0.00    -0.173 NA
ATOM     10  C   UNL     1      34.569 -20.912 -19.365  0.00  0.00    +0.032 A 
ATOM     11  C   UNL     1      35.236 -19.455 -21.031  0.00  0.00    +0.002 C 
ATOM     12  C   UNL     1      35.930 -21.171 -18.957  0.00  0.00    +0.102 A 
ATOM     13  C   UNL     1      34.142 -20.073 -20.386  0.00  0.00    +0.003 C 
ATOM     14  C   UNL     1      33.760 -21.654 -18.552  0.00  0.00    +0.053 A 
ATOM     15  C   UNL     1      36.603 -19.683 -20.659  0.00  0.00    +0.002 C 
ATOM     16  C   UNL     1      37.005 -20.544 -19.614  0.00  0.00    +0.021 C 
ATOM     17  C   UNL     1      32.300 -21.827 -18.460  0.00  0.00    +0.051 C 
ATOM     18  H   UNL     1      34.312 -22.922 -17.015  0.00  0.00    +0.189 HD
ENDBRANCH   4  11
ENDBRANCH   1   3
BRANCH   1  19
ATOM     19  C   UNL     1      34.207 -14.158 -22.637  0.00  0.00    +0.184 C 
BRANCH  19  20
ATOM     20  C   UNL     1      33.906 -13.117 -23.723  0.00  0.00    -0.017 C 
BRANCH  20  21
ATOM     21  N   UNL     1      33.036 -13.730 -24.734  0.00  0.00    +0.384 N 
ATOM     22  H   UNL     1      32.713 -13.014 -25.384  0.00  0.00    -0.089 HD
ATOM     23  H   UNL     1      32.233 -14.161 -24.274  0.00  0.00    -0.089 HD
ATOM     24  H   UNL     1      33.558 -14.443 -25.243  0.00  0.00    -0.089 HD
ENDBRANCH  20  21
BRANCH  20  25
ATOM     25  C   UNL     1      33.233 -11.828 -23.179  0.00  0.00    +0.009 C 
BRANCH  25  27
ATOM     26  N   UNL     1      35.177  -9.130 -24.687  0.00  0.00    -0.312 N 
ATOM     27  C   UNL     1      33.889 -10.573 -23.597  0.00  0.00    -0.008 C 
ATOM     28  C   UNL     1      33.690  -9.283 -23.031  0.00  0.00    +0.011 C 
ATOM     29  C   UNL     1      34.510  -8.396 -23.733  0.00  0.00    +0.048 C 
ATOM     30  C   UNL     1      34.809 -10.447 -24.613  0.00  0.00    +0.058 C 
ATOM     31  C   UNL     1      32.888  -8.782 -21.987  0.00  0.00    +0.001 C 
ATOM     32  C   UNL     1      34.567  -7.028 -23.441  0.00  0.00    +0.015 C 
ATOM     33  C   UNL     1      32.935  -7.417 -21.683  0.00  0.00    +0.000 C 
ATOM     34  C   UNL     1      33.762  -6.555 -22.401  0.00  0.00    +0.001 C 
ATOM     35  H   UNL     1      35.826  -8.762 -25.329  0.00  0.00    +0.152 HD
ENDBRANCH  25  27
ENDBRANCH  20  25
ENDBRANCH  19  20
ENDBRANCH   1  19
TORSDOF 7
ENDMDL
MODEL 6
REMARK VINA RESULT:     -11.7      1.838     11.031
REMARK  Name = 10172943
REMARK  7 active torsions:
REMARK  status: ('A' for Active; 'I' for Inactive)
REMARK    1  A    between atoms: O_1  and  C_3
REMARK    2  A    between atoms: O_1  and  C_19
REMARK    3  A    between atoms: C_4  and  C_11
REMARK    4  A    between atoms: C_19  and  C_20
REMARK    5  A    between atoms: C_20  and  N_21
REMARK    6  A    between atoms: C_20  and  C_25
REMARK    7  A    between atoms: C_25  and  C_27
REMARK                            x       y       z     vdW  Elec       q    Type
REMARK                         _______ _______ _______ _____ _____    ______ ____
ROOT
ATOM      1  O   UNL     1      34.519 -13.712 -22.998  0.00  0.00    -0.476 OA
ENDROOT
BRANCH   1   3
ATOM      2  N   UNL     1      34.128 -16.800 -24.892  0.00  0.00    -0.239 NA
ATOM      3  C   UNL     1      34.531 -15.050 -23.292  0.00  0.00    +0.158 C 
ATOM      4  C   UNL     1      34.943 -17.324 -22.677  0.00  0.00    +0.022 C 
ATOM      5  C   UNL     1      34.939 -15.974 -22.348  0.00  0.00    +0.040 C 
ATOM      6  C   UNL     1      34.138 -15.496 -24.536  0.00  0.00    +0.136 C 
ATOM      7  C   UNL     1      34.531 -17.683 -23.951  0.00  0.00    +0.099 C 
BRANCH   4  11
ATOM      8  N   UNL     1      35.224 -21.636 -18.809  0.00  0.00    -0.280 N 
ATOM      9  N   UNL     1      36.476 -21.176 -19.006  0.00  0.00    -0.173 NA
ATOM     10  C   UNL     1      34.942 -20.058 -20.255  0.00  0.00    +0.032 A 
ATOM     11  C   UNL     1      35.362 -18.323 -21.721  0.00  0.00    +0.002 C 
ATOM     12  C   UNL     1      36.337 -20.187 -19.906  0.00  0.00    +0.102 A 
ATOM     13  C   UNL     1      34.378 -19.157 -21.148  0.00  0.00    +0.003 C 
ATOM     14  C   UNL     1      34.261 -21.000 -19.536  0.00  0.00    +0.053 A 
ATOM     15  C   UNL     1      36.758 -18.415 -21.405  0.00  0.00    +0.002 C 
ATOM     16  C   UNL     1      37.301 -19.345 -20.490  0.00  0.00    +0.021 C 
ATOM     17  C   UNL     1      32.840 -21.374 -19.446  0.00  0.00    +0.051 C 
ATOM     18  H   UNL     1      35.021 -22.374 -18.190  0.00  0.00    +0.189 HD
ENDBRANCH   4  11
ENDBRANCH   1   3
BRANCH   1  19
ATOM     19  C   UNL     1      33.767 -12.871 -23.863  0.00  0.00    +0.184 C 
BRANCH  19  20
ATOM     20  C   UNL     1      33.030 -11.770 -23.091  0.00  0.00    -0.017 C 
BRANCH  20  21
ATOM     21  N   UNL     1      32.704 -12.274 -21.751  0.00  0.00    +0.384 N 
ATOM     22  H   UNL     1      31.762 -11.975 -21.496  0.00  0.00    -0.089 HD
ATOM     23  H   UNL     1      33.374 -11.905 -21.077  0.00  0.00    -0.089 HD
ATOM     24  H   UNL     1      32.749 -13.293 -21.752  0.00  0.00    -0.089 HD
ENDBRANCH  20  21
BRANCH  20  25
ATOM     25  C   UNL     1      33.841 -10.453 -22.961  0.00  0.00    +0.009 C 
BRANCH  25  27
ATOM     26  N   UNL     1      31.299  -7.870 -22.518  0.00  0.00    -0.312 N 
ATOM     27  C   UNL     1      33.014  -9.232 -22.877  0.00  0.00    -0.008 C 
ATOM     28  C   UNL     1      33.415  -7.911 -23.222  0.00  0.00    +0.011 C 
ATOM     29  C   UNL     1      32.320  -7.076 -22.987  0.00  0.00    +0.048 C 
ATOM     30  C   UNL     1      31.707  -9.175 -22.448  0.00  0.00    +0.058 C 
ATOM     31  C   UNL     1      34.608  -7.343 -23.712  0.00  0.00    +0.001 C 
ATOM     32  C   UNL     1      32.360  -5.696 -23.219  0.00  0.00    +0.015 C 
ATOM     33  C   UNL     1      34.662  -5.965 -23.948  0.00  0.00    +0.000 C 
ATOM     34  C   UNL     1      33.554  -5.156 -23.705  0.00  0.00    +0.001 C 
ATOM     35  H   UNL     1      30.403  -7.546 -22.269  0.00  0.00    +0.152 HD
ENDBRANCH  25  27
ENDBRANCH  20  25
ENDBRANCH  19  20
ENDBRANCH   1  19
TORSDOF 7
ENDMDL
MODEL 7
REMARK VINA RESULT:     -11.4      1.500      2.739
REMARK  Name = 10172943
REMARK  7 active torsions:
REMARK  status: ('A' for Active; 'I' for Inactive)
REMARK    1  A    between atoms: O_1  and  C_3
REMARK    2  A    between atoms: O_1  and  C_19
REMARK    3  A    between atoms: C_4  and  C_11
REMARK    4  A    between atoms: C_19  and  C_20
REMARK    5  A    between atoms: C_20  and  N_21
REMARK    6  A    between atoms: C_20  and  C_25
REMARK    7  A    between atoms: C_25  and  C_27
REMARK                            x       y       z     vdW  Elec       q    Type
REMARK                         _______ _______ _______ _____ _____    ______ ____
ROOT
ATOM      1  O   UNL     1      35.505 -17.384 -21.401  0.00  0.00    -0.476 OA
ENDROOT
BRANCH   1   3
ATOM      2  N   UNL     1      34.287 -16.757 -24.777  0.00  0.00    -0.239 NA
ATOM      3  C   UNL     1      34.987 -16.712 -22.477  0.00  0.00    +0.158 C 
ATOM      4  C   UNL     1      34.125 -14.721 -23.483  0.00  0.00    +0.022 C 
ATOM      5  C   UNL     1      34.649 -15.375 -22.375  0.00  0.00    +0.040 C 
ATOM      6  C   UNL     1      34.794 -17.359 -23.678  0.00  0.00    +0.136 C 
ATOM      7  C   UNL     1      33.965 -15.449 -24.651  0.00  0.00    +0.099 C 
BRANCH   4  11
ATOM      8  N   UNL     1      32.073  -9.511 -21.974  0.00  0.00    -0.280 N 
ATOM      9  N   UNL     1      32.682  -9.384 -23.170  0.00  0.00    -0.173 NA
ATOM     10  C   UNL     1      32.769 -11.513 -22.382  0.00  0.00    +0.032 A 
ATOM     11  C   UNL     1      33.757 -13.326 -23.420  0.00  0.00    +0.002 C 
ATOM     12  C   UNL     1      33.129 -10.619 -23.456  0.00  0.00    +0.102 A 
ATOM     13  C   UNL     1      33.044 -12.871 -22.289  0.00  0.00    +0.003 C 
ATOM     14  C   UNL     1      32.095 -10.771 -21.453  0.00  0.00    +0.053 A 
ATOM     15  C   UNL     1      34.136 -12.474 -24.510  0.00  0.00    +0.002 C 
ATOM     16  C   UNL     1      33.841 -11.094 -24.574  0.00  0.00    +0.021 C 
ATOM     17  C   UNL     1      31.480 -11.090 -20.154  0.00  0.00    +0.051 C 
ATOM     18  H   UNL     1      31.645  -8.753 -21.514  0.00  0.00    +0.189 HD
ENDBRANCH   4  11
ENDBRANCH   1   3
BRANCH   1  19
ATOM     19  C   UNL     1      35.725 -18.779 -21.561  0.00  0.00    +0.184 C 
BRANCH  19  20
ATOM     20  C   UNL     1      35.121 -19.588 -20.406  0.00  0.00    -0.017 C 
BRANCH  20  21
ATOM     21  N   UNL     1      33.680 -19.740 -20.642  0.00  0.00    +0.384 N 
ATOM     22  H   UNL     1      33.330 -20.535 -20.107  0.00  0.00    -0.089 HD
ATOM     23  H   UNL     1      33.514 -19.899 -21.636  0.00  0.00    -0.089 HD
ATOM     24  H   UNL     1      33.196 -18.892 -20.349  0.00  0.00    -0.089 HD
ENDBRANCH  20  21
BRANCH  20  25
ATOM     25  C   UNL     1      35.764 -20.989 -20.226  0.00  0.00    +0.009 C 
BRANCH  25  27
ATOM     26  N   UNL     1      36.692 -21.851 -16.801  0.00  0.00    -0.312 N 
ATOM     27  C   UNL     1      35.873 -21.436 -18.822  0.00  0.00    -0.008 C 
ATOM     28  C   UNL     1      34.853 -22.055 -18.047  0.00  0.00    +0.011 C 
ATOM     29  C   UNL     1      35.393 -22.305 -16.784  0.00  0.00    +0.048 C 
ATOM     30  C   UNL     1      36.993 -21.325 -18.029  0.00  0.00    +0.058 C 
ATOM     31  C   UNL     1      33.518 -22.426 -18.300  0.00  0.00    +0.001 C 
ATOM     32  C   UNL     1      34.660 -22.911 -15.756  0.00  0.00    +0.015 C 
ATOM     33  C   UNL     1      32.773 -23.033 -17.282  0.00  0.00    +0.000 C 
ATOM     34  C   UNL     1      33.338 -23.271 -16.030  0.00  0.00    +0.001 C 
ATOM     35  H   UNL     1      37.316 -21.900 -16.041  0.00  0.00    +0.152 HD
ENDBRANCH  25  27
ENDBRANCH  20  25
ENDBRANCH  19  20
ENDBRANCH   1  19
TORSDOF 7
ENDMDL
MODEL 8
REMARK VINA RESULT:     -11.2      2.095      3.743
REMARK  Name = 10172943
REMARK  7 active torsions:
REMARK  status: ('A' for Active; 'I' for Inactive)
REMARK    1  A    between atoms: O_1  and  C_3
REMARK    2  A    between atoms: O_1  and  C_19
REMARK    3  A    between atoms: C_4  and  C_11
REMARK    4  A    between atoms: C_19  and  C_20
REMARK    5  A    between atoms: C_20  and  N_21
REMARK    6  A    between atoms: C_20  and  C_25
REMARK    7  A    between atoms: C_25  and  C_27
REMARK                            x       y       z     vdW  Elec       q    Type
REMARK                         _______ _______ _______ _____ _____    ______ ____
ROOT
ATOM      1  O   UNL     1      34.444 -13.755 -23.449  0.00  0.00    -0.476 OA
ENDROOT
BRANCH   1   3
ATOM      2  N   UNL     1      31.754 -12.210 -21.536  0.00  0.00    -0.239 NA
ATOM      3  C   UNL     1      33.634 -12.782 -22.923  0.00  0.00    +0.158 C 
ATOM      4  C   UNL     1      33.017 -10.486 -22.667  0.00  0.00    +0.022 C 
ATOM      5  C   UNL     1      33.854 -11.449 -23.217  0.00  0.00    +0.040 C 
ATOM      6  C   UNL     1      32.589 -13.118 -22.090  0.00  0.00    +0.136 C 
ATOM      7  C   UNL     1      31.990 -10.913 -21.841  0.00  0.00    +0.099 C 
BRANCH   4  11
ATOM      8  N   UNL     1      32.584  -4.715 -23.038  0.00  0.00    -0.280 N 
ATOM      9  N   UNL     1      33.697  -5.088 -23.701  0.00  0.00    -0.173 NA
ATOM     10  C   UNL     1      32.594  -6.860 -22.804  0.00  0.00    +0.032 A 
ATOM     11  C   UNL     1      33.212  -9.082 -22.947  0.00  0.00    +0.002 C 
ATOM     12  C   UNL     1      33.734  -6.426 -23.575  0.00  0.00    +0.102 A 
ATOM     13  C   UNL     1      32.264  -8.162 -22.449  0.00  0.00    +0.003 C 
ATOM     14  C   UNL     1      31.882  -5.741 -22.478  0.00  0.00    +0.053 A 
ATOM     15  C   UNL     1      34.359  -8.696 -23.717  0.00  0.00    +0.002 C 
ATOM     16  C   UNL     1      34.667  -7.361 -24.061  0.00  0.00    +0.021 C 
ATOM     17  C   UNL     1      30.642  -5.514 -21.716  0.00  0.00    +0.051 C 
ATOM     18  H   UNL     1      32.301  -3.775 -22.964  0.00  0.00    +0.189 HD
ENDBRANCH   4  11
ENDBRANCH   1   3
BRANCH   1  19
ATOM     19  C   UNL     1      34.017 -15.101 -23.288  0.00  0.00    +0.184 C 
BRANCH  19  20
ATOM     20  C   UNL     1      35.056 -15.943 -22.537  0.00  0.00    -0.017 C 
BRANCH  20  21
ATOM     21  N   UNL     1      34.884 -15.726 -21.096  0.00  0.00    +0.384 N 
ATOM     22  H   UNL     1      34.925 -16.622 -20.610  0.00  0.00    -0.089 HD
ATOM     23  H   UNL     1      33.980 -15.286 -20.924  0.00  0.00    -0.089 HD
ATOM     24  H   UNL     1      35.628 -15.118 -20.753  0.00  0.00    -0.089 HD
ENDBRANCH  20  21
BRANCH  20  25
ATOM     25  C   UNL     1      34.963 -17.462 -22.843  0.00  0.00    +0.009 C 
BRANCH  25  27
ATOM     26  N   UNL     1      37.341 -19.252 -20.728  0.00  0.00    -0.312 N 
ATOM     27  C   UNL     1      35.695 -18.323 -21.892  0.00  0.00    -0.008 C 
ATOM     28  C   UNL     1      35.132 -19.307 -21.032  0.00  0.00    +0.011 C 
ATOM     29  C   UNL     1      36.185 -19.875 -20.313  0.00  0.00    +0.048 C 
ATOM     30  C   UNL     1      37.056 -18.313 -21.682  0.00  0.00    +0.058 C 
ATOM     31  C   UNL     1      33.822 -19.769 -20.795  0.00  0.00    +0.001 C 
ATOM     32  C   UNL     1      35.994 -20.887 -19.365  0.00  0.00    +0.015 C 
ATOM     33  C   UNL     1      33.615 -20.781 -19.850  0.00  0.00    +0.000 C 
ATOM     34  C   UNL     1      34.686 -21.329 -19.147  0.00  0.00    +0.001 C 
ATOM     35  H   UNL     1      38.243 -19.454 -20.388  0.00  0.00    +0.152 HD
ENDBRANCH  25  27
ENDBRANCH  20  25
ENDBRANCH  19  20
ENDBRANCH   1  19
TORSDOF 7
ENDMDL
MODEL 9
REMARK VINA RESULT:     -11.2      3.578     11.488
REMARK  Name = 10172943
REMARK  7 active torsions:
REMARK  status: ('A' for Active; 'I' for Inactive)
REMARK    1  A    between atoms: O_1  and  C_3
REMARK    2  A    between atoms: O_1  and  C_19
REMARK    3  A    between atoms: C_4  and  C_11
REMARK    4  A    between atoms: C_19  and  C_20
REMARK    5  A    between atoms: C_20  and  N_21
REMARK    6  A    between atoms: C_20  and  C_25
REMARK    7  A    between atoms: C_25  and  C_27
REMARK                            x       y       z     vdW  Elec       q    Type
REMARK                         _______ _______ _______ _____ _____    ______ ____
ROOT
ATOM      1  O   UNL     1      35.513 -21.499 -19.517  0.00  0.00    -0.476 OA
ENDROOT
BRANCH   1   3
ATOM      2  N   UNL     1      36.966 -22.074 -16.225  0.00  0.00    -0.239 NA
ATOM      3  C   UNL     1      35.611 -21.871 -18.201  0.00  0.00    +0.158 C 
ATOM      4  C   UNL     1      34.647 -22.758 -16.201  0.00  0.00    +0.022 C 
ATOM      5  C   UNL     1      34.517 -22.392 -17.535  0.00  0.00    +0.040 C 
ATOM      6  C   UNL     1      36.801 -21.729 -17.522  0.00  0.00    +0.136 C 
ATOM      7  C   UNL     1      35.882 -22.582 -15.596  0.00  0.00    +0.099 C 
BRANCH   4  11
ATOM      8  N   UNL     1      29.399 -24.308 -14.282  0.00  0.00    -0.280 N 
ATOM      9  N   UNL     1      30.315 -24.823 -13.438  0.00  0.00    -0.173 NA
ATOM     10  C   UNL     1      31.269 -23.646 -15.131  0.00  0.00    +0.032 A 
ATOM     11  C   UNL     1      33.530 -23.305 -15.466  0.00  0.00    +0.002 C 
ATOM     12  C   UNL     1      31.498 -24.428 -13.939  0.00  0.00    +0.102 A 
ATOM     13  C   UNL     1      32.226 -23.054 -15.945  0.00  0.00    +0.003 C 
ATOM     14  C   UNL     1      29.917 -23.591 -15.319  0.00  0.00    +0.053 A 
ATOM     15  C   UNL     1      33.804 -24.075 -14.288  0.00  0.00    +0.002 C 
ATOM     16  C   UNL     1      32.807 -24.665 -13.480  0.00  0.00    +0.021 C 
ATOM     17  C   UNL     1      29.061 -22.960 -16.338  0.00  0.00    +0.051 C 
ATOM     18  H   UNL     1      28.431 -24.440 -14.159  0.00  0.00    +0.189 HD
ENDBRANCH   4  11
ENDBRANCH   1   3
BRANCH   1  19
ATOM     19  C   UNL     1      36.166 -20.294 -19.893  0.00  0.00    +0.184 C 
BRANCH  19  20
ATOM     20  C   UNL     1      35.377 -19.526 -20.961  0.00  0.00    -0.017 C 
BRANCH  20  21
ATOM     21  N   UNL     1      33.943 -19.693 -20.695  0.00  0.00    +0.384 N 
ATOM     22  H   UNL     1      33.489 -20.089 -21.518  0.00  0.00    -0.089 HD
ATOM     23  H   UNL     1      33.529 -18.786 -20.481  0.00  0.00    -0.089 HD
ATOM     24  H   UNL     1      33.816 -20.321 -19.901  0.00  0.00    -0.089 HD
ENDBRANCH  20  21
BRANCH  20  25
ATOM     25  C   UNL     1      35.717 -18.013 -21.017  0.00  0.00    +0.009 C 
BRANCH  25  27
ATOM     26  N   UNL     1      34.681 -16.921 -24.343  0.00  0.00    -0.312 N 
ATOM     27  C   UNL     1      35.242 -17.324 -22.234  0.00  0.00    -0.008 C 
ATOM     28  C   UNL     1      34.780 -15.981 -22.323  0.00  0.00    +0.011 C 
ATOM     29  C   UNL     1      34.434 -15.753 -23.657  0.00  0.00    +0.048 C 
ATOM     30  C   UNL     1      35.170 -17.876 -23.493  0.00  0.00    +0.058 C 
ATOM     31  C   UNL     1      34.621 -14.935 -21.393  0.00  0.00    +0.001 C 
ATOM     32  C   UNL     1      33.936 -14.526 -24.109  0.00  0.00    +0.015 C 
ATOM     33  C   UNL     1      34.123 -13.702 -21.831  0.00  0.00    +0.000 C 
ATOM     34  C   UNL     1      33.787 -13.503 -23.169  0.00  0.00    +0.001 C 
ATOM     35  H   UNL     1      34.529 -17.049 -25.308  0.00  0.00    +0.152 HD
ENDBRANCH  25  27
ENDBRANCH  20  25
ENDBRANCH  19  20
ENDBRANCH   1  19
TORSDOF 7
ENDMDL
