MODEL 1
REMARK VINA RESULT:     -11.5      0.000      0.000
REMARK  Name = 4413
REMARK  6 active torsions:
REMARK  status: ('A' for Active; 'I' for Inactive)
REMARK    1  A    between atoms: O_1  and  C_9
REMARK    2  A    between atoms: O_1  and  C_19
REMARK    3  A    between atoms: C_6  and  C_14
REMARK    4  A    between atoms: C_19  and  C_20
REMARK    5  A    between atoms: C_23  and  N_26
REMARK    6  A    between atoms: N_26  and  C_29
REMARK                            x       y       z     vdW  Elec       q    Type
REMARK                         _______ _______ _______ _____ _____    ______ ____
ROOT
ATOM      1  O   UNL     1      36.070 -17.843 -22.591  0.00  0.00    -0.421 OA
ENDROOT
BRANCH   1   9
ATOM      2  C   UNL     1      35.327 -20.653 -19.601  0.00  0.00    +0.000 C 
ATOM      3  C   UNL     1      34.249 -20.083 -20.320  0.00  0.00    +0.003 C 
ATOM      4  C   UNL     1      35.059 -21.598 -18.597  0.00  0.00    +0.003 C 
ATOM      5  C   UNL     1      34.517 -19.138 -21.324  0.00  0.00    +0.038 C 
ATOM      6  C   UNL     1      33.748 -21.977 -18.307  0.00  0.00    +0.031 C 
ATOM      7  C   UNL     1      32.936 -20.476 -20.015  0.00  0.00    +0.000 C 
ATOM      8  C   UNL     1      36.640 -20.260 -19.906  0.00  0.00    +0.003 C 
ATOM      9  C   UNL     1      35.828 -18.759 -21.614  0.00  0.00    +0.149 C 
ATOM     10  C   UNL     1      32.688 -21.417 -19.015  0.00  0.00    +0.003 C 
ATOM     11  C   UNL     1      36.887 -19.320 -20.907  0.00  0.00    +0.038 C 
BRANCH   6  14
ATOM     12  N   UNL     1      32.190 -23.363 -16.960  0.00  0.00    -0.343 N 
ATOM     13  N   UNL     1      34.494 -23.476 -16.584  0.00  0.00    -0.285 NA
ATOM     14  C   UNL     1      33.488 -22.956 -17.265  0.00  0.00    +0.117 C 
ATOM     15  H   UNL     1      32.038 -24.028 -16.250  0.00  0.00    +0.144 HD
ATOM     16  H   UNL     1      31.427 -22.986 -17.454  0.00  0.00    +0.144 HD
ATOM     17  H   UNL     1      34.320 -24.140 -15.878  0.00  0.00    +0.188 HD
ENDBRANCH   6  14
ENDBRANCH   1   9
BRANCH   1  19
ATOM     18  O   UNL     1      34.422 -18.440 -24.125  0.00  0.00    -0.244 OA
ATOM     19  C   UNL     1      34.985 -17.603 -23.436  0.00  0.00    +0.346 C 
BRANCH  19  20
ATOM     20  C   UNL     1      34.575 -16.176 -23.394  0.00  0.00    +0.076 C 
ATOM     21  C   UNL     1      33.952 -15.627 -24.496  0.00  0.00    +0.008 C 
ATOM     22  C   UNL     1      34.828 -15.444 -22.251  0.00  0.00    +0.008 C 
ATOM     23  C   UNL     1      33.808 -13.527 -23.312  0.00  0.00    +0.084 C 
ATOM     24  C   UNL     1      33.565 -14.288 -24.454  0.00  0.00    +0.019 C 
ATOM     25  C   UNL     1      34.440 -14.104 -22.210  0.00  0.00    +0.019 C 
BRANCH  23  26
ATOM     26  N   UNL     1      33.422 -12.184 -23.270  0.00  0.00    -0.214 NA
BRANCH  26  29
ATOM     27  N   UNL     1      34.825 -10.355 -23.653  0.00  0.00    -0.370 N 
ATOM     28  N   UNL     1      33.818 -11.291 -25.474  0.00  0.00    -0.370 N 
ATOM     29  C   UNL     1      33.977 -11.339 -24.107  0.00  0.00    +0.193 C 
ATOM     30  H   UNL     1      35.022 -10.280 -22.692  0.00  0.00    +0.159 HD
ATOM     31  H   UNL     1      35.235  -9.726 -24.290  0.00  0.00    +0.159 HD
ATOM     32  H   UNL     1      33.235 -11.944 -25.924  0.00  0.00    +0.159 HD
ATOM     33  H   UNL     1      34.290 -10.606 -26.002  0.00  0.00    +0.159 HD
ENDBRANCH  26  29
ENDBRANCH  23  26
ENDBRANCH  19  20
ENDBRANCH   1  19
TORSDOF 6
ENDMDL
MODEL 2
REMARK VINA RESULT:     -11.3      1.062      9.192
REMARK  Name = 4413
REMARK  6 active torsions:
REMARK  status: ('A' for Active; 'I' for Inactive)
REMARK    1  A    between atoms: O_1  and  C_9
REMARK    2  A    between atoms: O_1  and  C_19
REMARK    3  A    between atoms: C_6  and  C_14
REMARK    4  A    between atoms: C_19  and  C_20
REMARK    5  A    between atoms: C_23  and  N_26
REMARK    6  A    between atoms: N_26  and  C_29
REMARK                            x       y       z     vdW  Elec       q    Type
REMARK                         _______ _______ _______ _____ _____    ______ ____
ROOT
ATOM      1  O   UNL     1      35.430 -18.951 -22.240  0.00  0.00    -0.421 OA
ENDROOT
BRANCH   1   9
ATOM      2  C   UNL     1      34.319 -15.149 -23.542  0.00  0.00    +0.000 C 
ATOM      3  C   UNL     1      34.607 -15.372 -22.174  0.00  0.00    +0.003 C 
ATOM      4  C   UNL     1      33.946 -13.863 -23.964  0.00  0.00    +0.003 C 
ATOM      5  C   UNL     1      34.980 -16.659 -21.753  0.00  0.00    +0.038 C 
ATOM      6  C   UNL     1      33.860 -12.811 -23.052  0.00  0.00    +0.031 C 
ATOM      7  C   UNL     1      34.516 -14.303 -21.270  0.00  0.00    +0.000 C 
ATOM      8  C   UNL     1      34.410 -16.220 -24.447  0.00  0.00    +0.003 C 
ATOM      9  C   UNL     1      35.066 -17.711 -22.665  0.00  0.00    +0.149 C 
ATOM     10  C   UNL     1      34.144 -13.030 -21.707  0.00  0.00    +0.003 C 
ATOM     11  C   UNL     1      34.782 -17.491 -24.009  0.00  0.00    +0.038 C 
BRANCH   6  14
ATOM     12  N   UNL     1      32.703 -10.641 -22.704  0.00  0.00    -0.343 N 
ATOM     13  N   UNL     1      33.848 -11.061 -24.699  0.00  0.00    -0.285 NA
ATOM     14  C   UNL     1      33.472 -11.485 -23.505  0.00  0.00    +0.117 C 
ATOM     15  H   UNL     1      32.453  -9.747 -23.031  0.00  0.00    +0.144 HD
ATOM     16  H   UNL     1      32.411 -10.939 -21.813  0.00  0.00    +0.144 HD
ATOM     17  H   UNL     1      33.586 -10.163 -25.007  0.00  0.00    +0.188 HD
ENDBRANCH   6  14
ENDBRANCH   1   9
BRANCH   1  19
ATOM     18  O   UNL     1      36.637 -18.240 -20.378  0.00  0.00    -0.244 OA
ATOM     19  C   UNL     1      35.844 -19.004 -20.907  0.00  0.00    +0.346 C 
BRANCH  19  20
ATOM     20  C   UNL     1      35.184 -20.120 -20.182  0.00  0.00    +0.076 C 
ATOM     21  C   UNL     1      33.810 -20.228 -20.233  0.00  0.00    +0.008 C 
ATOM     22  C   UNL     1      35.967 -21.014 -19.482  0.00  0.00    +0.008 C 
ATOM     23  C   UNL     1      33.959 -22.196 -18.840  0.00  0.00    +0.084 C 
ATOM     24  C   UNL     1      33.191 -21.278 -19.554  0.00  0.00    +0.019 C 
ATOM     25  C   UNL     1      35.348 -22.064 -18.802  0.00  0.00    +0.019 C 
BRANCH  23  26
ATOM     26  N   UNL     1      33.339 -23.247 -18.158  0.00  0.00    -0.214 NA
BRANCH  26  29
ATOM     27  N   UNL     1      33.443 -23.167 -15.825  0.00  0.00    -0.370 N 
ATOM     28  N   UNL     1      31.467 -22.569 -16.798  0.00  0.00    -0.370 N 
ATOM     29  C   UNL     1      32.759 -23.000 -17.007  0.00  0.00    +0.193 C 
ATOM     30  H   UNL     1      34.379 -23.472 -15.836  0.00  0.00    +0.159 HD
ATOM     31  H   UNL     1      32.997 -22.979 -14.967  0.00  0.00    +0.159 HD
ATOM     32  H   UNL     1      30.871 -22.412 -17.565  0.00  0.00    +0.159 HD
ATOM     33  H   UNL     1      31.140 -22.417 -15.881  0.00  0.00    +0.159 HD
ENDBRANCH  26  29
ENDBRANCH  23  26
ENDBRANCH  19  20
ENDBRANCH   1  19
TORSDOF 6
ENDMDL
MODEL 3
REMARK VINA RESULT:     -11.3      4.580      7.253
REMARK  Name = 4413
REMARK  6 active torsions:
REMARK  status: ('A' for Active; 'I' for Inactive)
REMARK    1  A    between atoms: O_1  and  C_9
REMARK    2  A    between atoms: O_1  and  C_19
REMARK    3  A    between atoms: C_6  and  C_14
REMARK    4  A    between atoms: C_19  and  C_20
REMARK    5  A    between atoms: C_23  and  N_26
REMARK    6  A    between atoms: N_26  and  C_29
REMARK                            x       y       z     vdW  Elec       q    Type
REMARK                         _______ _______ _______ _____ _____    ______ ____
ROOT
ATOM      1  O   UNL     1      32.578 -22.583 -17.489  0.00  0.00    -0.421 OA
ENDROOT
BRANCH   1   9
ATOM      2  C   UNL     1      33.912 -23.795 -13.728  0.00  0.00    +0.000 C 
ATOM      3  C   UNL     1      34.839 -23.333 -14.694  0.00  0.00    +0.003 C 
ATOM      4  C   UNL     1      34.377 -24.199 -12.467  0.00  0.00    +0.003 C 
ATOM      5  C   UNL     1      34.373 -22.929 -15.955  0.00  0.00    +0.038 C 
ATOM      6  C   UNL     1      35.737 -24.148 -12.161  0.00  0.00    +0.031 C 
ATOM      7  C   UNL     1      36.204 -23.289 -14.368  0.00  0.00    +0.000 C 
ATOM      8  C   UNL     1      32.546 -23.839 -14.054  0.00  0.00    +0.003 C 
ATOM      9  C   UNL     1      33.012 -22.980 -16.262  0.00  0.00    +0.149 C 
ATOM     10  C   UNL     1      36.649 -23.694 -13.109  0.00  0.00    +0.003 C 
ATOM     11  C   UNL     1      32.102 -23.433 -15.313  0.00  0.00    +0.038 C 
BRANCH   6  14
ATOM     12  N   UNL     1      37.558 -24.546 -10.519  0.00  0.00    -0.343 N 
ATOM     13  N   UNL     1      35.336 -24.991  -9.946  0.00  0.00    -0.285 NA
ATOM     14  C   UNL     1      36.204 -24.571 -10.850  0.00  0.00    +0.117 C 
ATOM     15  H   UNL     1      37.851 -24.836  -9.625  0.00  0.00    +0.144 HD
ATOM     16  H   UNL     1      38.220 -24.239 -11.179  0.00  0.00    +0.144 HD
ATOM     17  H   UNL     1      35.650 -25.277  -9.058  0.00  0.00    +0.188 HD
ENDBRANCH   6  14
ENDBRANCH   1   9
BRANCH   1  19
ATOM     18  O   UNL     1      33.659 -24.108 -18.879  0.00  0.00    -0.244 OA
ATOM     19  C   UNL     1      33.410 -22.959 -18.544  0.00  0.00    +0.346 C 
BRANCH  19  20
ATOM     20  C   UNL     1      33.967 -21.772 -19.241  0.00  0.00    +0.076 C 
ATOM     21  C   UNL     1      33.099 -20.863 -19.808  0.00  0.00    +0.008 C 
ATOM     22  C   UNL     1      35.337 -21.615 -19.297  0.00  0.00    +0.008 C 
ATOM     23  C   UNL     1      35.003 -19.564 -20.531  0.00  0.00    +0.084 C 
ATOM     24  C   UNL     1      33.623 -19.747 -20.460  0.00  0.00    +0.019 C 
ATOM     25  C   UNL     1      35.861 -20.498 -19.949  0.00  0.00    +0.019 C 
BRANCH  23  26
ATOM     26  N   UNL     1      35.529 -18.446 -21.186  0.00  0.00    -0.214 NA
BRANCH  26  29
ATOM     27  N   UNL     1      35.498 -17.103 -23.096  0.00  0.00    -0.370 N 
ATOM     28  N   UNL     1      34.963 -19.304 -23.366  0.00  0.00    -0.370 N 
ATOM     29  C   UNL     1      35.336 -18.320 -22.477  0.00  0.00    +0.193 C 
ATOM     30  H   UNL     1      35.765 -16.314 -22.570  0.00  0.00    +0.159 HD
ATOM     31  H   UNL     1      35.350 -17.020 -24.067  0.00  0.00    +0.159 HD
ATOM     32  H   UNL     1      34.814 -20.223 -23.048  0.00  0.00    +0.159 HD
ATOM     33  H   UNL     1      34.848 -19.089 -24.321  0.00  0.00    +0.159 HD
ENDBRANCH  26  29
ENDBRANCH  23  26
ENDBRANCH  19  20
ENDBRANCH   1  19
TORSDOF 6
ENDMDL
MODEL 4
REMARK VINA RESULT:     -11.2      1.900      3.064
REMARK  Name = 4413
REMARK  6 active torsions:
REMARK  status: ('A' for Active; 'I' for Inactive)
REMARK    1  A    between atoms: O_1  and  C_9
REMARK    2  A    between atoms: O_1  and  C_19
REMARK    3  A    between atoms: C_6  and  C_14
REMARK    4  A    between atoms: C_19  and  C_20
REMARK    5  A    between atoms: C_23  and  N_26
REMARK    6  A    between atoms: N_26  and  C_29
REMARK                            x       y       z     vdW  Elec       q    Type
REMARK                         _______ _______ _______ _____ _____    ______ ____
ROOT
ATOM      1  O   UNL     1      35.156 -20.089 -21.068  0.00  0.00    -0.421 OA
ENDROOT
BRANCH   1   9
ATOM      2  C   UNL     1      35.217 -22.127 -17.431  0.00  0.00    +0.000 C 
ATOM      3  C   UNL     1      33.992 -21.938 -18.115  0.00  0.00    +0.003 C 
ATOM      4  C   UNL     1      35.220 -22.816 -16.207  0.00  0.00    +0.003 C 
ATOM      5  C   UNL     1      33.990 -21.249 -19.339  0.00  0.00    +0.038 C 
ATOM      6  C   UNL     1      34.033 -23.311 -15.666  0.00  0.00    +0.031 C 
ATOM      7  C   UNL     1      32.808 -22.443 -17.557  0.00  0.00    +0.000 C 
ATOM      8  C   UNL     1      36.402 -21.622 -17.991  0.00  0.00    +0.003 C 
ATOM      9  C   UNL     1      35.176 -20.753 -19.881  0.00  0.00    +0.149 C 
ATOM     10  C   UNL     1      32.829 -23.125 -16.339  0.00  0.00    +0.003 C 
ATOM     11  C   UNL     1      36.380 -20.940 -19.207  0.00  0.00    +0.038 C 
BRANCH   6  14
ATOM     12  N   UNL     1      34.777 -25.203 -14.240  0.00  0.00    -0.343 N 
ATOM     13  N   UNL     1      33.373 -23.550 -13.368  0.00  0.00    -0.285 NA
ATOM     14  C   UNL     1      34.053 -24.022 -14.398  0.00  0.00    +0.117 C 
ATOM     15  H   UNL     1      34.776 -25.667 -13.372  0.00  0.00    +0.144 HD
ATOM     16  H   UNL     1      35.288 -25.573 -14.996  0.00  0.00    +0.144 HD
ATOM     17  H   UNL     1      33.386 -24.030 -12.508  0.00  0.00    +0.188 HD
ENDBRANCH   6  14
ENDBRANCH   1   9
BRANCH   1  19
ATOM     18  O   UNL     1      36.718 -18.550 -20.282  0.00  0.00    -0.244 OA
ATOM     19  C   UNL     1      35.825 -18.864 -21.055  0.00  0.00    +0.346 C 
BRANCH  19  20
ATOM     20  C   UNL     1      35.321 -17.963 -22.123  0.00  0.00    +0.076 C 
ATOM     21  C   UNL     1      34.747 -18.518 -23.248  0.00  0.00    +0.008 C 
ATOM     22  C   UNL     1      35.442 -16.599 -21.955  0.00  0.00    +0.008 C 
ATOM     23  C   UNL     1      34.382 -16.289 -24.105  0.00  0.00    +0.084 C 
ATOM     24  C   UNL     1      34.273 -17.671 -24.249  0.00  0.00    +0.019 C 
ATOM     25  C   UNL     1      34.967 -15.752 -22.957  0.00  0.00    +0.019 C 
BRANCH  23  26
ATOM     26  N   UNL     1      33.907 -15.440 -25.109  0.00  0.00    -0.214 NA
BRANCH  26  29
ATOM     27  N   UNL     1      33.485 -13.215 -25.682  0.00  0.00    -0.370 N 
ATOM     28  N   UNL     1      32.949 -13.861 -23.560  0.00  0.00    -0.370 N 
ATOM     29  C   UNL     1      33.465 -14.250 -24.776  0.00  0.00    +0.193 C 
ATOM     30  H   UNL     1      33.831 -13.363 -26.591  0.00  0.00    +0.159 HD
ATOM     31  H   UNL     1      33.150 -12.326 -25.421  0.00  0.00    +0.159 HD
ATOM     32  H   UNL     1      32.881 -14.511 -22.824  0.00  0.00    +0.159 HD
ATOM     33  H   UNL     1      32.647 -12.933 -23.427  0.00  0.00    +0.159 HD
ENDBRANCH  26  29
ENDBRANCH  23  26
ENDBRANCH  19  20
ENDBRANCH   1  19
TORSDOF 6
ENDMDL
MODEL 5
REMARK VINA RESULT:     -10.9      3.920     10.767
REMARK  Name = 4413
REMARK  6 active torsions:
REMARK  status: ('A' for Active; 'I' for Inactive)
REMARK    1  A    between atoms: O_1  and  C_9
REMARK    2  A    between atoms: O_1  and  C_19
REMARK    3  A    between atoms: C_6  and  C_14
REMARK    4  A    between atoms: C_19  and  C_20
REMARK    5  A    between atoms: C_23  and  N_26
REMARK    6  A    between atoms: N_26  and  C_29
REMARK                            x       y       z     vdW  Elec       q    Type
REMARK                         _______ _______ _______ _____ _____    ______ ____
ROOT
ATOM      1  O   UNL     1      35.042 -22.596 -17.605  0.00  0.00    -0.421 OA
ENDROOT
BRANCH   1   9
ATOM      2  C   UNL     1      34.384 -19.897 -20.714  0.00  0.00    +0.000 C 
ATOM      3  C   UNL     1      35.695 -20.096 -20.215  0.00  0.00    +0.003 C 
ATOM      4  C   UNL     1      34.180 -18.984 -21.761  0.00  0.00    +0.003 C 
ATOM      5  C   UNL     1      35.898 -21.009 -19.168  0.00  0.00    +0.038 C 
ATOM      6  C   UNL     1      35.251 -18.279 -22.310  0.00  0.00    +0.031 C 
ATOM      7  C   UNL     1      36.761 -19.379 -20.779  0.00  0.00    +0.000 C 
ATOM      8  C   UNL     1      33.317 -20.615 -20.149  0.00  0.00    +0.003 C 
ATOM      9  C   UNL     1      34.827 -21.715 -18.618  0.00  0.00    +0.149 C 
ATOM     10  C   UNL     1      36.540 -18.475 -21.820  0.00  0.00    +0.003 C 
ATOM     11  C   UNL     1      33.539 -21.517 -19.109  0.00  0.00    +0.038 C 
BRANCH   6  14
ATOM     12  N   UNL     1      35.512 -16.033 -23.337  0.00  0.00    -0.343 N 
ATOM     13  N   UNL     1      34.338 -17.714 -24.460  0.00  0.00    -0.285 NA
ATOM     14  C   UNL     1      35.023 -17.337 -23.394  0.00  0.00    +0.117 C 
ATOM     15  H   UNL     1      35.346 -15.413 -24.083  0.00  0.00    +0.144 HD
ATOM     16  H   UNL     1      36.022 -15.733 -22.551  0.00  0.00    +0.144 HD
ATOM     17  H   UNL     1      34.183 -17.077 -25.195  0.00  0.00    +0.188 HD
ENDBRANCH   6  14
ENDBRANCH   1   9
BRANCH   1  19
ATOM     18  O   UNL     1      32.783 -23.149 -17.461  0.00  0.00    -0.244 OA
ATOM     19  C   UNL     1      33.883 -23.011 -16.946  0.00  0.00    +0.346 C 
BRANCH  19  20
ATOM     20  C   UNL     1      34.147 -23.284 -15.510  0.00  0.00    +0.076 C 
ATOM     21  C   UNL     1      33.127 -23.781 -14.726  0.00  0.00    +0.008 C 
ATOM     22  C   UNL     1      35.407 -23.033 -15.006  0.00  0.00    +0.008 C 
ATOM     23  C   UNL     1      34.641 -23.795 -12.844  0.00  0.00    +0.084 C 
ATOM     24  C   UNL     1      33.377 -24.039 -13.379  0.00  0.00    +0.019 C 
ATOM     25  C   UNL     1      35.657 -23.291 -13.657  0.00  0.00    +0.019 C 
BRANCH  23  26
ATOM     26  N   UNL     1      34.891 -24.052 -11.493  0.00  0.00    -0.214 NA
BRANCH  26  29
ATOM     27  N   UNL     1      36.821 -24.085 -10.176  0.00  0.00    -0.370 N 
ATOM     28  N   UNL     1      36.564 -25.778 -11.685  0.00  0.00    -0.370 N 
ATOM     29  C   UNL     1      36.022 -24.626 -11.156  0.00  0.00    +0.193 C 
ATOM     30  H   UNL     1      36.546 -23.258  -9.718  0.00  0.00    +0.159 HD
ATOM     31  H   UNL     1      37.668 -24.525  -9.932  0.00  0.00    +0.159 HD
ATOM     32  H   UNL     1      36.088 -26.263 -12.396  0.00  0.00    +0.159 HD
ATOM     33  H   UNL     1      37.426 -26.116 -11.349  0.00  0.00    +0.159 HD
ENDBRANCH  26  29
ENDBRANCH  23  26
ENDBRANCH  19  20
ENDBRANCH   1  19
TORSDOF 6
ENDMDL
MODEL 6
REMARK VINA RESULT:     -10.9      1.063      2.275
REMARK  Name = 4413
REMARK  6 active torsions:
REMARK  status: ('A' for Active; 'I' for Inactive)
REMARK    1  A    between atoms: O_1  and  C_9
REMARK    2  A    between atoms: O_1  and  C_19
REMARK    3  A    between atoms: C_6  and  C_14
REMARK    4  A    between atoms: C_19  and  C_20
REMARK    5  A    between atoms: C_23  and  N_26
REMARK    6  A    between atoms: N_26  and  C_29
REMARK                            x       y       z     vdW  Elec       q    Type
REMARK                         _______ _______ _______ _____ _____    ______ ____
ROOT
ATOM      1  O   UNL     1      35.342 -19.062 -22.434  0.00  0.00    -0.421 OA
ENDROOT
BRANCH   1   9
ATOM      2  C   UNL     1      33.561 -21.131 -19.282  0.00  0.00    +0.000 C 
ATOM      3  C   UNL     1      34.972 -21.081 -19.389  0.00  0.00    +0.003 C 
ATOM      4  C   UNL     1      32.978 -21.832 -18.215  0.00  0.00    +0.003 C 
ATOM      5  C   UNL     1      35.555 -20.380 -20.457  0.00  0.00    +0.038 C 
ATOM      6  C   UNL     1      33.773 -22.474 -17.265  0.00  0.00    +0.031 C 
ATOM      7  C   UNL     1      35.757 -21.732 -18.424  0.00  0.00    +0.000 C 
ATOM      8  C   UNL     1      32.776 -20.480 -20.248  0.00  0.00    +0.003 C 
ATOM      9  C   UNL     1      34.760 -19.738 -21.407  0.00  0.00    +0.149 C 
ATOM     10  C   UNL     1      35.160 -22.424 -17.369  0.00  0.00    +0.003 C 
ATOM     11  C   UNL     1      33.373 -19.788 -21.302  0.00  0.00    +0.038 C 
BRANCH   6  14
ATOM     12  N   UNL     1      31.783 -23.452 -16.147  0.00  0.00    -0.343 N 
ATOM     13  N   UNL     1      33.894 -23.620 -15.157  0.00  0.00    -0.285 NA
ATOM     14  C   UNL     1      33.153 -23.196 -16.166  0.00  0.00    +0.117 C 
ATOM     15  H   UNL     1      31.385 -23.943 -15.392  0.00  0.00    +0.144 HD
ATOM     16  H   UNL     1      31.214 -23.142 -16.888  0.00  0.00    +0.144 HD
ATOM     17  H   UNL     1      33.476 -24.109 -14.411  0.00  0.00    +0.188 HD
ENDBRANCH   6  14
ENDBRANCH   1   9
BRANCH   1  19
ATOM     18  O   UNL     1      37.078 -17.839 -21.477  0.00  0.00    -0.244 OA
ATOM     19  C   UNL     1      36.002 -17.892 -22.054  0.00  0.00    +0.346 C 
BRANCH  19  20
ATOM     20  C   UNL     1      35.233 -16.686 -22.449  0.00  0.00    +0.076 C 
ATOM     21  C   UNL     1      34.988 -15.711 -21.505  0.00  0.00    +0.008 C 
ATOM     22  C   UNL     1      34.788 -16.576 -23.751  0.00  0.00    +0.008 C 
ATOM     23  C   UNL     1      33.807 -14.441 -23.187  0.00  0.00    +0.084 C 
ATOM     24  C   UNL     1      34.267 -14.577 -21.878  0.00  0.00    +0.019 C 
ATOM     25  C   UNL     1      34.067 -15.442 -24.124  0.00  0.00    +0.019 C 
BRANCH  23  26
ATOM     26  N   UNL     1      33.083 -13.305 -23.561  0.00  0.00    -0.214 NA
BRANCH  26  29
ATOM     27  N   UNL     1      33.654 -12.162 -25.517  0.00  0.00    -0.370 N 
ATOM     28  N   UNL     1      34.488 -11.346 -23.557  0.00  0.00    -0.370 N 
ATOM     29  C   UNL     1      33.714 -12.318 -24.152  0.00  0.00    +0.193 C 
ATOM     30  H   UNL     1      33.131 -12.794 -26.062  0.00  0.00    +0.159 HD
ATOM     31  H   UNL     1      34.131 -11.418 -25.950  0.00  0.00    +0.159 HD
ATOM     32  H   UNL     1      34.612 -11.346 -22.581  0.00  0.00    +0.159 HD
ATOM     33  H   UNL     1      34.915 -10.650 -24.108  0.00  0.00    +0.159 HD
ENDBRANCH  26  29
ENDBRANCH  23  26
ENDBRANCH  19  20
ENDBRANCH   1  19
TORSDOF 6
ENDMDL
MODEL 7
REMARK VINA RESULT:     -10.9      4.040      6.565
REMARK  Name = 4413
REMARK  6 active torsions:
REMARK  status: ('A' for Active; 'I' for Inactive)
REMARK    1  A    between atoms: O_1  and  C_9
REMARK    2  A    between atoms: O_1  and  C_19
REMARK    3  A    between atoms: C_6  and  C_14
REMARK    4  A    between atoms: C_19  and  C_20
REMARK    5  A    between atoms: C_23  and  N_26
REMARK    6  A    between atoms: N_26  and  C_29
REMARK                            x       y       z     vdW  Elec       q    Type
REMARK                         _______ _______ _______ _____ _____    ______ ____
ROOT
ATOM      1  O   UNL     1      33.066 -11.944 -24.319  0.00  0.00    -0.421 OA
ENDROOT
BRANCH   1   9
ATOM      2  C   UNL     1      34.676 -15.201 -22.272  0.00  0.00    +0.000 C 
ATOM      3  C   UNL     1      34.321 -15.328 -23.637  0.00  0.00    +0.003 C 
ATOM      4  C   UNL     1      35.217 -16.308 -21.598  0.00  0.00    +0.003 C 
ATOM      5  C   UNL     1      33.780 -14.221 -24.311  0.00  0.00    +0.038 C 
ATOM      6  C   UNL     1      35.406 -17.522 -22.259  0.00  0.00    +0.031 C 
ATOM      7  C   UNL     1      34.519 -16.557 -24.286  0.00  0.00    +0.000 C 
ATOM      8  C   UNL     1      34.478 -13.972 -21.622  0.00  0.00    +0.003 C 
ATOM      9  C   UNL     1      33.590 -13.007 -23.650  0.00  0.00    +0.149 C 
ATOM     10  C   UNL     1      35.058 -17.647 -23.601  0.00  0.00    +0.003 C 
ATOM     11  C   UNL     1      33.939 -12.883 -22.309  0.00  0.00    +0.038 C 
BRANCH   6  14
ATOM     12  N   UNL     1      37.318 -18.704 -21.202  0.00  0.00    -0.343 N 
ATOM     13  N   UNL     1      35.192 -19.676 -21.216  0.00  0.00    -0.285 NA
ATOM     14  C   UNL     1      35.967 -18.658 -21.546  0.00  0.00    +0.117 C 
ATOM     15  H   UNL     1      37.675 -19.483 -20.719  0.00  0.00    +0.144 HD
ATOM     16  H   UNL     1      37.912 -17.956 -21.441  0.00  0.00    +0.144 HD
ATOM     17  H   UNL     1      35.570 -20.446 -20.733  0.00  0.00    +0.188 HD
ENDBRANCH   6  14
ENDBRANCH   1   9
BRANCH   1  19
ATOM     18  O   UNL     1      34.873 -11.076 -25.506  0.00  0.00    -0.244 OA
ATOM     19  C   UNL     1      33.998 -10.962 -24.660  0.00  0.00    +0.346 C 
BRANCH  19  20
ATOM     20  C   UNL     1      33.793  -9.726 -23.864  0.00  0.00    +0.076 C 
ATOM     21  C   UNL     1      32.565  -9.506 -23.275  0.00  0.00    +0.008 C 
ATOM     22  C   UNL     1      34.840  -8.835 -23.736  0.00  0.00    +0.008 C 
ATOM     23  C   UNL     1      33.416  -7.430 -22.380  0.00  0.00    +0.084 C 
ATOM     24  C   UNL     1      32.375  -8.346 -22.525  0.00  0.00    +0.019 C 
ATOM     25  C   UNL     1      34.649  -7.674 -22.987  0.00  0.00    +0.019 C 
BRANCH  23  26
ATOM     26  N   UNL     1      33.225  -6.266 -21.631  0.00  0.00    -0.214 NA
BRANCH  26  29
ATOM     27  N   UNL     1      31.610  -5.605 -20.077  0.00  0.00    -0.370 N 
ATOM     28  N   UNL     1      33.121  -7.175 -19.400  0.00  0.00    -0.370 N 
ATOM     29  C   UNL     1      32.701  -6.363 -20.432  0.00  0.00    +0.193 C 
ATOM     30  H   UNL     1      31.212  -4.981 -20.727  0.00  0.00    +0.159 HD
ATOM     31  H   UNL     1      31.226  -5.686 -19.174  0.00  0.00    +0.159 HD
ATOM     32  H   UNL     1      33.895  -7.769 -19.527  0.00  0.00    +0.159 HD
ATOM     33  H   UNL     1      32.645  -7.162 -18.538  0.00  0.00    +0.159 HD
ENDBRANCH  26  29
ENDBRANCH  23  26
ENDBRANCH  19  20
ENDBRANCH   1  19
TORSDOF 6
ENDMDL
MODEL 8
REMARK VINA RESULT:     -10.8      4.111     10.777
REMARK  Name = 4413
REMARK  6 active torsions:
REMARK  status: ('A' for Active; 'I' for Inactive)
REMARK    1  A    between atoms: O_1  and  C_9
REMARK    2  A    between atoms: O_1  and  C_19
REMARK    3  A    between atoms: C_6  and  C_14
REMARK    4  A    between atoms: C_19  and  C_20
REMARK    5  A    between atoms: C_23  and  N_26
REMARK    6  A    between atoms: N_26  and  C_29
REMARK                            x       y       z     vdW  Elec       q    Type
REMARK                         _______ _______ _______ _____ _____    ______ ____
ROOT
ATOM      1  O   UNL     1      35.566 -22.419 -17.696  0.00  0.00    -0.421 OA
ENDROOT
BRANCH   1   9
ATOM      2  C   UNL     1      34.586 -19.802 -20.792  0.00  0.00    +0.000 C 
ATOM      3  C   UNL     1      35.936 -19.953 -20.393  0.00  0.00    +0.003 C 
ATOM      4  C   UNL     1      34.272 -18.917 -21.836  0.00  0.00    +0.003 C 
ATOM      5  C   UNL     1      36.248 -20.838 -19.349  0.00  0.00    +0.038 C 
ATOM      6  C   UNL     1      35.276 -18.192 -22.479  0.00  0.00    +0.031 C 
ATOM      7  C   UNL     1      36.932 -19.216 -21.052  0.00  0.00    +0.000 C 
ATOM      8  C   UNL     1      33.588 -20.540 -20.133  0.00  0.00    +0.003 C 
ATOM      9  C   UNL     1      35.245 -21.564 -18.705  0.00  0.00    +0.149 C 
ATOM     10  C   UNL     1      36.603 -18.340 -22.088  0.00  0.00    +0.003 C 
ATOM     11  C   UNL     1      33.918 -21.415 -19.097  0.00  0.00    +0.038 C 
BRANCH   6  14
ATOM     12  N   UNL     1      35.374 -15.956 -23.555  0.00  0.00    -0.343 N 
ATOM     13  N   UNL     1      34.193 -17.701 -24.567  0.00  0.00    -0.285 NA
ATOM     14  C   UNL     1      34.935 -17.279 -23.559  0.00  0.00    +0.117 C 
ATOM     15  H   UNL     1      35.131 -15.356 -24.297  0.00  0.00    +0.144 HD
ATOM     16  H   UNL     1      35.925 -15.622 -22.811  0.00  0.00    +0.144 HD
ATOM     17  H   UNL     1      33.961 -17.084 -25.299  0.00  0.00    +0.188 HD
ENDBRANCH   6  14
ENDBRANCH   1   9
BRANCH   1  19
ATOM     18  O   UNL     1      37.205 -20.939 -16.956  0.00  0.00    -0.244 OA
ATOM     19  C   UNL     1      36.478 -21.903 -16.773  0.00  0.00    +0.346 C 
BRANCH  19  20
ATOM     20  C   UNL     1      36.455 -22.675 -15.505  0.00  0.00    +0.076 C 
ATOM     21  C   UNL     1      37.627 -23.238 -15.044  0.00  0.00    +0.008 C 
ATOM     22  C   UNL     1      35.261 -22.803 -14.825  0.00  0.00    +0.008 C 
ATOM     23  C   UNL     1      36.412 -24.105 -13.145  0.00  0.00    +0.084 C 
ATOM     24  C   UNL     1      37.605 -23.960 -13.852  0.00  0.00    +0.019 C 
ATOM     25  C   UNL     1      35.239 -23.527 -13.632  0.00  0.00    +0.019 C 
BRANCH  23  26
ATOM     26  N   UNL     1      36.389 -24.830 -11.951  0.00  0.00    -0.214 NA
BRANCH  26  29
ATOM     27  N   UNL     1      35.707 -24.569  -9.732  0.00  0.00    -0.370 N 
ATOM     28  N   UNL     1      37.245 -23.083 -10.527  0.00  0.00    -0.370 N 
ATOM     29  C   UNL     1      36.463 -24.180 -10.813  0.00  0.00    +0.193 C 
ATOM     30  H   UNL     1      35.104 -25.343  -9.805  0.00  0.00    +0.159 HD
ATOM     31  H   UNL     1      35.771 -24.073  -8.883  0.00  0.00    +0.159 HD
ATOM     32  H   UNL     1      37.834 -22.705 -11.220  0.00  0.00    +0.159 HD
ATOM     33  H   UNL     1      37.216 -22.677  -9.630  0.00  0.00    +0.159 HD
ENDBRANCH  26  29
ENDBRANCH  23  26
ENDBRANCH  19  20
ENDBRANCH   1  19
TORSDOF 6
ENDMDL
MODEL 9
REMARK VINA RESULT:     -10.7      4.101      6.673
REMARK  Name = 4413
REMARK  6 active torsions:
REMARK  status: ('A' for Active; 'I' for Inactive)
REMARK    1  A    between atoms: O_1  and  C_9
REMARK    2  A    between atoms: O_1  and  C_19
REMARK    3  A    between atoms: C_6  and  C_14
REMARK    4  A    between atoms: C_19  and  C_20
REMARK    5  A    between atoms: C_23  and  N_26
REMARK    6  A    between atoms: N_26  and  C_29
REMARK                            x       y       z     vdW  Elec       q    Type
REMARK                         _______ _______ _______ _____ _____    ______ ____
ROOT
ATOM      1  O   UNL     1      33.090 -11.782 -24.333  0.00  0.00    -0.421 OA
ENDROOT
BRANCH   1   9
ATOM      2  C   UNL     1      34.614 -15.113 -22.340  0.00  0.00    +0.000 C 
ATOM      3  C   UNL     1      34.271 -15.204 -23.711  0.00  0.00    +0.003 C 
ATOM      4  C   UNL     1      35.126 -16.244 -21.684  0.00  0.00    +0.003 C 
ATOM      5  C   UNL     1      33.758 -14.073 -24.366  0.00  0.00    +0.038 C 
ATOM      6  C   UNL     1      35.298 -17.447 -22.369  0.00  0.00    +0.031 C 
ATOM      7  C   UNL     1      34.451 -16.422 -24.384  0.00  0.00    +0.000 C 
ATOM      8  C   UNL     1      34.433 -13.894 -21.666  0.00  0.00    +0.003 C 
ATOM      9  C   UNL     1      33.586 -12.869 -23.682  0.00  0.00    +0.149 C 
ATOM     10  C   UNL     1      34.961 -17.537 -23.716  0.00  0.00    +0.003 C 
ATOM     11  C   UNL     1      33.923 -12.780 -22.335  0.00  0.00    +0.038 C 
BRANCH   6  14
ATOM     12  N   UNL     1      34.992 -19.620 -21.207  0.00  0.00    -0.343 N 
ATOM     13  N   UNL     1      37.131 -18.718 -21.475  0.00  0.00    -0.285 NA
ATOM     14  C   UNL     1      35.830 -18.609 -21.675  0.00  0.00    +0.117 C 
ATOM     15  H   UNL     1      35.374 -20.398 -20.740  0.00  0.00    +0.144 HD
ATOM     16  H   UNL     1      34.019 -19.556 -21.343  0.00  0.00    +0.144 HD
ATOM     17  H   UNL     1      37.493 -19.505 -21.006  0.00  0.00    +0.188 HD
ENDBRANCH   6  14
ENDBRANCH   1   9
BRANCH   1  19
ATOM     18  O   UNL     1      34.953 -10.908 -25.425  0.00  0.00    -0.244 OA
ATOM     19  C   UNL     1      34.039 -10.800 -24.620  0.00  0.00    +0.346 C 
BRANCH  19  20
ATOM     20  C   UNL     1      33.800  -9.570 -23.823  0.00  0.00    +0.076 C 
ATOM     21  C   UNL     1      34.834  -8.673 -23.654  0.00  0.00    +0.008 C 
ATOM     22  C   UNL     1      32.550  -9.362 -23.278  0.00  0.00    +0.008 C 
ATOM     23  C   UNL     1      33.354  -7.283 -22.345  0.00  0.00    +0.084 C 
ATOM     24  C   UNL     1      34.608  -7.517 -22.907  0.00  0.00    +0.019 C 
ATOM     25  C   UNL     1      32.324  -8.206 -22.530  0.00  0.00    +0.019 C 
BRANCH  23  26
ATOM     26  N   UNL     1      33.127  -6.126 -21.595  0.00  0.00    -0.214 NA
BRANCH  26  29
ATOM     27  N   UNL     1      31.505  -5.520 -20.027  0.00  0.00    -0.370 N 
ATOM     28  N   UNL     1      33.076  -7.036 -19.364  0.00  0.00    -0.370 N 
ATOM     29  C   UNL     1      32.619  -6.240 -20.391  0.00  0.00    +0.193 C 
ATOM     30  H   UNL     1      31.079  -4.911 -20.673  0.00  0.00    +0.159 HD
ATOM     31  H   UNL     1      31.132  -5.614 -19.120  0.00  0.00    +0.159 HD
ATOM     32  H   UNL     1      33.869  -7.603 -19.497  0.00  0.00    +0.159 HD
ATOM     33  H   UNL     1      32.608  -7.040 -18.497  0.00  0.00    +0.159 HD
ENDBRANCH  26  29
ENDBRANCH  23  26
ENDBRANCH  19  20
ENDBRANCH   1  19
TORSDOF 6
ENDMDL
