MODEL 1
REMARK VINA RESULT:     -11.2      0.000      0.000
REMARK  Name = 657131
REMARK  7 active torsions:
REMARK  status: ('A' for Active; 'I' for Inactive)
REMARK    1  A    between atoms: C_1  and  CA_2
REMARK    2  A    between atoms: C_1  and  C_3
REMARK    3  A    between atoms: CA_2  and  C_28
REMARK    4  A    between atoms: C_4  and  O_9
REMARK    5  A    between atoms: O_9  and  C_11
REMARK    6  A    between atoms: C_19  and  C_21
REMARK    7  A    between atoms: C_28  and  O_29
REMARK                            x       y       z     vdW  Elec       q    Type
REMARK                         _______ _______ _______ _____ _____    ______ ____
ROOT
ATOM      1  C   UNL     1      35.074 -14.758 -22.457  0.00  0.00    +0.074 C 
ENDROOT
BRANCH   1   2
ATOM      2  C   UNL     1      34.094 -13.705 -22.253  0.00  0.00    -0.016 C 
ATOM      3  C   UNL     1      32.214 -11.681 -21.862  0.00  0.00    +0.145 C 
ATOM      4  C   UNL     1      33.250 -13.741 -21.142  0.00  0.00    -0.001 C 
ATOM      5  C   UNL     1      33.997 -12.656 -23.168  0.00  0.00    -0.001 C 
ATOM      6  C   UNL     1      32.310 -12.729 -20.947  0.00  0.00    +0.037 C 
ATOM      7  C   UNL     1      33.057 -11.644 -22.972  0.00  0.00    +0.037 C 
BRANCH   3   8
ATOM      8  O   UNL     1      31.297 -10.694 -21.670  0.00  0.00    -0.453 OA
BRANCH   8  10
ATOM      9 BR   UNL     1      31.766  -9.944 -18.676  0.00  0.00    -0.046 Br
ATOM     10  C   UNL     1      31.767  -9.402 -21.503  0.00  0.00    +0.151 C 
ATOM     11  C   UNL     1      32.029  -8.903 -20.239  0.00  0.00    +0.069 C 
ATOM     12  C   UNL     1      31.961  -8.635 -22.639  0.00  0.00    +0.038 C 
ATOM     13  C   UNL     1      32.501  -7.597 -20.107  0.00  0.00    +0.010 C 
ATOM     14  C   UNL     1      32.434  -7.329 -22.506  0.00  0.00    +0.003 C 
ATOM     15  C   UNL     1      32.704  -6.811 -21.240  0.00  0.00    +0.001 C 
ENDBRANCH   8  10
ENDBRANCH   3   8
ENDBRANCH   1   2
BRANCH   1  16
ATOM     16  CA  UNL     1      34.810 -16.045 -22.783  0.00  0.00    +0.108 C 
ATOM     17  O   UNL     1      34.282 -18.794 -23.343  0.00  0.00    -0.270 OA
ATOM     18  N   UNL     1      34.914 -17.083 -21.900  0.00  0.00    -0.278 N 
ATOM     19  C   UNL     1      34.642 -18.400 -22.235  0.00  0.00    +0.249 C 
ATOM     20  H   UNL     1      35.196 -16.884 -20.978  0.00  0.00    +0.155 HD
BRANCH  19  21
ATOM     21  C   UNL     1      34.834 -19.392 -21.146  0.00  0.00    +0.054 C 
ATOM     22  C   UNL     1      36.115 -19.657 -20.706  0.00  0.00    +0.005 C 
ATOM     23  C   UNL     1      33.727 -20.014 -20.609  0.00  0.00    +0.005 C 
ATOM     24  C   UNL     1      36.295 -20.587 -19.683  0.00  0.00    +0.000 C 
ATOM     25  C   UNL     1      33.908 -20.945 -19.586  0.00  0.00    +0.000 C 
ATOM     26  C   UNL     1      35.192 -21.232 -19.123  0.00  0.00    +0.000 C 
ENDBRANCH  19  21
BRANCH  16  28
ATOM     27  OXT UNL     1      35.160 -16.618 -25.099  0.00  0.00    -0.244 OA
ATOM     28  C   UNL     1      34.401 -16.346 -24.180  0.00  0.00    +0.348 C 
BRANCH  28  29
ATOM     29  O   UNL     1      33.054 -16.280 -24.315  0.00  0.00    -0.476 OA
ATOM     30  H   UNL     1      32.581 -17.013 -24.657  0.00  0.00    +0.295 HD
ENDBRANCH  28  29
ENDBRANCH  16  28
ENDBRANCH   1  16
TORSDOF 7
ENDMDL
MODEL 2
REMARK VINA RESULT:     -10.9      1.079      1.737
REMARK  Name = 657131
REMARK  7 active torsions:
REMARK  status: ('A' for Active; 'I' for Inactive)
REMARK    1  A    between atoms: C_1  and  CA_2
REMARK    2  A    between atoms: C_1  and  C_3
REMARK    3  A    between atoms: CA_2  and  C_28
REMARK    4  A    between atoms: C_4  and  O_9
REMARK    5  A    between atoms: O_9  and  C_11
REMARK    6  A    between atoms: C_19  and  C_21
REMARK    7  A    between atoms: C_28  and  O_29
REMARK                            x       y       z     vdW  Elec       q    Type
REMARK                         _______ _______ _______ _____ _____    ______ ____
ROOT
ATOM      1  C   UNL     1      35.088 -14.937 -22.460  0.00  0.00    +0.074 C 
ENDROOT
BRANCH   1   2
ATOM      2  C   UNL     1      34.119 -13.868 -22.282  0.00  0.00    -0.016 C 
ATOM      3  C   UNL     1      32.260 -11.816 -21.942  0.00  0.00    +0.145 C 
ATOM      4  C   UNL     1      33.292 -13.854 -21.158  0.00  0.00    -0.001 C 
ATOM      5  C   UNL     1      34.015 -12.855 -23.236  0.00  0.00    -0.001 C 
ATOM      6  C   UNL     1      32.363 -12.828 -20.988  0.00  0.00    +0.037 C 
ATOM      7  C   UNL     1      33.086 -11.829 -23.066  0.00  0.00    +0.037 C 
BRANCH   3   8
ATOM      8  O   UNL     1      31.354 -10.815 -21.776  0.00  0.00    -0.453 OA
BRANCH   8  10
ATOM      9 BR   UNL     1      32.223  -8.265 -23.354  0.00  0.00    -0.046 Br
ATOM     10  C   UNL     1      31.703  -9.759 -20.949  0.00  0.00    +0.151 C 
ATOM     11  C   UNL     1      32.114  -8.550 -21.484  0.00  0.00    +0.069 C 
ATOM     12  C   UNL     1      31.627  -9.959 -19.582  0.00  0.00    +0.038 C 
ATOM     13  C   UNL     1      32.460  -7.508 -20.623  0.00  0.00    +0.010 C 
ATOM     14  C   UNL     1      31.972  -8.916 -18.721  0.00  0.00    +0.003 C 
ATOM     15  C   UNL     1      32.388  -7.692 -19.242  0.00  0.00    +0.001 C 
ENDBRANCH   8  10
ENDBRANCH   3   8
ENDBRANCH   1   2
BRANCH   1  16
ATOM     16  CA  UNL     1      34.810 -16.228 -22.756  0.00  0.00    +0.108 C 
ATOM     17  O   UNL     1      34.255 -18.984 -23.253  0.00  0.00    -0.270 OA
ATOM     18  N   UNL     1      34.919 -17.249 -21.854  0.00  0.00    -0.278 N 
ATOM     19  C   UNL     1      34.633 -18.571 -22.159  0.00  0.00    +0.249 C 
ATOM     20  H   UNL     1      35.216 -17.034 -20.940  0.00  0.00    +0.155 HD
BRANCH  19  21
ATOM     21  C   UNL     1      34.834 -19.542 -21.053  0.00  0.00    +0.054 C 
ATOM     22  C   UNL     1      33.728 -20.141 -20.485  0.00  0.00    +0.005 C 
ATOM     23  C   UNL     1      36.118 -19.816 -20.631  0.00  0.00    +0.005 C 
ATOM     24  C   UNL     1      33.916 -21.053 -19.447  0.00  0.00    +0.000 C 
ATOM     25  C   UNL     1      36.305 -20.728 -19.593  0.00  0.00    +0.000 C 
ATOM     26  C   UNL     1      35.204 -21.347 -19.001  0.00  0.00    +0.000 C 
ENDBRANCH  19  21
BRANCH  16  28
ATOM     27  OXT UNL     1      35.126 -16.793 -25.079  0.00  0.00    -0.244 OA
ATOM     28  C   UNL     1      34.379 -16.554 -24.141  0.00  0.00    +0.348 C 
BRANCH  28  29
ATOM     29  O   UNL     1      33.028 -16.554 -24.240  0.00  0.00    -0.476 OA
ATOM     30  H   UNL     1      32.511 -16.993 -23.595  0.00  0.00    +0.295 HD
ENDBRANCH  28  29
ENDBRANCH  16  28
ENDBRANCH   1  16
TORSDOF 7
ENDMDL
MODEL 3
REMARK VINA RESULT:     -10.7      3.152      9.856
REMARK  Name = 657131
REMARK  7 active torsions:
REMARK  status: ('A' for Active; 'I' for Inactive)
REMARK    1  A    between atoms: C_1  and  CA_2
REMARK    2  A    between atoms: C_1  and  C_3
REMARK    3  A    between atoms: CA_2  and  C_28
REMARK    4  A    between atoms: C_4  and  O_9
REMARK    5  A    between atoms: O_9  and  C_11
REMARK    6  A    between atoms: C_19  and  C_21
REMARK    7  A    between atoms: C_28  and  O_29
REMARK                            x       y       z     vdW  Elec       q    Type
REMARK                         _______ _______ _______ _____ _____    ______ ____
ROOT
ATOM      1  C   UNL     1      31.570 -11.561 -21.054  0.00  0.00    +0.074 C 
ENDROOT
BRANCH   1   2
ATOM      2  C   UNL     1      32.556 -12.559 -21.435  0.00  0.00    -0.016 C 
ATOM      3  C   UNL     1      34.448 -14.473 -22.170  0.00  0.00    +0.145 C 
ATOM      4  C   UNL     1      33.028 -13.472 -20.492  0.00  0.00    -0.001 C 
ATOM      5  C   UNL     1      33.031 -12.604 -22.747  0.00  0.00    -0.001 C 
ATOM      6  C   UNL     1      33.974 -14.429 -20.859  0.00  0.00    +0.037 C 
ATOM      7  C   UNL     1      33.977 -13.561 -23.114  0.00  0.00    +0.037 C 
BRANCH   3   8
ATOM      8  O   UNL     1      35.370 -15.408 -22.528  0.00  0.00    -0.453 OA
BRANCH   8  10
ATOM      9 BR   UNL     1      36.039 -17.865 -20.722  0.00  0.00    -0.046 Br
ATOM     10  C   UNL     1      34.906 -16.604 -23.049  0.00  0.00    +0.151 C 
ATOM     11  C   UNL     1      35.116 -17.796 -22.376  0.00  0.00    +0.069 C 
ATOM     12  C   UNL     1      34.230 -16.563 -24.256  0.00  0.00    +0.038 C 
ATOM     13  C   UNL     1      34.635 -18.983 -22.929  0.00  0.00    +0.010 C 
ATOM     14  C   UNL     1      33.749 -17.751 -24.808  0.00  0.00    +0.003 C 
ATOM     15  C   UNL     1      33.952 -18.960 -24.145  0.00  0.00    +0.001 C 
ENDBRANCH   8  10
ENDBRANCH   3   8
ENDBRANCH   1   2
BRANCH   1  16
ATOM     16  CA  UNL     1      31.829 -10.300 -20.636  0.00  0.00    +0.108 C 
ATOM     17  O   UNL     1      32.409  -7.608 -19.884  0.00  0.00    -0.270 OA
ATOM     18  N   UNL     1      32.296  -9.314 -21.460  0.00  0.00    -0.278 N 
ATOM     19  C   UNL     1      32.559  -8.022 -21.032  0.00  0.00    +0.249 C 
ATOM     20  H   UNL     1      32.454  -9.533 -22.407  0.00  0.00    +0.155 HD
BRANCH  19  21
ATOM     21  C   UNL     1      33.085  -7.097 -22.069  0.00  0.00    +0.054 C 
ATOM     22  C   UNL     1      34.233  -7.444 -22.750  0.00  0.00    +0.005 C 
ATOM     23  C   UNL     1      32.406  -5.923 -22.318  0.00  0.00    +0.005 C 
ATOM     24  C   UNL     1      34.726  -6.576 -23.723  0.00  0.00    +0.000 C 
ATOM     25  C   UNL     1      32.899  -5.055 -23.293  0.00  0.00    +0.000 C 
ATOM     26  C   UNL     1      34.060  -5.381 -23.995  0.00  0.00    +0.000 C 
ENDBRANCH  19  21
BRANCH  16  28
ATOM     27  OXT UNL     1      30.519  -9.780 -18.680  0.00  0.00    -0.244 OA
ATOM     28  C   UNL     1      31.607  -9.974 -19.203  0.00  0.00    +0.348 C 
BRANCH  28  29
ATOM     29  O   UNL     1      32.783  -9.915 -18.533  0.00  0.00    -0.476 OA
ATOM     30  H   UNL     1      33.591 -10.024 -18.994  0.00  0.00    +0.295 HD
ENDBRANCH  28  29
ENDBRANCH  16  28
ENDBRANCH   1  16
TORSDOF 7
ENDMDL
MODEL 4
REMARK VINA RESULT:     -10.6      4.031     10.069
REMARK  Name = 657131
REMARK  7 active torsions:
REMARK  status: ('A' for Active; 'I' for Inactive)
REMARK    1  A    between atoms: C_1  and  CA_2
REMARK    2  A    between atoms: C_1  and  C_3
REMARK    3  A    between atoms: CA_2  and  C_28
REMARK    4  A    between atoms: C_4  and  O_9
REMARK    5  A    between atoms: O_9  and  C_11
REMARK    6  A    between atoms: C_19  and  C_21
REMARK    7  A    between atoms: C_28  and  O_29
REMARK                            x       y       z     vdW  Elec       q    Type
REMARK                         _______ _______ _______ _____ _____    ______ ____
ROOT
ATOM      1  C   UNL     1      35.560 -18.515 -21.031  0.00  0.00    +0.074 C 
ENDROOT
BRANCH   1   2
ATOM      2  C   UNL     1      35.223 -19.722 -20.295  0.00  0.00    -0.016 C 
ATOM      3  C   UNL     1      34.579 -22.040 -18.881  0.00  0.00    +0.145 C 
ATOM      4  C   UNL     1      33.888 -20.087 -20.124  0.00  0.00    -0.001 C 
ATOM      5  C   UNL     1      36.237 -20.517 -19.758  0.00  0.00    -0.001 C 
ATOM      6  C   UNL     1      33.565 -21.246 -19.417  0.00  0.00    +0.037 C 
ATOM      7  C   UNL     1      35.914 -21.676 -19.052  0.00  0.00    +0.037 C 
BRANCH   3   8
ATOM      8  O   UNL     1      34.264 -23.171 -18.193  0.00  0.00    -0.453 OA
BRANCH   8  10
ATOM      9 BR   UNL     1      36.051 -23.112 -15.633  0.00  0.00    -0.046 Br
ATOM     10  C   UNL     1      33.532 -23.032 -17.025  0.00  0.00    +0.151 C 
ATOM     11  C   UNL     1      34.167 -22.987 -15.795  0.00  0.00    +0.069 C 
ATOM     12  C   UNL     1      32.156 -22.940 -17.134  0.00  0.00    +0.038 C 
ATOM     13  C   UNL     1      33.399 -22.846 -14.639  0.00  0.00    +0.010 C 
ATOM     14  C   UNL     1      31.389 -22.799 -15.977  0.00  0.00    +0.003 C 
ATOM     15  C   UNL     1      32.011 -22.752 -14.730  0.00  0.00    +0.001 C 
ENDBRANCH   8  10
ENDBRANCH   3   8
ENDBRANCH   1   2
BRANCH   1  16
ATOM     16  CA  UNL     1      35.009 -18.110 -22.199  0.00  0.00    +0.108 C 
ATOM     17  O   UNL     1      33.860 -17.127 -24.620  0.00  0.00    -0.270 OA
ATOM     18  N   UNL     1      34.791 -16.798 -22.514  0.00  0.00    -0.278 N 
ATOM     19  C   UNL     1      34.227 -16.385 -23.712  0.00  0.00    +0.249 C 
ATOM     20  H   UNL     1      35.048 -16.111 -21.858  0.00  0.00    +0.155 HD
BRANCH  19  21
ATOM     21  C   UNL     1      34.048 -14.918 -23.864  0.00  0.00    +0.054 C 
ATOM     22  C   UNL     1      33.641 -14.420 -25.084  0.00  0.00    +0.005 C 
ATOM     23  C   UNL     1      34.292 -14.101 -22.780  0.00  0.00    +0.005 C 
ATOM     24  C   UNL     1      33.472 -13.044 -25.227  0.00  0.00    +0.000 C 
ATOM     25  C   UNL     1      34.124 -12.724 -22.923  0.00  0.00    +0.000 C 
ATOM     26  C   UNL     1      33.714 -12.195 -24.147  0.00  0.00    +0.000 C 
ENDBRANCH  19  21
BRANCH  16  28
ATOM     27  OXT UNL     1      35.364 -19.769 -23.911  0.00  0.00    -0.244 OA
ATOM     28  C   UNL     1      34.604 -19.149 -23.183  0.00  0.00    +0.348 C 
BRANCH  28  29
ATOM     29  O   UNL     1      33.261 -19.326 -23.175  0.00  0.00    -0.476 OA
ATOM     30  H   UNL     1      32.861 -19.903 -23.795  0.00  0.00    +0.295 HD
ENDBRANCH  28  29
ENDBRANCH  16  28
ENDBRANCH   1  16
TORSDOF 7
ENDMDL
MODEL 5
REMARK VINA RESULT:     -10.1      3.060      9.845
REMARK  Name = 657131
REMARK  7 active torsions:
REMARK  status: ('A' for Active; 'I' for Inactive)
REMARK    1  A    between atoms: C_1  and  CA_2
REMARK    2  A    between atoms: C_1  and  C_3
REMARK    3  A    between atoms: CA_2  and  C_28
REMARK    4  A    between atoms: C_4  and  O_9
REMARK    5  A    between atoms: O_9  and  C_11
REMARK    6  A    between atoms: C_19  and  C_21
REMARK    7  A    between atoms: C_28  and  O_29
REMARK                            x       y       z     vdW  Elec       q    Type
REMARK                         _______ _______ _______ _____ _____    ______ ____
ROOT
ATOM      1  C   UNL     1      32.585 -12.200 -22.534  0.00  0.00    +0.074 C 
ENDROOT
BRANCH   1   2
ATOM      2  C   UNL     1      33.362 -13.408 -22.755  0.00  0.00    -0.016 C 
ATOM      3  C   UNL     1      34.856 -15.726 -23.176  0.00  0.00    +0.145 C 
ATOM      4  C   UNL     1      33.369 -14.015 -24.011  0.00  0.00    -0.001 C 
ATOM      5  C   UNL     1      34.103 -13.961 -21.709  0.00  0.00    -0.001 C 
ATOM      6  C   UNL     1      34.116 -15.174 -24.222  0.00  0.00    +0.037 C 
ATOM      7  C   UNL     1      34.850 -15.120 -21.921  0.00  0.00    +0.037 C 
BRANCH   3   8
ATOM      8  O   UNL     1      35.585 -16.856 -23.383  0.00  0.00    -0.453 OA
BRANCH   8  10
ATOM      9 BR   UNL     1      33.441 -18.913 -24.344  0.00  0.00    -0.046 Br
ATOM     10  C   UNL     1      35.409 -17.908 -22.499  0.00  0.00    +0.151 C 
ATOM     11  C   UNL     1      34.495 -18.912 -22.769  0.00  0.00    +0.069 C 
ATOM     12  C   UNL     1      36.174 -17.915 -21.345  0.00  0.00    +0.038 C 
ATOM     13  C   UNL     1      34.342 -19.957 -21.857  0.00  0.00    +0.010 C 
ATOM     14  C   UNL     1      36.021 -18.960 -20.434  0.00  0.00    +0.003 C 
ATOM     15  C   UNL     1      35.105 -19.980 -20.690  0.00  0.00    +0.001 C 
ENDBRANCH   8  10
ENDBRANCH   3   8
ENDBRANCH   1   2
BRANCH   1  16
ATOM     16  CA  UNL     1      32.908 -10.953 -22.950  0.00  0.00    +0.108 C 
ATOM     17  O   UNL     1      33.517  -8.274 -23.723  0.00  0.00    -0.270 OA
ATOM     18  N   UNL     1      32.483  -9.815 -22.322  0.00  0.00    -0.278 N 
ATOM     19  C   UNL     1      32.816  -8.539 -22.749  0.00  0.00    +0.249 C 
ATOM     20  H   UNL     1      31.913  -9.908 -21.525  0.00  0.00    +0.155 HD
BRANCH  19  21
ATOM     21  C   UNL     1      32.241  -7.426 -21.950  0.00  0.00    +0.054 C 
ATOM     22  C   UNL     1      32.670  -7.248 -20.651  0.00  0.00    +0.005 C 
ATOM     23  C   UNL     1      31.299  -6.605 -22.534  0.00  0.00    +0.005 C 
ATOM     24  C   UNL     1      32.131  -6.202 -19.902  0.00  0.00    +0.000 C 
ATOM     25  C   UNL     1      30.760  -5.559 -21.785  0.00  0.00    +0.000 C 
ATOM     26  C   UNL     1      31.176  -5.358 -20.468  0.00  0.00    +0.000 C 
ENDBRANCH  19  21
BRANCH  16  28
ATOM     27  OXT UNL     1      33.372 -10.954 -25.316  0.00  0.00    -0.244 OA
ATOM     28  C   UNL     1      33.755 -10.814 -24.163  0.00  0.00    +0.348 C 
BRANCH  28  29
ATOM     29  O   UNL     1      35.032 -10.510 -23.829  0.00  0.00    -0.476 OA
ATOM     30  H   UNL     1      35.464  -9.786 -24.239  0.00  0.00    +0.295 HD
ENDBRANCH  28  29
ENDBRANCH  16  28
ENDBRANCH   1  16
TORSDOF 7
ENDMDL
MODEL 6
REMARK VINA RESULT:      -9.9      2.239      3.364
REMARK  Name = 657131
REMARK  7 active torsions:
REMARK  status: ('A' for Active; 'I' for Inactive)
REMARK    1  A    between atoms: C_1  and  CA_2
REMARK    2  A    between atoms: C_1  and  C_3
REMARK    3  A    between atoms: CA_2  and  C_28
REMARK    4  A    between atoms: C_4  and  O_9
REMARK    5  A    between atoms: O_9  and  C_11
REMARK    6  A    between atoms: C_19  and  C_21
REMARK    7  A    between atoms: C_28  and  O_29
REMARK                            x       y       z     vdW  Elec       q    Type
REMARK                         _______ _______ _______ _____ _____    ______ ____
ROOT
ATOM      1  C   UNL     1      34.019 -12.380 -22.621  0.00  0.00    +0.074 C 
ENDROOT
BRANCH   1   2
ATOM      2  C   UNL     1      33.178 -11.195 -22.611  0.00  0.00    -0.016 C 
ATOM      3  C   UNL     1      31.565  -8.919 -22.593  0.00  0.00    +0.145 C 
ATOM      4  C   UNL     1      32.019 -11.166 -21.834  0.00  0.00    -0.001 C 
ATOM      5  C   UNL     1      33.529 -10.084 -23.379  0.00  0.00    -0.001 C 
ATOM      6  C   UNL     1      31.213 -10.028 -21.825  0.00  0.00    +0.037 C 
ATOM      7  C   UNL     1      32.723  -8.946 -23.370  0.00  0.00    +0.037 C 
BRANCH   3   8
ATOM      8  O   UNL     1      30.778  -7.808 -22.584  0.00  0.00    -0.453 OA
BRANCH   8  10
ATOM      9 BR   UNL     1      32.102  -6.252 -20.223  0.00  0.00    -0.046 Br
ATOM     10  C   UNL     1      31.350  -6.610 -22.978  0.00  0.00    +0.151 C 
ATOM     11  C   UNL     1      31.981  -5.792 -22.058  0.00  0.00    +0.069 C 
ATOM     12  C   UNL     1      31.266  -6.266 -24.316  0.00  0.00    +0.038 C 
ATOM     13  C   UNL     1      32.546  -4.591 -22.490  0.00  0.00    +0.010 C 
ATOM     14  C   UNL     1      31.832  -5.066 -24.748  0.00  0.00    +0.003 C 
ATOM     15  C   UNL     1      32.471  -4.229 -23.834  0.00  0.00    +0.001 C 
ENDBRANCH   8  10
ENDBRANCH   3   8
ENDBRANCH   1   2
BRANCH   1  16
ATOM     16  CA  UNL     1      33.970 -13.389 -23.522  0.00  0.00    +0.108 C 
ATOM     17  O   UNL     1      33.904 -15.602 -25.324  0.00  0.00    -0.270 OA
ATOM     18  N   UNL     1      34.269 -14.688 -23.217  0.00  0.00    -0.278 N 
ATOM     19  C   UNL     1      34.217 -15.720 -24.141  0.00  0.00    +0.249 C 
ATOM     20  H   UNL     1      34.533 -14.901 -22.293  0.00  0.00    +0.155 HD
BRANCH  19  21
ATOM     21  C   UNL     1      34.599 -17.060 -23.627  0.00  0.00    +0.054 C 
ATOM     22  C   UNL     1      35.424 -17.140 -22.524  0.00  0.00    +0.005 C 
ATOM     23  C   UNL     1      34.115 -18.181 -24.267  0.00  0.00    +0.005 C 
ATOM     24  C   UNL     1      35.782 -18.397 -22.041  0.00  0.00    +0.000 C 
ATOM     25  C   UNL     1      34.473 -19.440 -23.783  0.00  0.00    +0.000 C 
ATOM     26  C   UNL     1      35.307 -19.548 -22.670  0.00  0.00    +0.000 C 
ENDBRANCH  19  21
BRANCH  16  28
ATOM     27  OXT UNL     1      34.291 -12.480 -25.732  0.00  0.00    -0.244 OA
ATOM     28  C   UNL     1      33.587 -13.064 -24.921  0.00  0.00    +0.348 C 
BRANCH  28  29
ATOM     29  O   UNL     1      32.334 -13.501 -25.194  0.00  0.00    -0.476 OA
ATOM     30  H   UNL     1      31.612 -13.208 -24.674  0.00  0.00    +0.295 HD
ENDBRANCH  28  29
ENDBRANCH  16  28
ENDBRANCH   1  16
TORSDOF 7
ENDMDL
MODEL 7
REMARK VINA RESULT:      -9.9      3.830      9.982
REMARK  Name = 657131
REMARK  7 active torsions:
REMARK  status: ('A' for Active; 'I' for Inactive)
REMARK    1  A    between atoms: C_1  and  CA_2
REMARK    2  A    between atoms: C_1  and  C_3
REMARK    3  A    between atoms: CA_2  and  C_28
REMARK    4  A    between atoms: C_4  and  O_9
REMARK    5  A    between atoms: O_9  and  C_11
REMARK    6  A    between atoms: C_19  and  C_21
REMARK    7  A    between atoms: C_28  and  O_29
REMARK                            x       y       z     vdW  Elec       q    Type
REMARK                         _______ _______ _______ _____ _____    ______ ____
ROOT
ATOM      1  C   UNL     1      35.764 -17.938 -21.580  0.00  0.00    +0.074 C 
ENDROOT
BRANCH   1   2
ATOM      2  C   UNL     1      35.485 -19.128 -20.794  0.00  0.00    -0.016 C 
ATOM      3  C   UNL     1      34.953 -21.415 -19.287  0.00  0.00    +0.145 C 
ATOM      4  C   UNL     1      34.167 -19.514 -20.554  0.00  0.00    -0.001 C 
ATOM      5  C   UNL     1      36.538 -19.887 -20.281  0.00  0.00    -0.001 C 
ATOM      6  C   UNL     1      33.900 -20.658 -19.800  0.00  0.00    +0.037 C 
ATOM      7  C   UNL     1      36.271 -21.030 -19.527  0.00  0.00    +0.037 C 
BRANCH   3   8
ATOM      8  O   UNL     1      34.692 -22.531 -18.553  0.00  0.00    -0.453 OA
BRANCH   8  10
ATOM      9 BR   UNL     1      32.367 -23.260 -16.601  0.00  0.00    -0.046 Br
ATOM     10  C   UNL     1      35.082 -22.533 -17.223  0.00  0.00    +0.151 C 
ATOM     11  C   UNL     1      34.175 -22.835 -16.222  0.00  0.00    +0.069 C 
ATOM     12  C   UNL     1      36.400 -22.224 -16.938  0.00  0.00    +0.038 C 
ATOM     13  C   UNL     1      34.600 -22.828 -14.894  0.00  0.00    +0.010 C 
ATOM     14  C   UNL     1      36.825 -22.217 -15.609  0.00  0.00    +0.003 C 
ATOM     15  C   UNL     1      35.925 -22.519 -14.587  0.00  0.00    +0.001 C 
ENDBRANCH   8  10
ENDBRANCH   3   8
ENDBRANCH   1   2
BRANCH   1  16
ATOM     16  CA  UNL     1      35.093 -17.531 -22.683  0.00  0.00    +0.108 C 
ATOM     17  O   UNL     1      33.695 -16.546 -24.968  0.00  0.00    -0.270 OA
ATOM     18  N   UNL     1      34.834 -16.219 -22.967  0.00  0.00    -0.278 N 
ATOM     19  C   UNL     1      34.148 -15.805 -24.098  0.00  0.00    +0.249 C 
ATOM     20  H   UNL     1      35.152 -15.534 -22.336  0.00  0.00    +0.155 HD
BRANCH  19  21
ATOM     21  C   UNL     1      33.943 -14.339 -24.222  0.00  0.00    +0.054 C 
ATOM     22  C   UNL     1      34.123 -13.545 -23.108  0.00  0.00    +0.005 C 
ATOM     23  C   UNL     1      33.582 -13.818 -25.447  0.00  0.00    +0.005 C 
ATOM     24  C   UNL     1      33.931 -12.169 -23.224  0.00  0.00    +0.000 C 
ATOM     25  C   UNL     1      33.390 -12.441 -25.563  0.00  0.00    +0.000 C 
ATOM     26  C   UNL     1      33.565 -11.617 -24.451  0.00  0.00    +0.000 C 
ENDBRANCH  19  21
BRANCH  16  28
ATOM     27  OXT UNL     1      35.286 -19.182 -24.429  0.00  0.00    -0.244 OA
ATOM     28  C   UNL     1      34.599 -18.568 -23.627  0.00  0.00    +0.348 C 
BRANCH  28  29
ATOM     29  O   UNL     1      33.264 -18.752 -23.488  0.00  0.00    -0.476 OA
ATOM     30  H   UNL     1      32.819 -19.379 -24.022  0.00  0.00    +0.295 HD
ENDBRANCH  28  29
ENDBRANCH  16  28
ENDBRANCH   1  16
TORSDOF 7
ENDMDL
MODEL 8
REMARK VINA RESULT:      -9.9      2.378      4.026
REMARK  Name = 657131
REMARK  7 active torsions:
REMARK  status: ('A' for Active; 'I' for Inactive)
REMARK    1  A    between atoms: C_1  and  CA_2
REMARK    2  A    between atoms: C_1  and  C_3
REMARK    3  A    between atoms: CA_2  and  C_28
REMARK    4  A    between atoms: C_4  and  O_9
REMARK    5  A    between atoms: O_9  and  C_11
REMARK    6  A    between atoms: C_19  and  C_21
REMARK    7  A    between atoms: C_28  and  O_29
REMARK                            x       y       z     vdW  Elec       q    Type
REMARK                         _______ _______ _______ _____ _____    ______ ____
ROOT
ATOM      1  C   UNL     1      35.205 -18.324 -22.910  0.00  0.00    +0.074 C 
ENDROOT
BRANCH   1   2
ATOM      2  C   UNL     1      34.832 -16.929 -23.078  0.00  0.00    -0.016 C 
ATOM      3  C   UNL     1      34.118 -14.251 -23.396  0.00  0.00    +0.145 C 
ATOM      4  C   UNL     1      34.278 -16.493 -24.281  0.00  0.00    -0.001 C 
ATOM      5  C   UNL     1      35.029 -16.025 -22.033  0.00  0.00    -0.001 C 
ATOM      6  C   UNL     1      33.921 -15.154 -24.441  0.00  0.00    +0.037 C 
ATOM      7  C   UNL     1      34.671 -14.686 -22.192  0.00  0.00    +0.037 C 
BRANCH   3   8
ATOM      8  O   UNL     1      33.768 -12.945 -23.551  0.00  0.00    -0.453 OA
BRANCH   8  10
ATOM      9 BR   UNL     1      33.433  -9.866 -23.942  0.00  0.00    -0.046 Br
ATOM     10  C   UNL     1      33.043 -12.347 -22.535  0.00  0.00    +0.151 C 
ATOM     11  C   UNL     1      32.799 -10.984 -22.549  0.00  0.00    +0.069 C 
ATOM     12  C   UNL     1      32.577 -13.156 -21.513  0.00  0.00    +0.038 C 
ATOM     13  C   UNL     1      32.065 -10.413 -21.509  0.00  0.00    +0.010 C 
ATOM     14  C   UNL     1      31.842 -12.585 -20.474  0.00  0.00    +0.003 C 
ATOM     15  C   UNL     1      31.587 -11.214 -20.471  0.00  0.00    +0.001 C 
ENDBRANCH   8  10
ENDBRANCH   3   8
ENDBRANCH   1   2
BRANCH   1  16
ATOM     16  CA  UNL     1      35.711 -18.888 -21.789  0.00  0.00    +0.108 C 
ATOM     17  O   UNL     1      36.657 -20.138 -19.404  0.00  0.00    -0.270 OA
ATOM     18  N   UNL     1      34.988 -19.704 -20.963  0.00  0.00    -0.278 N 
ATOM     19  C   UNL     1      35.508 -20.282 -19.816  0.00  0.00    +0.249 C 
ATOM     20  H   UNL     1      34.050 -19.890 -21.197  0.00  0.00    +0.155 HD
BRANCH  19  21
ATOM     21  C   UNL     1      34.562 -21.119 -19.034  0.00  0.00    +0.054 C 
ATOM     22  C   UNL     1      33.208 -20.982 -19.261  0.00  0.00    +0.005 C 
ATOM     23  C   UNL     1      35.068 -22.009 -18.110  0.00  0.00    +0.005 C 
ATOM     24  C   UNL     1      32.320 -21.768 -18.528  0.00  0.00    +0.000 C 
ATOM     25  C   UNL     1      34.179 -22.796 -17.377  0.00  0.00    +0.000 C 
ATOM     26  C   UNL     1      32.805 -22.675 -17.586  0.00  0.00    +0.000 C 
ENDBRANCH  19  21
BRANCH  16  28
ATOM     27  OXT UNL     1      38.102 -18.884 -22.099  0.00  0.00    -0.244 OA
ATOM     28  C   UNL     1      37.122 -18.592 -21.428  0.00  0.00    +0.348 C 
BRANCH  28  29
ATOM     29  O   UNL     1      37.193 -17.947 -20.239  0.00  0.00    -0.476 OA
ATOM     30  H   UNL     1      37.793 -17.237 -20.127  0.00  0.00    +0.295 HD
ENDBRANCH  28  29
ENDBRANCH  16  28
ENDBRANCH   1  16
TORSDOF 7
ENDMDL
MODEL 9
REMARK VINA RESULT:      -9.8      1.651      2.545
REMARK  Name = 657131
REMARK  7 active torsions:
REMARK  status: ('A' for Active; 'I' for Inactive)
REMARK    1  A    between atoms: C_1  and  CA_2
REMARK    2  A    between atoms: C_1  and  C_3
REMARK    3  A    between atoms: CA_2  and  C_28
REMARK    4  A    between atoms: C_4  and  O_9
REMARK    5  A    between atoms: O_9  and  C_11
REMARK    6  A    between atoms: C_19  and  C_21
REMARK    7  A    between atoms: C_28  and  O_29
REMARK                            x       y       z     vdW  Elec       q    Type
REMARK                         _______ _______ _______ _____ _____    ______ ____
ROOT
ATOM      1  C   UNL     1      35.352 -16.214 -21.076  0.00  0.00    +0.074 C 
ENDROOT
BRANCH   1   2
ATOM      2  C   UNL     1      34.625 -15.071 -21.601  0.00  0.00    -0.016 C 
ATOM      3  C   UNL     1      33.227 -12.876 -22.607  0.00  0.00    +0.145 C 
ATOM      4  C   UNL     1      34.657 -14.789 -22.967  0.00  0.00    -0.001 C 
ATOM      5  C   UNL     1      33.892 -14.254 -20.738  0.00  0.00    -0.001 C 
ATOM      6  C   UNL     1      33.958 -13.691 -23.470  0.00  0.00    +0.037 C 
ATOM      7  C   UNL     1      33.193 -13.157 -21.242  0.00  0.00    +0.037 C 
BRANCH   3   8
ATOM      8  O   UNL     1      32.544 -11.806 -23.099  0.00  0.00    -0.453 OA
BRANCH   8  10
ATOM      9 BR   UNL     1      31.612  -9.559 -21.141  0.00  0.00    -0.046 Br
ATOM     10  C   UNL     1      33.239 -10.620 -23.266  0.00  0.00    +0.151 C 
ATOM     11  C   UNL     1      32.954  -9.517 -22.479  0.00  0.00    +0.069 C 
ATOM     12  C   UNL     1      34.221 -10.580 -24.241  0.00  0.00    +0.038 C 
ATOM     13  C   UNL     1      33.673  -8.338 -22.674  0.00  0.00    +0.010 C 
ATOM     14  C   UNL     1      34.940  -9.400 -24.435  0.00  0.00    +0.003 C 
ATOM     15  C   UNL     1      34.666  -8.279 -23.652  0.00  0.00    +0.001 C 
ENDBRANCH   8  10
ENDBRANCH   3   8
ENDBRANCH   1   2
BRANCH   1  16
ATOM     16  CA  UNL     1      35.152 -17.511 -21.407  0.00  0.00    +0.108 C 
ATOM     17  O   UNL     1      34.710 -20.273 -21.973  0.00  0.00    -0.270 OA
ATOM     18  N   UNL     1      34.884 -18.490 -20.491  0.00  0.00    -0.278 N 
ATOM     19  C   UNL     1      34.679 -19.818 -20.832  0.00  0.00    +0.249 C 
ATOM     20  H   UNL     1      34.835 -18.238 -19.541  0.00  0.00    +0.155 HD
BRANCH  19  21
ATOM     21  C   UNL     1      34.423 -20.740 -19.695  0.00  0.00    +0.054 C 
ATOM     22  C   UNL     1      35.500 -21.268 -19.013  0.00  0.00    +0.005 C 
ATOM     23  C   UNL     1      33.120 -21.035 -19.357  0.00  0.00    +0.005 C 
ATOM     24  C   UNL     1      35.261 -22.133 -17.946  0.00  0.00    +0.000 C 
ATOM     25  C   UNL     1      32.881 -21.900 -18.289  0.00  0.00    +0.000 C 
ATOM     26  C   UNL     1      33.952 -22.449 -17.583  0.00  0.00    +0.000 C 
ENDBRANCH  19  21
BRANCH  16  28
ATOM     27  OXT UNL     1      34.355 -17.759 -23.669  0.00  0.00    -0.244 OA
ATOM     28  C   UNL     1      35.244 -17.893 -22.841  0.00  0.00    +0.348 C 
BRANCH  28  29
ATOM     29  O   UNL     1      36.459 -18.420 -23.124  0.00  0.00    -0.476 OA
ATOM     30  H   UNL     1      36.675 -19.283 -22.831  0.00  0.00    +0.295 HD
ENDBRANCH  28  29
ENDBRANCH  16  28
ENDBRANCH   1  16
TORSDOF 7
ENDMDL
