MODEL 1
REMARK VINA RESULT:     -11.4      0.000      0.000
REMARK  Name = 10224714
REMARK  8 active torsions:
REMARK  status: ('A' for Active; 'I' for Inactive)
REMARK    1  A    between atoms: N_1  and  C_12
REMARK    2  A    between atoms: N_2  and  CA_30
REMARK    3  A    between atoms: N_15  and  C_17
REMARK    4  A    between atoms: C_17  and  C_18
REMARK    5  A    between atoms: C_21  and  C_25
REMARK    6  A    between atoms: CA_30  and  C_31
REMARK    7  A    between atoms: CA_30  and  C_33
REMARK    8  A    between atoms: C_33  and  O_34
REMARK                            x       y       z     vdW  Elec       q    Type
REMARK                         _______ _______ _______ _____ _____    ______ ____
ROOT
ATOM      1  N   UNL     1      31.361 -24.121 -14.757  0.00  0.00    -0.262 N 
ATOM      2  N   UNL     1      36.031 -24.057 -13.887  0.00  0.00    -0.258 N 
ATOM      3  N   UNL     1      33.707 -24.184 -14.130  0.00  0.00    -0.311 NA
ATOM      4  N   UNL     1      31.523 -23.122 -16.743  0.00  0.00    -0.240 NA
ATOM      5  N   UNL     1      35.112 -23.181 -15.856  0.00  0.00    -0.311 NA
ATOM      6  C   UNL     1      32.692 -23.883 -14.953  0.00  0.00    +0.220 C 
ATOM      7  C   UNL     1      32.770 -23.263 -16.190  0.00  0.00    +0.167 C 
ATOM      8  C   UNL     1      34.039 -22.908 -16.636  0.00  0.00    +0.215 C 
ATOM      9  C   UNL     1      34.909 -23.799 -14.651  0.00  0.00    +0.202 C 
ATOM     10  C   UNL     1      30.700 -23.646 -15.858  0.00  0.00    +0.222 C 
ATOM     11  H   UNL     1      36.909 -23.790 -14.243  0.00  0.00    +0.160 HD
ATOM     12  N   UNL     1      34.213 -22.273 -17.878  0.00  0.00    -0.302 N 
ATOM     13  H   UNL     1      33.415 -22.087 -18.426  0.00  0.00    +0.150 HD
ENDROOT
BRANCH   1  14
ATOM     14  C   UNL     1      30.757 -24.753 -13.610  0.00  0.00    +0.077 C 
ATOM     15  C   UNL     1      30.624 -23.790 -12.428  0.00  0.00    +0.022 C 
ATOM     16  C   UNL     1      29.418 -25.408 -13.955  0.00  0.00    +0.022 C 
ENDBRANCH   1  14
BRANCH  12  17
ATOM     17  C   UNL     1      35.496 -21.887 -18.386  0.00  0.00    +0.116 C 
BRANCH  17  18
ATOM     18  C   UNL     1      35.345 -20.836 -19.453  0.00  0.00    -0.003 C 
ATOM     19  C   UNL     1      34.103 -20.626 -20.037  0.00  0.00    -0.003 C 
ATOM     20  C   UNL     1      36.451 -20.092 -19.840  0.00  0.00    -0.003 C 
ATOM     21  C   UNL     1      35.069 -18.899 -21.423  0.00  0.00    +0.018 C 
ATOM     22  C   UNL     1      33.965 -19.653 -21.027  0.00  0.00    +0.001 C 
ATOM     23  C   UNL     1      36.312 -19.118 -20.830  0.00  0.00    +0.001 C 
BRANCH  21  25
ATOM     24  N   UNL     1      35.265 -16.639 -22.067  0.00  0.00    -0.244 NA
ATOM     25  C   UNL     1      34.924 -17.889 -22.449  0.00  0.00    +0.081 C 
ATOM     26  C   UNL     1      34.466 -18.221 -23.712  0.00  0.00    +0.019 C 
ATOM     27  C   UNL     1      34.352 -17.201 -24.649  0.00  0.00    +0.003 C 
ATOM     28  C   UNL     1      35.140 -15.673 -23.005  0.00  0.00    +0.099 C 
ATOM     29  C   UNL     1      34.693 -15.900 -24.297  0.00  0.00    +0.021 C 
ENDBRANCH  21  25
ENDBRANCH  17  18
ENDBRANCH  12  17
BRANCH   2  30
ATOM     30  CA  UNL     1      35.984 -24.701 -12.587  0.00  0.00    +0.109 C 
BRANCH  30  31
ATOM     31  C   UNL     1      36.105 -23.648 -11.479  0.00  0.00    +0.023 C 
ATOM     32  C   UNL     1      37.431 -22.901 -11.519  0.00  0.00    +0.002 C 
ENDBRANCH  30  31
BRANCH  30  33
ATOM     33  C   UNL     1      37.124 -25.716 -12.501  0.00  0.00    +0.157 C 
BRANCH  33  34
ATOM     34  O   UNL     1      37.028 -26.430 -11.273  0.00  0.00    -0.380 OA
ATOM     35  H   UNL     1      36.195 -26.201 -10.830  0.00  0.00    +0.211 HD
ENDBRANCH  33  34
ENDBRANCH  30  33
ENDBRANCH   2  30
TORSDOF 8
ENDMDL
MODEL 2
REMARK VINA RESULT:     -10.3      1.003      1.625
REMARK  Name = 10224714
REMARK  8 active torsions:
REMARK  status: ('A' for Active; 'I' for Inactive)
REMARK    1  A    between atoms: N_1  and  C_12
REMARK    2  A    between atoms: N_2  and  CA_30
REMARK    3  A    between atoms: N_15  and  C_17
REMARK    4  A    between atoms: C_17  and  C_18
REMARK    5  A    between atoms: C_21  and  C_25
REMARK    6  A    between atoms: CA_30  and  C_31
REMARK    7  A    between atoms: CA_30  and  C_33
REMARK    8  A    between atoms: C_33  and  O_34
REMARK                            x       y       z     vdW  Elec       q    Type
REMARK                         _______ _______ _______ _____ _____    ______ ____
ROOT
ATOM      1  N   UNL     1      31.523 -23.675 -14.991  0.00  0.00    -0.262 N 
ATOM      2  N   UNL     1      36.246 -23.937 -14.555  0.00  0.00    -0.258 N 
ATOM      3  N   UNL     1      33.906 -23.901 -14.582  0.00  0.00    -0.311 NA
ATOM      4  N   UNL     1      31.569 -22.705 -16.998  0.00  0.00    -0.240 NA
ATOM      5  N   UNL     1      35.212 -23.014 -16.443  0.00  0.00    -0.311 NA
ATOM      6  C   UNL     1      32.843 -23.534 -15.312  0.00  0.00    +0.220 C 
ATOM      7  C   UNL     1      32.849 -22.930 -16.560  0.00  0.00    +0.167 C 
ATOM      8  C   UNL     1      34.093 -22.670 -17.126  0.00  0.00    +0.215 C 
ATOM      9  C   UNL     1      35.079 -23.606 -15.217  0.00  0.00    +0.202 C 
ATOM     10  C   UNL     1      30.797 -23.163 -16.034  0.00  0.00    +0.222 C 
ATOM     11  H   UNL     1      37.104 -23.736 -14.994  0.00  0.00    +0.160 HD
ATOM     12  N   UNL     1      34.195 -22.059 -18.387  0.00  0.00    -0.302 N 
ATOM     13  H   UNL     1      33.365 -21.820 -18.862  0.00  0.00    +0.150 HD
ENDROOT
BRANCH   1  14
ATOM     14  C   UNL     1      30.984 -24.255 -13.784  0.00  0.00    +0.077 C 
ATOM     15  C   UNL     1      29.756 -25.124 -14.065  0.00  0.00    +0.022 C 
ATOM     16  C   UNL     1      32.046 -25.019 -12.992  0.00  0.00    +0.022 C 
ENDBRANCH   1  14
BRANCH  12  17
ATOM     17  C   UNL     1      35.449 -21.768 -19.016  0.00  0.00    +0.116 C 
BRANCH  17  18
ATOM     18  C   UNL     1      35.319 -20.576 -19.925  0.00  0.00    -0.003 C 
ATOM     19  C   UNL     1      36.427 -19.775 -20.166  0.00  0.00    -0.003 C 
ATOM     20  C   UNL     1      34.093 -20.292 -20.510  0.00  0.00    -0.003 C 
ATOM     21  C   UNL     1      35.078 -18.375 -21.601  0.00  0.00    +0.018 C 
ATOM     22  C   UNL     1      36.306 -18.669 -21.008  0.00  0.00    +0.001 C 
ATOM     23  C   UNL     1      33.972 -19.186 -21.352  0.00  0.00    +0.001 C 
BRANCH  21  25
ATOM     24  N   UNL     1      34.854 -17.524 -23.788  0.00  0.00    -0.244 NA
ATOM     25  C   UNL     1      34.954 -17.229 -22.474  0.00  0.00    +0.081 C 
ATOM     26  C   UNL     1      34.944 -15.943 -21.961  0.00  0.00    +0.019 C 
ATOM     27  C   UNL     1      34.821 -14.888 -22.858  0.00  0.00    +0.003 C 
ATOM     28  C   UNL     1      34.736 -16.473 -24.630  0.00  0.00    +0.099 C 
ATOM     29  C   UNL     1      34.715 -15.149 -24.220  0.00  0.00    +0.021 C 
ENDBRANCH  21  25
ENDBRANCH  17  18
ENDBRANCH  12  17
BRANCH   2  30
ATOM     30  CA  UNL     1      36.275 -24.567 -13.248  0.00  0.00    +0.109 C 
BRANCH  30  31
ATOM     31  C   UNL     1      37.302 -23.863 -12.354  0.00  0.00    +0.023 C 
ATOM     32  C   UNL     1      36.657 -23.104 -11.201  0.00  0.00    +0.002 C 
ENDBRANCH  30  31
BRANCH  30  33
ATOM     33  C   UNL     1      36.625 -26.044 -13.422  0.00  0.00    +0.157 C 
BRANCH  33  34
ATOM     34  O   UNL     1      35.853 -26.591 -14.486  0.00  0.00    -0.380 OA
ATOM     35  H   UNL     1      36.440 -27.035 -15.117  0.00  0.00    +0.211 HD
ENDBRANCH  33  34
ENDBRANCH  30  33
ENDBRANCH   2  30
TORSDOF 8
ENDMDL
MODEL 3
REMARK VINA RESULT:      -9.8      1.485      4.111
REMARK  Name = 10224714
REMARK  8 active torsions:
REMARK  status: ('A' for Active; 'I' for Inactive)
REMARK    1  A    between atoms: N_1  and  C_12
REMARK    2  A    between atoms: N_2  and  CA_30
REMARK    3  A    between atoms: N_15  and  C_17
REMARK    4  A    between atoms: C_17  and  C_18
REMARK    5  A    between atoms: C_21  and  C_25
REMARK    6  A    between atoms: CA_30  and  C_31
REMARK    7  A    between atoms: CA_30  and  C_33
REMARK    8  A    between atoms: C_33  and  O_34
REMARK                            x       y       z     vdW  Elec       q    Type
REMARK                         _______ _______ _______ _____ _____    ______ ____
ROOT
ATOM      1  N   UNL     1      36.339 -23.029 -13.346  0.00  0.00    -0.262 N 
ATOM      2  N   UNL     1      31.923 -24.052 -14.767  0.00  0.00    -0.258 N 
ATOM      3  N   UNL     1      34.039 -23.603 -13.873  0.00  0.00    -0.311 NA
ATOM      4  N   UNL     1      37.050 -22.404 -15.364  0.00  0.00    -0.240 NA
ATOM      5  N   UNL     1      33.562 -23.261 -16.242  0.00  0.00    -0.311 NA
ATOM      6  C   UNL     1      35.271 -23.175 -14.185  0.00  0.00    +0.220 C 
ATOM      7  C   UNL     1      35.733 -22.783 -15.431  0.00  0.00    +0.167 C 
ATOM      8  C   UNL     1      34.825 -22.837 -16.484  0.00  0.00    +0.215 C 
ATOM      9  C   UNL     1      33.221 -23.623 -14.967  0.00  0.00    +0.202 C 
ATOM     10  C   UNL     1      37.383 -22.564 -14.100  0.00  0.00    +0.222 C 
ATOM     11  H   UNL     1      31.315 -24.073 -15.540  0.00  0.00    +0.160 HD
ATOM     12  N   UNL     1      35.208 -22.460 -17.783  0.00  0.00    -0.302 N 
ATOM     13  H   UNL     1      36.133 -22.155 -17.930  0.00  0.00    +0.150 HD
ENDROOT
BRANCH   1  14
ATOM     14  C   UNL     1      36.371 -23.308 -11.930  0.00  0.00    +0.077 C 
ATOM     15  C   UNL     1      36.240 -24.804 -11.639  0.00  0.00    +0.022 C 
ATOM     16  C   UNL     1      37.606 -22.709 -11.256  0.00  0.00    +0.022 C 
ENDBRANCH   1  14
BRANCH  12  17
ATOM     17  C   UNL     1      34.314 -22.496 -18.902  0.00  0.00    +0.116 C 
BRANCH  17  18
ATOM     18  C   UNL     1      34.452 -21.246 -19.727  0.00  0.00    -0.003 C 
ATOM     19  C   UNL     1      33.319 -20.652 -20.265  0.00  0.00    -0.003 C 
ATOM     20  C   UNL     1      35.712 -20.702 -19.940  0.00  0.00    -0.003 C 
ATOM     21  C   UNL     1      34.707 -18.938 -21.251  0.00  0.00    +0.018 C 
ATOM     22  C   UNL     1      33.447 -19.493 -21.031  0.00  0.00    +0.001 C 
ATOM     23  C   UNL     1      35.840 -19.542 -20.706  0.00  0.00    +0.001 C 
BRANCH  21  25
ATOM     24  N   UNL     1      34.940 -16.593 -21.331  0.00  0.00    -0.244 NA
ATOM     25  C   UNL     1      34.839 -17.736 -22.044  0.00  0.00    +0.081 C 
ATOM     26  C   UNL     1      34.855 -17.796 -23.427  0.00  0.00    +0.019 C 
ATOM     27  C   UNL     1      34.985 -16.602 -24.126  0.00  0.00    +0.003 C 
ATOM     28  C   UNL     1      35.065 -15.452 -22.045  0.00  0.00    +0.099 C 
ATOM     29  C   UNL     1      35.092 -15.402 -23.430  0.00  0.00    +0.021 C 
ENDBRANCH  21  25
ENDBRANCH  17  18
ENDBRANCH  12  17
BRANCH   2  30
ATOM     30  CA  UNL     1      31.408 -24.472 -13.477  0.00  0.00    +0.109 C 
BRANCH  30  31
ATOM     31  C   UNL     1      30.196 -25.390 -13.674  0.00  0.00    +0.023 C 
ATOM     32  C   UNL     1      29.136 -24.778 -14.581  0.00  0.00    +0.002 C 
ENDBRANCH  30  31
BRANCH  30  33
ATOM     33  C   UNL     1      31.027 -23.230 -12.672  0.00  0.00    +0.157 C 
BRANCH  33  34
ATOM     34  O   UNL     1      32.155 -22.786 -11.925  0.00  0.00    -0.380 OA
ATOM     35  H   UNL     1      32.960 -22.909 -12.452  0.00  0.00    +0.211 HD
ENDBRANCH  33  34
ENDBRANCH  30  33
ENDBRANCH   2  30
TORSDOF 8
ENDMDL
MODEL 4
REMARK VINA RESULT:      -8.8      2.511      4.716
REMARK  Name = 10224714
REMARK  8 active torsions:
REMARK  status: ('A' for Active; 'I' for Inactive)
REMARK    1  A    between atoms: N_1  and  C_12
REMARK    2  A    between atoms: N_2  and  CA_30
REMARK    3  A    between atoms: N_15  and  C_17
REMARK    4  A    between atoms: C_17  and  C_18
REMARK    5  A    between atoms: C_21  and  C_25
REMARK    6  A    between atoms: CA_30  and  C_31
REMARK    7  A    between atoms: CA_30  and  C_33
REMARK    8  A    between atoms: C_33  and  O_34
REMARK                            x       y       z     vdW  Elec       q    Type
REMARK                         _______ _______ _______ _____ _____    ______ ____
ROOT
ATOM      1  N   UNL     1      36.537 -24.383 -11.871  0.00  0.00    -0.262 N 
ATOM      2  N   UNL     1      36.658 -27.121 -15.751  0.00  0.00    -0.258 N 
ATOM      3  N   UNL     1      36.750 -25.894 -13.760  0.00  0.00    -0.311 NA
ATOM      4  N   UNL     1      34.923 -23.045 -12.630  0.00  0.00    -0.240 NA
ATOM      5  N   UNL     1      35.191 -25.306 -15.545  0.00  0.00    -0.311 NA
ATOM      6  C   UNL     1      36.215 -24.847 -13.115  0.00  0.00    +0.220 C 
ATOM      7  C   UNL     1      35.213 -24.004 -13.567  0.00  0.00    +0.167 C 
ATOM      8  C   UNL     1      34.699 -24.263 -14.834  0.00  0.00    +0.215 C 
ATOM      9  C   UNL     1      36.183 -26.070 -14.991  0.00  0.00    +0.202 C 
ATOM     10  C   UNL     1      35.736 -23.300 -11.625  0.00  0.00    +0.222 C 
ATOM     11  H   UNL     1      36.263 -27.268 -16.641  0.00  0.00    +0.160 HD
ATOM     12  N   UNL     1      33.681 -23.458 -15.374  0.00  0.00    -0.302 N 
ATOM     13  H   UNL     1      33.340 -22.707 -14.835  0.00  0.00    +0.150 HD
ENDROOT
BRANCH   1  14
ATOM     14  C   UNL     1      37.533 -24.924 -10.977  0.00  0.00    +0.077 C 
ATOM     15  C   UNL     1      37.552 -26.454 -11.001  0.00  0.00    +0.022 C 
ATOM     16  C   UNL     1      38.921 -24.340 -11.244  0.00  0.00    +0.022 C 
ENDBRANCH   1  14
BRANCH  12  17
ATOM     17  C   UNL     1      33.115 -23.680 -16.672  0.00  0.00    +0.116 C 
BRANCH  17  18
ATOM     18  C   UNL     1      33.665 -22.691 -17.663  0.00  0.00    -0.003 C 
ATOM     19  C   UNL     1      35.039 -22.511 -17.760  0.00  0.00    -0.003 C 
ATOM     20  C   UNL     1      32.793 -21.972 -18.468  0.00  0.00    -0.003 C 
ATOM     21  C   UNL     1      34.681 -20.865 -19.492  0.00  0.00    +0.018 C 
ATOM     22  C   UNL     1      35.549 -21.593 -18.678  0.00  0.00    +0.001 C 
ATOM     23  C   UNL     1      33.303 -21.054 -19.387  0.00  0.00    +0.001 C 
BRANCH  21  25
ATOM     24  N   UNL     1      36.450 -19.457 -20.162  0.00  0.00    -0.244 NA
ATOM     25  C   UNL     1      35.211 -19.915 -20.445  0.00  0.00    +0.081 C 
ATOM     26  C   UNL     1      34.470 -19.528 -21.549  0.00  0.00    +0.019 C 
ATOM     27  C   UNL     1      35.041 -18.611 -22.424  0.00  0.00    +0.003 C 
ATOM     28  C   UNL     1      36.972 -18.567 -21.035  0.00  0.00    +0.099 C 
ATOM     29  C   UNL     1      36.315 -18.116 -22.169  0.00  0.00    +0.021 C 
ENDBRANCH  21  25
ENDBRANCH  17  18
ENDBRANCH  12  17
BRANCH   2  30
ATOM     30  CA  UNL     1      37.707 -28.020 -15.309  0.00  0.00    +0.109 C 
BRANCH  30  31
ATOM     31  C   UNL     1      39.079 -27.435 -15.667  0.00  0.00    +0.023 C 
ATOM     32  C   UNL     1      40.014 -27.350 -14.467  0.00  0.00    +0.002 C 
ENDBRANCH  30  31
BRANCH  30  33
ATOM     33  C   UNL     1      37.503 -29.379 -15.977  0.00  0.00    +0.157 C 
BRANCH  33  34
ATOM     34  O   UNL     1      38.258 -29.431 -17.183  0.00  0.00    -0.380 OA
ATOM     35  H   UNL     1      39.066 -28.904 -17.081  0.00  0.00    +0.211 HD
ENDBRANCH  33  34
ENDBRANCH  30  33
ENDBRANCH   2  30
TORSDOF 8
ENDMDL
MODEL 5
REMARK VINA RESULT:      -8.7      1.841      4.357
REMARK  Name = 10224714
REMARK  8 active torsions:
REMARK  status: ('A' for Active; 'I' for Inactive)
REMARK    1  A    between atoms: N_1  and  C_12
REMARK    2  A    between atoms: N_2  and  CA_30
REMARK    3  A    between atoms: N_15  and  C_17
REMARK    4  A    between atoms: C_17  and  C_18
REMARK    5  A    between atoms: C_21  and  C_25
REMARK    6  A    between atoms: CA_30  and  C_31
REMARK    7  A    between atoms: CA_30  and  C_33
REMARK    8  A    between atoms: C_33  and  O_34
REMARK                            x       y       z     vdW  Elec       q    Type
REMARK                         _______ _______ _______ _____ _____    ______ ____
ROOT
ATOM      1  N   UNL     1      36.426 -22.815 -13.851  0.00  0.00    -0.262 N 
ATOM      2  N   UNL     1      32.275 -23.410 -16.082  0.00  0.00    -0.258 N 
ATOM      3  N   UNL     1      34.222 -23.170 -14.806  0.00  0.00    -0.311 NA
ATOM      4  N   UNL     1      37.548 -22.224 -15.685  0.00  0.00    -0.240 NA
ATOM      5  N   UNL     1      34.219 -22.747 -17.210  0.00  0.00    -0.311 NA
ATOM      6  C   UNL     1      35.522 -22.850 -14.874  0.00  0.00    +0.220 C 
ATOM      7  C   UNL     1      36.238 -22.481 -16.002  0.00  0.00    +0.167 C 
ATOM      8  C   UNL     1      35.537 -22.436 -17.204  0.00  0.00    +0.215 C 
ATOM      9  C   UNL     1      33.620 -23.098 -16.030  0.00  0.00    +0.202 C 
ATOM     10  C   UNL     1      37.628 -22.434 -14.388  0.00  0.00    +0.222 C 
ATOM     11  H   UNL     1      31.820 -23.363 -16.954  0.00  0.00    +0.160 HD
ATOM     12  N   UNL     1      36.183 -22.074 -18.399  0.00  0.00    -0.302 N 
ATOM     13  H   UNL     1      37.142 -21.851 -18.365  0.00  0.00    +0.150 HD
ENDROOT
BRANCH   1  14
ATOM     14  C   UNL     1      36.174 -23.119 -12.463  0.00  0.00    +0.077 C 
ATOM     15  C   UNL     1      35.730 -24.570 -12.267  0.00  0.00    +0.022 C 
ATOM     16  C   UNL     1      37.368 -22.769 -11.573  0.00  0.00    +0.022 C 
ENDBRANCH   1  14
BRANCH  12  17
ATOM     17  C   UNL     1      35.511 -22.011 -19.662  0.00  0.00    +0.116 C 
BRANCH  17  18
ATOM     18  C   UNL     1      35.348 -20.581 -20.102  0.00  0.00    -0.003 C 
ATOM     19  C   UNL     1      34.096 -20.121 -20.486  0.00  0.00    -0.003 C 
ATOM     20  C   UNL     1      36.453 -19.741 -20.119  0.00  0.00    -0.003 C 
ATOM     21  C   UNL     1      35.049 -17.943 -20.915  0.00  0.00    +0.018 C 
ATOM     22  C   UNL     1      33.946 -18.796 -20.895  0.00  0.00    +0.001 C 
ATOM     23  C   UNL     1      36.303 -18.415 -20.527  0.00  0.00    +0.001 C 
BRANCH  21  25
ATOM     24  N   UNL     1      35.056 -16.359 -22.662  0.00  0.00    -0.244 NA
ATOM     25  C   UNL     1      34.893 -16.568 -21.338  0.00  0.00    +0.081 C 
ATOM     26  C   UNL     1      34.600 -15.572 -20.421  0.00  0.00    +0.019 C 
ATOM     27  C   UNL     1      34.463 -14.274 -20.897  0.00  0.00    +0.003 C 
ATOM     28  C   UNL     1      34.916 -15.084 -23.088  0.00  0.00    +0.099 C 
ATOM     29  C   UNL     1      34.623 -14.016 -22.255  0.00  0.00    +0.021 C 
ENDBRANCH  21  25
ENDBRANCH  17  18
ENDBRANCH  12  17
BRANCH   2  30
ATOM     30  CA  UNL     1      31.498 -23.802 -14.922  0.00  0.00    +0.109 C 
BRANCH  30  31
ATOM     31  C   UNL     1      30.084 -24.208 -15.355  0.00  0.00    +0.023 C 
ATOM     32  C   UNL     1      29.435 -25.197 -14.395  0.00  0.00    +0.002 C 
ENDBRANCH  30  31
BRANCH  30  33
ATOM     33  C   UNL     1      31.452 -22.630 -13.942  0.00  0.00    +0.157 C 
BRANCH  33  34
ATOM     34  O   UNL     1      31.824 -23.085 -12.645  0.00  0.00    -0.380 OA
ATOM     35  H   UNL     1      32.442 -22.453 -12.245  0.00  0.00    +0.211 HD
ENDBRANCH  33  34
ENDBRANCH  30  33
ENDBRANCH   2  30
TORSDOF 8
ENDMDL
