MODEL 1
REMARK VINA RESULT:     -10.7      0.000      0.000
REMARK  Name = 6852168
REMARK  5 active torsions:
REMARK  status: ('A' for Active; 'I' for Inactive)
REMARK    1  A    between atoms: N_1  and  C_5
REMARK    2  A    between atoms: N_1  and  S_19
REMARK    3  A    between atoms: N_4  and  C_9
REMARK    4  A    between atoms: C_9  and  C_14
REMARK    5  A    between atoms: S_19  and  C_23
REMARK                            x       y       z     vdW  Elec       q    Type
REMARK                         _______ _______ _______ _____ _____    ______ ____
ROOT
ATOM      1  N   UNL     1      34.994 -23.744 -15.739  0.00  0.00    -0.172 NA
ATOM      2  H   UNL     1      35.840 -23.583 -16.286  0.00  0.00    +0.149 HD
ENDROOT
BRANCH   1   5
ATOM      3  O   UNL     1      37.541 -22.536 -14.614  0.00  0.00    -0.273 OA
ATOM      4  N   UNL     1      36.720 -24.147 -13.108  0.00  0.00    -0.272 N 
ATOM      5  C   UNL     1      35.174 -23.035 -14.460  0.00  0.00    +0.153 C 
ATOM      6  C   UNL     1      34.441 -23.742 -13.326  0.00  0.00    +0.048 C 
ATOM      7  C   UNL     1      35.445 -24.753 -12.803  0.00  0.00    +0.096 C 
ATOM      8  C   UNL     1      36.630 -23.163 -14.091  0.00  0.00    +0.242 C 
BRANCH   4   9
ATOM      9  C   UNL     1      37.952 -24.655 -12.544  0.00  0.00    +0.152 C 
ATOM     10  C   UNL     1      38.445 -23.814 -11.389  0.00  0.00    +0.031 C 
BRANCH   9  14
ATOM     11  O   UNL     1      37.661 -29.088 -14.943  0.00  0.00    -0.350 OA
ATOM     12  O   UNL     1      37.113 -26.208 -10.960  0.00  0.00    -0.273 OA
ATOM     13  N   UNL     1      37.867 -27.083 -12.974  0.00  0.00    -0.273 N 
ATOM     14  C   UNL     1      37.606 -26.047 -12.081  0.00  0.00    +0.244 C 
ATOM     15  C   UNL     1      38.566 -26.944 -14.256  0.00  0.00    +0.126 C 
ATOM     16  C   UNL     1      37.558 -28.465 -12.606  0.00  0.00    +0.126 C 
ATOM     17  C   UNL     1      37.836 -27.726 -15.341  0.00  0.00    +0.164 C 
ATOM     18  C   UNL     1      36.866 -29.178 -13.759  0.00  0.00    +0.164 C 
ENDBRANCH   9  14
ENDBRANCH   4   9
ENDBRANCH   1   5
BRANCH   1  19
ATOM     19  S   UNL     1      33.677 -23.364 -16.749  0.00  0.00    +0.061 S 
ATOM     20  O   UNL     1      32.687 -22.627 -15.986  0.00  0.00    -0.153 OA
ATOM     21  O   UNL     1      33.291 -24.549 -17.492  0.00  0.00    -0.153 OA
BRANCH  19  23
ATOM     22 CL   UNL     1      36.092 -17.905 -22.753  0.00  0.00    -0.082 Cl
ATOM     23  C   UNL     1      34.416 -22.249 -17.904  0.00  0.00    +0.122 C 
ATOM     24  C   UNL     1      33.623 -21.651 -18.868  0.00  0.00    +0.020 C 
ATOM     25  C   UNL     1      35.772 -21.997 -17.823  0.00  0.00    +0.020 C 
ATOM     26  C   UNL     1      34.196 -20.762 -19.793  0.00  0.00    +0.001 C 
ATOM     27  C   UNL     1      35.583 -20.491 -19.725  0.00  0.00    +0.001 C 
ATOM     28  C   UNL     1      36.357 -21.117 -18.733  0.00  0.00    +0.001 C 
ATOM     29  C   UNL     1      33.421 -20.137 -20.784  0.00  0.00    +0.001 C 
ATOM     30  C   UNL     1      36.156 -19.604 -20.650  0.00  0.00    +0.011 C 
ATOM     31  C   UNL     1      34.007 -19.257 -21.695  0.00  0.00    +0.011 C 
ATOM     32  C   UNL     1      35.372 -18.991 -21.628  0.00  0.00    +0.058 C 
ENDBRANCH  19  23
ENDBRANCH   1  19
TORSDOF 5
ENDMDL
MODEL 2
REMARK VINA RESULT:     -10.6      0.805      1.491
REMARK  Name = 6852168
REMARK  5 active torsions:
REMARK  status: ('A' for Active; 'I' for Inactive)
REMARK    1  A    between atoms: N_1  and  C_5
REMARK    2  A    between atoms: N_1  and  S_19
REMARK    3  A    between atoms: N_4  and  C_9
REMARK    4  A    between atoms: C_9  and  C_14
REMARK    5  A    between atoms: S_19  and  C_23
REMARK                            x       y       z     vdW  Elec       q    Type
REMARK                         _______ _______ _______ _____ _____    ______ ____
ROOT
ATOM      1  N   UNL     1      35.101 -23.183 -16.207  0.00  0.00    -0.172 NA
ATOM      2  H   UNL     1      35.602 -22.373 -16.573  0.00  0.00    +0.149 HD
ENDROOT
BRANCH   1   5
ATOM      3  O   UNL     1      37.481 -22.447 -14.473  0.00  0.00    -0.273 OA
ATOM      4  N   UNL     1      36.723 -24.592 -13.873  0.00  0.00    -0.272 N 
ATOM      5  C   UNL     1      35.159 -23.089 -14.738  0.00  0.00    +0.153 C 
ATOM      6  C   UNL     1      34.432 -24.255 -14.078  0.00  0.00    +0.048 C 
ATOM      7  C   UNL     1      35.489 -25.338 -13.960  0.00  0.00    +0.096 C 
ATOM      8  C   UNL     1      36.601 -23.286 -14.344  0.00  0.00    +0.242 C 
BRANCH   4   9
ATOM      9  C   UNL     1      37.964 -25.227 -13.484  0.00  0.00    +0.152 C 
ATOM     10  C   UNL     1      38.716 -24.433 -12.443  0.00  0.00    +0.031 C 
BRANCH   9  14
ATOM     11  O   UNL     1      37.286 -29.753 -15.619  0.00  0.00    -0.350 OA
ATOM     12  O   UNL     1      37.082 -26.631 -11.789  0.00  0.00    -0.273 OA
ATOM     13  N   UNL     1      37.700 -27.664 -13.774  0.00  0.00    -0.273 N 
ATOM     14  C   UNL     1      37.542 -26.566 -12.932  0.00  0.00    +0.244 C 
ATOM     15  C   UNL     1      38.359 -27.643 -15.085  0.00  0.00    +0.126 C 
ATOM     16  C   UNL     1      37.312 -28.999 -13.319  0.00  0.00    +0.126 C 
ATOM     17  C   UNL     1      37.538 -28.430 -16.099  0.00  0.00    +0.164 C 
ATOM     18  C   UNL     1      36.531 -29.724 -14.406  0.00  0.00    +0.164 C 
ENDBRANCH   9  14
ENDBRANCH   4   9
ENDBRANCH   1   5
BRANCH   1  19
ATOM     19  S   UNL     1      33.596 -23.230 -17.002  0.00  0.00    +0.061 S 
ATOM     20  O   UNL     1      32.565 -22.747 -16.102  0.00  0.00    -0.153 OA
ATOM     21  O   UNL     1      33.447 -24.514 -17.659  0.00  0.00    -0.153 OA
BRANCH  19  23
ATOM     22 CL   UNL     1      35.869 -17.558 -22.861  0.00  0.00    -0.082 Cl
ATOM     23  C   UNL     1      33.820 -22.022 -18.272  0.00  0.00    +0.122 C 
ATOM     24  C   UNL     1      35.101 -21.611 -18.595  0.00  0.00    +0.020 C 
ATOM     25  C   UNL     1      32.711 -21.511 -18.918  0.00  0.00    +0.020 C 
ATOM     26  C   UNL     1      35.296 -20.652 -19.603  0.00  0.00    +0.001 C 
ATOM     27  C   UNL     1      34.172 -20.118 -20.277  0.00  0.00    +0.001 C 
ATOM     28  C   UNL     1      32.886 -20.559 -19.922  0.00  0.00    +0.001 C 
ATOM     29  C   UNL     1      36.582 -20.213 -19.958  0.00  0.00    +0.001 C 
ATOM     30  C   UNL     1      34.366 -19.159 -21.284  0.00  0.00    +0.011 C 
ATOM     31  C   UNL     1      36.756 -19.259 -20.962  0.00  0.00    +0.011 C 
ATOM     32  C   UNL     1      35.650 -18.733 -21.623  0.00  0.00    +0.058 C 
ENDBRANCH  19  23
ENDBRANCH   1  19
TORSDOF 5
ENDMDL
MODEL 3
REMARK VINA RESULT:     -10.5      7.754     13.268
REMARK  Name = 6852168
REMARK  5 active torsions:
REMARK  status: ('A' for Active; 'I' for Inactive)
REMARK    1  A    between atoms: N_1  and  C_5
REMARK    2  A    between atoms: N_1  and  S_19
REMARK    3  A    between atoms: N_4  and  C_9
REMARK    4  A    between atoms: C_9  and  C_14
REMARK    5  A    between atoms: S_19  and  C_23
REMARK                            x       y       z     vdW  Elec       q    Type
REMARK                         _______ _______ _______ _____ _____    ______ ____
ROOT
ATOM      1  N   UNL     1      34.627 -17.203 -22.215  0.00  0.00    -0.172 NA
ATOM      2  H   UNL     1      34.527 -17.088 -21.207  0.00  0.00    +0.149 HD
ENDROOT
BRANCH   1   5
ATOM      3  O   UNL     1      34.796 -14.501 -20.843  0.00  0.00    -0.273 OA
ATOM      4  N   UNL     1      33.649 -14.260 -22.884  0.00  0.00    -0.272 N 
ATOM      5  C   UNL     1      35.239 -15.963 -22.725  0.00  0.00    +0.153 C 
ATOM      6  C   UNL     1      34.887 -15.733 -24.190  0.00  0.00    +0.048 C 
ATOM      7  C   UNL     1      33.581 -14.961 -24.145  0.00  0.00    +0.096 C 
ATOM      8  C   UNL     1      34.573 -14.819 -22.003  0.00  0.00    +0.242 C 
BRANCH   4   9
ATOM      9  C   UNL     1      32.722 -13.198 -22.559  0.00  0.00    +0.152 C 
ATOM     10  C   UNL     1      32.460 -13.096 -21.074  0.00  0.00    +0.031 C 
BRANCH   9  14
ATOM     11  O   UNL     1      31.533  -8.302 -22.233  0.00  0.00    -0.350 OA
ATOM     12  O   UNL     1      34.312 -12.044 -23.885  0.00  0.00    -0.273 OA
ATOM     13  N   UNL     1      32.907 -10.737 -22.579  0.00  0.00    -0.273 N 
ATOM     14  C   UNL     1      33.391 -11.947 -23.070  0.00  0.00    +0.244 C 
ATOM     15  C   UNL     1      31.904 -10.591 -21.518  0.00  0.00    +0.126 C 
ATOM     16  C   UNL     1      33.496  -9.476 -23.026  0.00  0.00    +0.126 C 
ATOM     17  C   UNL     1      30.880  -9.531 -21.905  0.00  0.00    +0.164 C 
ATOM     18  C   UNL     1      32.405  -8.467 -23.354  0.00  0.00    +0.164 C 
ENDBRANCH   9  14
ENDBRANCH   4   9
ENDBRANCH   1   5
BRANCH   1  19
ATOM     19  S   UNL     1      35.398 -18.701 -22.464  0.00  0.00    +0.061 S 
ATOM     20  O   UNL     1      36.818 -18.556 -22.208  0.00  0.00    -0.153 OA
ATOM     21  O   UNL     1      34.937 -19.269 -23.717  0.00  0.00    -0.153 OA
BRANCH  19  23
ATOM     22 CL   UNL     1      33.249 -23.576 -15.885  0.00  0.00    -0.082 Cl
ATOM     23  C   UNL     1      34.708 -19.683 -21.167  0.00  0.00    +0.122 C 
ATOM     24  C   UNL     1      35.553 -20.275 -20.245  0.00  0.00    +0.020 C 
ATOM     25  C   UNL     1      33.337 -19.843 -21.100  0.00  0.00    +0.020 C 
ATOM     26  C   UNL     1      35.020 -21.059 -19.208  0.00  0.00    +0.001 C 
ATOM     27  C   UNL     1      33.618 -21.233 -19.123  0.00  0.00    +0.001 C 
ATOM     28  C   UNL     1      32.790 -20.617 -20.077  0.00  0.00    +0.001 C 
ATOM     29  C   UNL     1      35.847 -21.672 -18.254  0.00  0.00    +0.001 C 
ATOM     30  C   UNL     1      33.085 -22.016 -18.087  0.00  0.00    +0.011 C 
ATOM     31  C   UNL     1      35.300 -22.448 -17.231  0.00  0.00    +0.011 C 
ATOM     32  C   UNL     1      33.921 -22.619 -17.148  0.00  0.00    +0.058 C 
ENDBRANCH  19  23
ENDBRANCH   1  19
TORSDOF 5
ENDMDL
MODEL 4
REMARK VINA RESULT:      -9.5      2.026      2.609
REMARK  Name = 6852168
REMARK  5 active torsions:
REMARK  status: ('A' for Active; 'I' for Inactive)
REMARK    1  A    between atoms: N_1  and  C_5
REMARK    2  A    between atoms: N_1  and  S_19
REMARK    3  A    between atoms: N_4  and  C_9
REMARK    4  A    between atoms: C_9  and  C_14
REMARK    5  A    between atoms: S_19  and  C_23
REMARK                            x       y       z     vdW  Elec       q    Type
REMARK                         _______ _______ _______ _____ _____    ______ ____
ROOT
ATOM      1  N   UNL     1      36.262 -23.116 -15.655  0.00  0.00    -0.172 NA
ATOM      2  H   UNL     1      36.768 -24.001 -15.637  0.00  0.00    +0.149 HD
ENDROOT
BRANCH   1   5
ATOM      3  O   UNL     1      37.767 -22.410 -13.115  0.00  0.00    -0.273 OA
ATOM      4  N   UNL     1      36.632 -24.447 -12.798  0.00  0.00    -0.272 N 
ATOM      5  C   UNL     1      35.714 -22.913 -14.302  0.00  0.00    +0.153 C 
ATOM      6  C   UNL     1      34.674 -23.973 -13.960  0.00  0.00    +0.048 C 
ATOM      7  C   UNL     1      35.481 -25.112 -13.363  0.00  0.00    +0.096 C 
ATOM      8  C   UNL     1      36.838 -23.175 -13.331  0.00  0.00    +0.242 C 
BRANCH   4   9
ATOM      9  C   UNL     1      37.534 -25.132 -11.899  0.00  0.00    +0.152 C 
ATOM     10  C   UNL     1      36.928 -25.352 -10.532  0.00  0.00    +0.031 C 
BRANCH   9  14
ATOM     11  O   UNL     1      40.690 -26.476 -15.604  0.00  0.00    -0.350 OA
ATOM     12  O   UNL     1      37.050 -27.401 -12.387  0.00  0.00    -0.273 OA
ATOM     13  N   UNL     1      38.934 -26.501 -13.400  0.00  0.00    -0.273 N 
ATOM     14  C   UNL     1      37.811 -26.449 -12.578  0.00  0.00    +0.244 C 
ATOM     15  C   UNL     1      39.929 -25.433 -13.550  0.00  0.00    +0.126 C 
ATOM     16  C   UNL     1      39.274 -27.740 -14.101  0.00  0.00    +0.126 C 
ATOM     17  C   UNL     1      40.275 -25.238 -15.021  0.00  0.00    +0.164 C 
ATOM     18  C   UNL     1      39.642 -27.447 -15.548  0.00  0.00    +0.164 C 
ENDBRANCH   9  14
ENDBRANCH   4   9
ENDBRANCH   1   5
BRANCH   1  19
ATOM     19  S   UNL     1      37.317 -21.962 -16.330  0.00  0.00    +0.061 S 
ATOM     20  O   UNL     1      38.531 -22.624 -16.770  0.00  0.00    -0.153 OA
ATOM     21  O   UNL     1      37.392 -20.814 -15.447  0.00  0.00    -0.153 OA
BRANCH  19  23
ATOM     22 CL   UNL     1      34.004 -18.806 -23.453  0.00  0.00    -0.082 Cl
ATOM     23  C   UNL     1      36.423 -21.452 -17.766  0.00  0.00    +0.122 C 
ATOM     24  C   UNL     1      36.995 -20.530 -18.627  0.00  0.00    +0.020 C 
ATOM     25  C   UNL     1      35.169 -21.980 -18.002  0.00  0.00    +0.020 C 
ATOM     26  C   UNL     1      36.297 -20.115 -19.772  0.00  0.00    +0.001 C 
ATOM     27  C   UNL     1      35.012 -20.646 -20.031  0.00  0.00    +0.001 C 
ATOM     28  C   UNL     1      34.462 -21.579 -19.135  0.00  0.00    +0.001 C 
ATOM     29  C   UNL     1      36.848 -19.183 -20.667  0.00  0.00    +0.001 C 
ATOM     30  C   UNL     1      34.314 -20.230 -21.176  0.00  0.00    +0.011 C 
ATOM     31  C   UNL     1      36.140 -18.781 -21.801  0.00  0.00    +0.011 C 
ATOM     32  C   UNL     1      34.875 -19.303 -22.054  0.00  0.00    +0.058 C 
ENDBRANCH  19  23
ENDBRANCH   1  19
TORSDOF 5
ENDMDL
MODEL 5
REMARK VINA RESULT:      -9.4     11.550     16.602
REMARK  Name = 6852168
REMARK  5 active torsions:
REMARK  status: ('A' for Active; 'I' for Inactive)
REMARK    1  A    between atoms: N_1  and  C_5
REMARK    2  A    between atoms: N_1  and  S_19
REMARK    3  A    between atoms: N_4  and  C_9
REMARK    4  A    between atoms: C_9  and  C_14
REMARK    5  A    between atoms: S_19  and  C_23
REMARK                            x       y       z     vdW  Elec       q    Type
REMARK                         _______ _______ _______ _____ _____    ______ ____
ROOT
ATOM      1  N   UNL     1      33.118 -11.157 -22.004  0.00  0.00    -0.172 NA
ATOM      2  H   UNL     1      33.775 -10.380 -22.064  0.00  0.00    +0.149 HD
ENDROOT
BRANCH   1   5
ATOM      3  O   UNL     1      31.935  -8.785 -23.481  0.00  0.00    -0.273 OA
ATOM      4  N   UNL     1      31.928  -8.336 -21.171  0.00  0.00    -0.272 N 
ATOM      5  C   UNL     1      31.777 -10.567 -21.847  0.00  0.00    +0.153 C 
ATOM      6  C   UNL     1      31.389 -10.454 -20.377  0.00  0.00    +0.048 C 
ATOM      7  C   UNL     1      31.933  -9.104 -19.948  0.00  0.00    +0.096 C 
ATOM      8  C   UNL     1      31.872  -9.136 -22.312  0.00  0.00    +0.242 C 
BRANCH   4   9
ATOM      9  C   UNL     1      32.124  -6.903 -21.165  0.00  0.00    +0.152 C 
ATOM     10  C   UNL     1      32.284  -6.350 -19.768  0.00  0.00    +0.031 C 
BRANCH   9  14
ATOM     11  O   UNL     1      33.019  -4.668 -25.603  0.00  0.00    -0.350 OA
ATOM     12  O   UNL     1      34.410  -7.300 -21.654  0.00  0.00    -0.273 OA
ATOM     13  N   UNL     1      33.296  -5.810 -23.042  0.00  0.00    -0.273 N 
ATOM     14  C   UNL     1      33.383  -6.693 -21.969  0.00  0.00    +0.244 C 
ATOM     15  C   UNL     1      32.131  -4.979 -23.367  0.00  0.00    +0.126 C 
ATOM     16  C   UNL     1      34.469  -5.553 -23.877  0.00  0.00    +0.126 C 
ATOM     17  C   UNL     1      31.850  -5.027 -24.863  0.00  0.00    +0.164 C 
ATOM     18  C   UNL     1      34.088  -5.584 -25.351  0.00  0.00    +0.164 C 
ENDBRANCH   9  14
ENDBRANCH   4   9
ENDBRANCH   1   5
BRANCH   1  19
ATOM     19  S   UNL     1      33.450 -12.184 -23.320  0.00  0.00    +0.061 S 
ATOM     20  O   UNL     1      34.565 -11.647 -24.076  0.00  0.00    -0.153 OA
ATOM     21  O   UNL     1      32.206 -12.513 -23.990  0.00  0.00    -0.153 OA
BRANCH  19  23
ATOM     22 CL   UNL     1      36.226 -19.682 -20.538  0.00  0.00    -0.082 Cl
ATOM     23  C   UNL     1      34.000 -13.652 -22.505  0.00  0.00    +0.122 C 
ATOM     24  C   UNL     1      34.376 -14.747 -23.264  0.00  0.00    +0.020 C 
ATOM     25  C   UNL     1      34.043 -13.680 -21.125  0.00  0.00    +0.020 C 
ATOM     26  C   UNL     1      34.816 -15.920 -22.630  0.00  0.00    +0.001 C 
ATOM     27  C   UNL     1      34.868 -15.967 -21.217  0.00  0.00    +0.001 C 
ATOM     28  C   UNL     1      34.478 -14.837 -20.479  0.00  0.00    +0.001 C 
ATOM     29  C   UNL     1      35.206 -17.049 -23.369  0.00  0.00    +0.001 C 
ATOM     30  C   UNL     1      35.306 -17.140 -20.584  0.00  0.00    +0.011 C 
ATOM     31  C   UNL     1      35.640 -18.207 -22.723  0.00  0.00    +0.011 C 
ATOM     32  C   UNL     1      35.690 -18.253 -21.333  0.00  0.00    +0.058 C 
ENDBRANCH  19  23
ENDBRANCH   1  19
TORSDOF 5
ENDMDL
MODEL 6
REMARK VINA RESULT:      -9.2      4.584     10.196
REMARK  Name = 6852168
REMARK  5 active torsions:
REMARK  status: ('A' for Active; 'I' for Inactive)
REMARK    1  A    between atoms: N_1  and  C_5
REMARK    2  A    between atoms: N_1  and  S_19
REMARK    3  A    between atoms: N_4  and  C_9
REMARK    4  A    between atoms: C_9  and  C_14
REMARK    5  A    between atoms: S_19  and  C_23
REMARK                            x       y       z     vdW  Elec       q    Type
REMARK                         _______ _______ _______ _____ _____    ______ ____
ROOT
ATOM      1  N   UNL     1      33.661 -21.482 -18.336  0.00  0.00    -0.172 NA
ATOM      2  H   UNL     1      34.572 -21.234 -17.952  0.00  0.00    +0.149 HD
ENDROOT
BRANCH   1   5
ATOM      3  O   UNL     1      36.205 -21.163 -19.960  0.00  0.00    -0.273 OA
ATOM      4  N   UNL     1      34.675 -19.488 -20.586  0.00  0.00    -0.272 N 
ATOM      5  C   UNL     1      33.811 -21.512 -19.802  0.00  0.00    +0.153 C 
ATOM      6  C   UNL     1      32.705 -20.720 -20.490  0.00  0.00    +0.048 C 
ATOM      7  C   UNL     1      33.243 -19.302 -20.554  0.00  0.00    +0.096 C 
ATOM      8  C   UNL     1      35.068 -20.744 -20.127  0.00  0.00    +0.242 C 
BRANCH   4   9
ATOM      9  C   UNL     1      35.571 -18.401 -20.914  0.00  0.00    +0.152 C 
ATOM     10  C   UNL     1      37.018 -18.747 -20.651  0.00  0.00    +0.031 C 
BRANCH   9  14
ATOM     11  O   UNL     1      34.020 -14.354 -23.506  0.00  0.00    -0.350 OA
ATOM     12  O   UNL     1      35.327 -19.112 -23.163  0.00  0.00    -0.273 OA
ATOM     13  N   UNL     1      35.144 -16.831 -22.770  0.00  0.00    -0.273 N 
ATOM     14  C   UNL     1      35.339 -18.155 -22.384  0.00  0.00    +0.244 C 
ATOM     15  C   UNL     1      35.278 -15.661 -21.895  0.00  0.00    +0.126 C 
ATOM     16  C   UNL     1      34.909 -16.504 -24.176  0.00  0.00    +0.126 C 
ATOM     17  C   UNL     1      34.119 -14.698 -22.122  0.00  0.00    +0.164 C 
ATOM     18  C   UNL     1      33.763 -15.511 -24.305  0.00  0.00    +0.164 C 
ENDBRANCH   9  14
ENDBRANCH   4   9
ENDBRANCH   1   5
BRANCH   1  19
ATOM     19  S   UNL     1      33.138 -22.872 -17.503  0.00  0.00    +0.061 S 
ATOM     20  O   UNL     1      33.324 -24.035 -18.350  0.00  0.00    -0.153 OA
ATOM     21  O   UNL     1      31.844 -22.607 -16.904  0.00  0.00    -0.153 OA
BRANCH  19  23
ATOM     22 CL   UNL     1      37.840 -23.820 -10.527  0.00  0.00    -0.082 Cl
ATOM     23  C   UNL     1      34.309 -22.965 -16.183  0.00  0.00    +0.122 C 
ATOM     24  C   UNL     1      33.918 -23.502 -14.969  0.00  0.00    +0.020 C 
ATOM     25  C   UNL     1      35.593 -22.497 -16.388  0.00  0.00    +0.020 C 
ATOM     26  C   UNL     1      34.837 -23.583 -13.910  0.00  0.00    +0.001 C 
ATOM     27  C   UNL     1      36.157 -23.110 -14.102  0.00  0.00    +0.001 C 
ATOM     28  C   UNL     1      36.519 -22.570 -15.348  0.00  0.00    +0.001 C 
ATOM     29  C   UNL     1      34.475 -24.123 -12.666  0.00  0.00    +0.001 C 
ATOM     30  C   UNL     1      37.076 -23.190 -13.043  0.00  0.00    +0.011 C 
ATOM     31  C   UNL     1      35.402 -24.196 -11.625  0.00  0.00    +0.011 C 
ATOM     32  C   UNL     1      36.699 -23.729 -11.813  0.00  0.00    +0.058 C 
ENDBRANCH  19  23
ENDBRANCH   1  19
TORSDOF 5
ENDMDL
MODEL 7
REMARK VINA RESULT:      -9.2     12.095     17.027
REMARK  Name = 6852168
REMARK  5 active torsions:
REMARK  status: ('A' for Active; 'I' for Inactive)
REMARK    1  A    between atoms: N_1  and  C_5
REMARK    2  A    between atoms: N_1  and  S_19
REMARK    3  A    between atoms: N_4  and  C_9
REMARK    4  A    between atoms: C_9  and  C_14
REMARK    5  A    between atoms: S_19  and  C_23
REMARK                            x       y       z     vdW  Elec       q    Type
REMARK                         _______ _______ _______ _____ _____    ______ ____
ROOT
ATOM      1  N   UNL     1      33.065 -10.936 -22.226  0.00  0.00    -0.172 NA
ATOM      2  H   UNL     1      33.736 -10.351 -21.728  0.00  0.00    +0.149 HD
ENDROOT
BRANCH   1   5
ATOM      3  O   UNL     1      31.914  -8.403 -23.440  0.00  0.00    -0.273 OA
ATOM      4  N   UNL     1      31.928  -8.198 -21.096  0.00  0.00    -0.272 N 
ATOM      5  C   UNL     1      31.735 -10.343 -21.998  0.00  0.00    +0.153 C 
ATOM      6  C   UNL     1      31.358 -10.378 -20.522  0.00  0.00    +0.048 C 
ATOM      7  C   UNL     1      31.928  -9.089 -19.959  0.00  0.00    +0.096 C 
ATOM      8  C   UNL     1      31.852  -8.873 -22.313  0.00  0.00    +0.242 C 
BRANCH   4   9
ATOM      9  C   UNL     1      32.149  -6.777 -20.941  0.00  0.00    +0.152 C 
ATOM     10  C   UNL     1      32.532  -6.403 -19.528  0.00  0.00    +0.031 C 
BRANCH   9  14
ATOM     11  O   UNL     1      32.311  -4.326 -25.353  0.00  0.00    -0.350 OA
ATOM     12  O   UNL     1      34.363  -7.026 -21.754  0.00  0.00    -0.273 OA
ATOM     13  N   UNL     1      32.994  -5.549 -22.908  0.00  0.00    -0.273 N 
ATOM     14  C   UNL     1      33.273  -6.466 -21.898  0.00  0.00    +0.244 C 
ATOM     15  C   UNL     1      31.756  -4.771 -23.033  0.00  0.00    +0.126 C 
ATOM     16  C   UNL     1      34.027  -5.194 -23.882  0.00  0.00    +0.126 C 
ATOM     17  C   UNL     1      31.274  -4.778 -24.479  0.00  0.00    +0.164 C 
ATOM     18  C   UNL     1      33.449  -5.189 -25.290  0.00  0.00    +0.164 C 
ENDBRANCH   9  14
ENDBRANCH   4   9
ENDBRANCH   1   5
BRANCH   1  19
ATOM     19  S   UNL     1      33.658 -11.120 -23.812  0.00  0.00    +0.061 S 
ATOM     20  O   UNL     1      34.971 -10.511 -23.905  0.00  0.00    -0.153 OA
ATOM     21  O   UNL     1      32.616 -10.754 -24.752  0.00  0.00    -0.153 OA
BRANCH  19  23
ATOM     22 CL   UNL     1      35.062 -19.445 -23.192  0.00  0.00    -0.082 Cl
ATOM     23  C   UNL     1      33.859 -12.872 -23.921  0.00  0.00    +0.122 C 
ATOM     24  C   UNL     1      34.379 -13.561 -22.839  0.00  0.00    +0.020 C 
ATOM     25  C   UNL     1      33.496 -13.521 -25.086  0.00  0.00    +0.020 C 
ATOM     26  C   UNL     1      34.545 -14.954 -22.911  0.00  0.00    +0.001 C 
ATOM     27  C   UNL     1      34.178 -15.636 -24.095  0.00  0.00    +0.001 C 
ATOM     28  C   UNL     1      33.654 -14.903 -25.174  0.00  0.00    +0.001 C 
ATOM     29  C   UNL     1      35.068 -15.686 -21.832  0.00  0.00    +0.001 C 
ATOM     30  C   UNL     1      34.345 -17.028 -24.167  0.00  0.00    +0.011 C 
ATOM     31  C   UNL     1      35.226 -17.069 -21.920  0.00  0.00    +0.011 C 
ATOM     32  C   UNL     1      34.866 -17.739 -23.086  0.00  0.00    +0.058 C 
ENDBRANCH  19  23
ENDBRANCH   1  19
TORSDOF 5
ENDMDL
MODEL 8
REMARK VINA RESULT:      -9.1      1.602      3.212
REMARK  Name = 6852168
REMARK  5 active torsions:
REMARK  status: ('A' for Active; 'I' for Inactive)
REMARK    1  A    between atoms: N_1  and  C_5
REMARK    2  A    between atoms: N_1  and  S_19
REMARK    3  A    between atoms: N_4  and  C_9
REMARK    4  A    between atoms: C_9  and  C_14
REMARK    5  A    between atoms: S_19  and  C_23
REMARK                            x       y       z     vdW  Elec       q    Type
REMARK                         _______ _______ _______ _____ _____    ______ ____
ROOT
ATOM      1  N   UNL     1      35.148 -22.890 -16.839  0.00  0.00    -0.172 NA
ATOM      2  H   UNL     1      35.612 -22.045 -17.171  0.00  0.00    +0.149 HD
ENDROOT
BRANCH   1   5
ATOM      3  O   UNL     1      37.559 -23.470 -15.090  0.00  0.00    -0.273 OA
ATOM      4  N   UNL     1      35.829 -24.967 -14.539  0.00  0.00    -0.272 N 
ATOM      5  C   UNL     1      35.228 -22.868 -15.367  0.00  0.00    +0.153 C 
ATOM      6  C   UNL     1      34.010 -23.531 -14.735  0.00  0.00    +0.048 C 
ATOM      7  C   UNL     1      34.389 -24.998 -14.642  0.00  0.00    +0.096 C 
ATOM      8  C   UNL     1      36.377 -23.764 -14.979  0.00  0.00    +0.242 C 
BRANCH   4   9
ATOM      9  C   UNL     1      36.585 -26.143 -14.166  0.00  0.00    +0.152 C 
ATOM     10  C   UNL     1      36.981 -26.977 -15.362  0.00  0.00    +0.031 C 
BRANCH   9  14
ATOM     11  O   UNL     1      37.180 -22.930 -10.316  0.00  0.00    -0.350 OA
ATOM     12  O   UNL     1      38.919 -25.769 -13.973  0.00  0.00    -0.273 OA
ATOM     13  N   UNL     1      37.587 -24.915 -12.274  0.00  0.00    -0.273 N 
ATOM     14  C   UNL     1      37.806 -25.597 -13.468  0.00  0.00    +0.244 C 
ATOM     15  C   UNL     1      36.298 -24.803 -11.583  0.00  0.00    +0.126 C 
ATOM     16  C   UNL     1      38.716 -24.350 -11.535  0.00  0.00    +0.126 C 
ATOM     17  C   UNL     1      36.076 -23.371 -11.111  0.00  0.00    +0.164 C 
ATOM     18  C   UNL     1      38.393 -22.936 -11.072  0.00  0.00    +0.164 C 
ENDBRANCH   9  14
ENDBRANCH   4   9
ENDBRANCH   1   5
BRANCH   1  19
ATOM     19  S   UNL     1      33.631 -22.954 -17.610  0.00  0.00    +0.061 S 
ATOM     20  O   UNL     1      32.604 -22.520 -16.682  0.00  0.00    -0.153 OA
ATOM     21  O   UNL     1      33.502 -24.224 -18.298  0.00  0.00    -0.153 OA
BRANCH  19  23
ATOM     22 CL   UNL     1      35.662 -17.028 -23.305  0.00  0.00    -0.082 Cl
ATOM     23  C   UNL     1      33.804 -21.710 -18.853  0.00  0.00    +0.122 C 
ATOM     24  C   UNL     1      35.063 -21.207 -19.134  0.00  0.00    +0.020 C 
ATOM     25  C   UNL     1      32.681 -21.260 -19.518  0.00  0.00    +0.020 C 
ATOM     26  C   UNL     1      35.218 -20.218 -20.119  0.00  0.00    +0.001 C 
ATOM     27  C   UNL     1      34.077 -19.747 -20.812  0.00  0.00    +0.001 C 
ATOM     28  C   UNL     1      32.815 -20.279 -20.499  0.00  0.00    +0.001 C 
ATOM     29  C   UNL     1      36.480 -19.687 -20.432  0.00  0.00    +0.001 C 
ATOM     30  C   UNL     1      34.232 -18.757 -21.797  0.00  0.00    +0.011 C 
ATOM     31  C   UNL     1      36.615 -18.704 -21.414  0.00  0.00    +0.011 C 
ATOM     32  C   UNL     1      35.493 -18.240 -22.094  0.00  0.00    +0.058 C 
ENDBRANCH  19  23
ENDBRANCH   1  19
TORSDOF 5
ENDMDL
MODEL 9
REMARK VINA RESULT:      -8.6     12.125     16.015
REMARK  Name = 6852168
REMARK  5 active torsions:
REMARK  status: ('A' for Active; 'I' for Inactive)
REMARK    1  A    between atoms: N_1  and  C_5
REMARK    2  A    between atoms: N_1  and  S_19
REMARK    3  A    between atoms: N_4  and  C_9
REMARK    4  A    between atoms: C_9  and  C_14
REMARK    5  A    between atoms: S_19  and  C_23
REMARK                            x       y       z     vdW  Elec       q    Type
REMARK                         _______ _______ _______ _____ _____    ______ ____
ROOT
ATOM      1  N   UNL     1      31.948  -9.284 -22.852  0.00  0.00    -0.172 NA
ATOM      2  H   UNL     1      32.409  -9.226 -23.760  0.00  0.00    +0.149 HD
ENDROOT
BRANCH   1   5
ATOM      3  O   UNL     1      34.412 -10.869 -23.646  0.00  0.00    -0.273 OA
ATOM      4  N   UNL     1      32.818 -12.332 -22.720  0.00  0.00    -0.272 N 
ATOM      5  C   UNL     1      32.810 -10.114 -21.991  0.00  0.00    +0.153 C 
ATOM      6  C   UNL     1      31.983 -10.965 -21.034  0.00  0.00    +0.048 C 
ATOM      7  C   UNL     1      31.696 -12.235 -21.815  0.00  0.00    +0.096 C 
ATOM      8  C   UNL     1      33.484 -11.120 -22.889  0.00  0.00    +0.242 C 
BRANCH   4   9
ATOM      9  C   UNL     1      33.080 -13.541 -23.470  0.00  0.00    +0.152 C 
ATOM     10  C   UNL     1      33.615 -13.256 -24.854  0.00  0.00    +0.031 C 
BRANCH   9  14
ATOM     11  O   UNL     1      34.852 -18.267 -23.636  0.00  0.00    -0.350 OA
ATOM     12  O   UNL     1      34.512 -13.775 -21.594  0.00  0.00    -0.273 OA
ATOM     13  N   UNL     1      34.525 -15.514 -23.133  0.00  0.00    -0.273 N 
ATOM     14  C   UNL     1      34.104 -14.279 -22.644  0.00  0.00    +0.244 C 
ATOM     15  C   UNL     1      34.158 -16.083 -24.435  0.00  0.00    +0.126 C 
ATOM     16  C   UNL     1      35.512 -16.298 -22.391  0.00  0.00    +0.126 C 
ATOM     17  C   UNL     1      33.793 -17.554 -24.282  0.00  0.00    +0.164 C 
ATOM     18  C   UNL     1      35.086 -17.757 -22.321  0.00  0.00    +0.164 C 
ENDBRANCH   9  14
ENDBRANCH   4   9
ENDBRANCH   1   5
BRANCH   1  19
ATOM     19  S   UNL     1      31.563  -7.690 -22.393  0.00  0.00    +0.061 S 
ATOM     20  O   UNL     1      31.926  -7.492 -21.003  0.00  0.00    -0.153 OA
ATOM     21  O   UNL     1      30.222  -7.377 -22.848  0.00  0.00    -0.153 OA
BRANCH  19  23
ATOM     22 CL   UNL     1      35.902  -2.721 -27.700  0.00  0.00    -0.082 Cl
ATOM     23  C   UNL     1      32.679  -6.748 -23.389  0.00  0.00    +0.122 C 
ATOM     24  C   UNL     1      32.168  -5.892 -24.349  0.00  0.00    +0.020 C 
ATOM     25  C   UNL     1      34.038  -6.885 -23.190  0.00  0.00    +0.020 C 
ATOM     26  C   UNL     1      33.042  -5.136 -25.149  0.00  0.00    +0.001 C 
ATOM     27  C   UNL     1      34.439  -5.262 -24.958  0.00  0.00    +0.001 C 
ATOM     28  C   UNL     1      34.920  -6.142 -23.974  0.00  0.00    +0.001 C 
ATOM     29  C   UNL     1      32.560  -4.257 -26.132  0.00  0.00    +0.001 C 
ATOM     30  C   UNL     1      35.312  -4.508 -25.758  0.00  0.00    +0.011 C 
ATOM     31  C   UNL     1      33.442  -3.514 -26.917  0.00  0.00    +0.011 C 
ATOM     32  C   UNL     1      34.816  -3.639 -26.730  0.00  0.00    +0.058 C 
ENDBRANCH  19  23
ENDBRANCH   1  19
TORSDOF 5
ENDMDL
