MODEL 1
REMARK VINA RESULT:     -11.9      0.000      0.000
REMARK  Name = 6102777
REMARK  2 active torsions:
REMARK  status: ('A' for Active; 'I' for Inactive)
REMARK    1  A    between atoms: C_4  and  S_16
REMARK    2  A    between atoms: S_16  and  N_19
REMARK                            x       y       z     vdW  Elec       q    Type
REMARK                         _______ _______ _______ _____ _____    ______ ____
ROOT
ATOM      1  O   UNL     1      36.558 -20.839 -18.676  0.00  0.00    -0.453 OA
ATOM      2  O   UNL     1      32.683 -22.119 -18.360  0.00  0.00    -0.286 OA
ATOM      3  C   UNL     1      34.862 -22.114 -17.466  0.00  0.00    +0.075 A 
ATOM      4  C   UNL     1      35.527 -23.273 -15.456  0.00  0.00    +0.126 C 
ATOM      5  C   UNL     1      36.164 -21.643 -17.635  0.00  0.00    +0.148 A 
ATOM      6  C   UNL     1      34.538 -22.929 -16.379  0.00  0.00    +0.026 C 
ATOM      7  C   UNL     1      34.282 -20.873 -19.561  0.00  0.00    +0.074 A 
ATOM      8  C   UNL     1      33.840 -21.736 -18.454  0.00  0.00    +0.201 A 
ATOM      9  C   UNL     1      35.617 -20.474 -19.608  0.00  0.00    +0.148 A 
ATOM     10  C   UNL     1      36.831 -22.805 -15.621  0.00  0.00    +0.023 C 
ATOM     11  C   UNL     1      37.150 -21.991 -16.708  0.00  0.00    +0.039 C 
ATOM     12  C   UNL     1      33.382 -20.461 -20.547  0.00  0.00    +0.006 C 
ATOM     13  C   UNL     1      36.058 -19.656 -20.650  0.00  0.00    +0.038 C 
ATOM     14  C   UNL     1      33.829 -19.644 -21.586  0.00  0.00    +0.000 C 
ATOM     15  C   UNL     1      35.163 -19.242 -21.638  0.00  0.00    +0.003 C 
ENDROOT
BRANCH   4  16
ATOM     16  S   UNL     1      35.133 -24.292 -14.094  0.00  0.00    +0.081 S 
ATOM     17  O   UNL     1      33.739 -24.056 -13.738  0.00  0.00    -0.149 OA
ATOM     18  O   UNL     1      35.576 -25.646 -14.398  0.00  0.00    -0.149 OA
BRANCH  16  19
ATOM     19  N   UNL     1      36.138 -23.633 -12.881  0.00  0.00    -0.156 N 
ATOM     20  N   UNL     1      36.902 -23.429 -10.608  0.00  0.00    -0.094 NA
ATOM     21  N   UNL     1      35.218 -24.887 -11.017  0.00  0.00    -0.071 NA
ATOM     22  N   UNL     1      36.461 -24.074  -9.519  0.00  0.00    -0.139 N 
ATOM     23  N   UNL     1      35.463 -24.946  -9.714  0.00  0.00    -0.020 NA
ATOM     24  C   UNL     1      36.093 -23.974 -11.509  0.00  0.00    +0.145 C 
ATOM     25  H   UNL     1      36.803 -22.961 -13.159  0.00  0.00    +0.186 HD
ATOM     26  H   UNL     1      36.848 -23.915  -8.627  0.00  0.00    +0.197 HD
ENDBRANCH  16  19
ENDBRANCH   4  16
TORSDOF 2
ENDMDL
MODEL 2
REMARK VINA RESULT:     -11.7      4.553      5.437
REMARK  Name = 6102777
REMARK  2 active torsions:
REMARK  status: ('A' for Active; 'I' for Inactive)
REMARK    1  A    between atoms: C_4  and  S_16
REMARK    2  A    between atoms: S_16  and  N_19
REMARK                            x       y       z     vdW  Elec       q    Type
REMARK                         _______ _______ _______ _____ _____    ______ ____
ROOT
ATOM      1  O   UNL     1      35.455 -22.639 -16.701  0.00  0.00    -0.453 OA
ATOM      2  O   UNL     1      31.787 -21.806 -18.313  0.00  0.00    -0.286 OA
ATOM      3  C   UNL     1      33.022 -22.813 -16.579  0.00  0.00    +0.075 A 
ATOM      4  C   UNL     1      32.056 -23.993 -14.708  0.00  0.00    +0.126 C 
ATOM      5  C   UNL     1      34.302 -23.061 -16.085  0.00  0.00    +0.148 A 
ATOM      6  C   UNL     1      31.895 -23.276 -15.895  0.00  0.00    +0.026 C 
ATOM      7  C   UNL     1      34.129 -21.609 -18.474  0.00  0.00    +0.074 A 
ATOM      8  C   UNL     1      32.883 -22.054 -17.831  0.00  0.00    +0.201 A 
ATOM      9  C   UNL     1      35.345 -21.928 -17.871  0.00  0.00    +0.148 A 
ATOM     10  C   UNL     1      33.335 -24.245 -14.211  0.00  0.00    +0.023 C 
ATOM     11  C   UNL     1      34.457 -23.781 -14.898  0.00  0.00    +0.039 C 
ATOM     12  C   UNL     1      34.097 -20.882 -19.667  0.00  0.00    +0.006 C 
ATOM     13  C   UNL     1      36.540 -21.517 -18.464  0.00  0.00    +0.038 C 
ATOM     14  C   UNL     1      35.295 -20.474 -20.255  0.00  0.00    +0.000 C 
ATOM     15  C   UNL     1      36.513 -20.790 -19.656  0.00  0.00    +0.003 C 
ENDROOT
BRANCH   4  16
ATOM     16  S   UNL     1      30.655 -24.577 -13.845  0.00  0.00    +0.081 S 
ATOM     17  O   UNL     1      30.165 -25.767 -14.528  0.00  0.00    -0.149 OA
ATOM     18  O   UNL     1      30.993 -24.648 -12.430  0.00  0.00    -0.149 OA
BRANCH  16  19
ATOM     19  N   UNL     1      29.552 -23.297 -14.093  0.00  0.00    -0.156 N 
ATOM     20  N   UNL     1      27.807 -22.179 -15.317  0.00  0.00    -0.094 NA
ATOM     21  N   UNL     1      28.568 -24.146 -16.144  0.00  0.00    -0.071 NA
ATOM     22  N   UNL     1      27.203 -22.566 -16.450  0.00  0.00    -0.139 N 
ATOM     23  N   UNL     1      27.623 -23.724 -16.976  0.00  0.00    -0.020 NA
ATOM     24  C   UNL     1      28.645 -23.199 -15.175  0.00  0.00    +0.145 C 
ATOM     25  H   UNL     1      29.547 -22.568 -13.430  0.00  0.00    +0.186 HD
ATOM     26  H   UNL     1      26.494 -22.029 -16.871  0.00  0.00    +0.197 HD
ENDBRANCH  16  19
ENDBRANCH   4  16
TORSDOF 2
ENDMDL
MODEL 3
REMARK VINA RESULT:     -11.2      6.782      9.572
REMARK  Name = 6102777
REMARK  2 active torsions:
REMARK  status: ('A' for Active; 'I' for Inactive)
REMARK    1  A    between atoms: C_4  and  S_16
REMARK    2  A    between atoms: S_16  and  N_19
REMARK                            x       y       z     vdW  Elec       q    Type
REMARK                         _______ _______ _______ _____ _____    ______ ____
ROOT
ATOM      1  O   UNL     1      32.670 -21.725 -18.391  0.00  0.00    -0.453 OA
ATOM      2  O   UNL     1      36.742 -21.691 -17.986  0.00  0.00    -0.286 OA
ATOM      3  C   UNL     1      34.853 -20.999 -19.211  0.00  0.00    +0.075 A 
ATOM      4  C   UNL     1      34.927 -19.635 -21.200  0.00  0.00    +0.126 C 
ATOM      5  C   UNL     1      33.461 -21.052 -19.288  0.00  0.00    +0.148 A 
ATOM      6  C   UNL     1      35.590 -20.292 -20.163  0.00  0.00    +0.026 C 
ATOM      7  C   UNL     1      34.661 -22.415 -17.155  0.00  0.00    +0.074 A 
ATOM      8  C   UNL     1      35.526 -21.700 -18.107  0.00  0.00    +0.201 A 
ATOM      9  C   UNL     1      33.280 -22.386 -17.353  0.00  0.00    +0.148 A 
ATOM     10  C   UNL     1      33.535 -19.686 -21.283  0.00  0.00    +0.023 C 
ATOM     11  C   UNL     1      32.803 -20.393 -20.329  0.00  0.00    +0.039 C 
ATOM     12  C   UNL     1      35.209 -23.109 -16.074  0.00  0.00    +0.006 C 
ATOM     13  C   UNL     1      32.440 -23.057 -16.462  0.00  0.00    +0.038 C 
ATOM     14  C   UNL     1      34.364 -23.779 -15.188  0.00  0.00    +0.000 C 
ATOM     15  C   UNL     1      32.983 -23.753 -15.381  0.00  0.00    +0.003 C 
ENDROOT
BRANCH   4  16
ATOM     16  S   UNL     1      35.839 -18.749 -22.397  0.00  0.00    +0.081 S 
ATOM     17  O   UNL     1      37.244 -18.778 -22.010  0.00  0.00    -0.149 OA
ATOM     18  O   UNL     1      35.446 -19.232 -23.714  0.00  0.00    -0.149 OA
BRANCH  16  19
ATOM     19  N   UNL     1      35.232 -17.168 -22.177  0.00  0.00    -0.156 N 
ATOM     20  N   UNL     1      34.262 -15.115 -22.974  0.00  0.00    -0.094 NA
ATOM     21  N   UNL     1      34.670 -16.739 -24.499  0.00  0.00    -0.071 NA
ATOM     22  N   UNL     1      33.919 -14.786 -24.228  0.00  0.00    -0.139 N 
ATOM     23  N   UNL     1      34.144 -15.718 -25.164  0.00  0.00    -0.020 NA
ATOM     24  C   UNL     1      34.723 -16.339 -23.204  0.00  0.00    +0.145 C 
ATOM     25  H   UNL     1      35.236 -16.804 -21.261  0.00  0.00    +0.186 HD
ATOM     26  H   UNL     1      33.525 -13.911 -24.447  0.00  0.00    +0.197 HD
ENDBRANCH  16  19
ENDBRANCH   4  16
TORSDOF 2
ENDMDL
MODEL 4
REMARK VINA RESULT:     -11.1      1.010      2.265
REMARK  Name = 6102777
REMARK  2 active torsions:
REMARK  status: ('A' for Active; 'I' for Inactive)
REMARK    1  A    between atoms: C_4  and  S_16
REMARK    2  A    between atoms: S_16  and  N_19
REMARK                            x       y       z     vdW  Elec       q    Type
REMARK                         _______ _______ _______ _____ _____    ______ ____
ROOT
ATOM      1  O   UNL     1      32.694 -21.469 -18.763  0.00  0.00    -0.453 OA
ATOM      2  O   UNL     1      36.695 -21.760 -17.953  0.00  0.00    -0.286 OA
ATOM      3  C   UNL     1      34.489 -22.302 -17.332  0.00  0.00    +0.075 A 
ATOM      4  C   UNL     1      33.887 -23.612 -15.397  0.00  0.00    +0.126 C 
ATOM      5  C   UNL     1      33.142 -22.163 -17.667  0.00  0.00    +0.148 A 
ATOM      6  C   UNL     1      34.867 -23.026 -16.198  0.00  0.00    +0.026 C 
ATOM      7  C   UNL     1      35.000 -20.935 -19.366  0.00  0.00    +0.074 A 
ATOM      8  C   UNL     1      35.500 -21.674 -18.196  0.00  0.00    +0.201 A 
ATOM      9  C   UNL     1      33.624 -20.875 -19.582  0.00  0.00    +0.148 A 
ATOM     10  C   UNL     1      32.539 -23.475 -15.726  0.00  0.00    +0.023 C 
ATOM     11  C   UNL     1      32.166 -22.752 -16.860  0.00  0.00    +0.039 C 
ATOM     12  C   UNL     1      35.885 -20.305 -20.244  0.00  0.00    +0.006 C 
ATOM     13  C   UNL     1      33.127 -20.180 -20.686  0.00  0.00    +0.038 C 
ATOM     14  C   UNL     1      35.383 -19.611 -21.346  0.00  0.00    +0.000 C 
ATOM     15  C   UNL     1      34.007 -19.548 -21.566  0.00  0.00    +0.003 C 
ENDROOT
BRANCH   4  16
ATOM     16  S   UNL     1      34.349 -24.518 -13.977  0.00  0.00    +0.081 S 
ATOM     17  O   UNL     1      33.154 -24.745 -13.174  0.00  0.00    -0.149 OA
ATOM     18  O   UNL     1      35.151 -25.656 -14.407  0.00  0.00    -0.149 OA
BRANCH  16  19
ATOM     19  N   UNL     1      35.355 -23.396 -13.176  0.00  0.00    -0.156 N 
ATOM     20  N   UNL     1      36.785 -22.710 -11.366  0.00  0.00    -0.094 NA
ATOM     21  N   UNL     1      35.896 -24.791 -11.265  0.00  0.00    -0.071 NA
ATOM     22  N   UNL     1      37.141 -23.405 -10.275  0.00  0.00    -0.139 N 
ATOM     23  N   UNL     1      36.637 -24.643 -10.174  0.00  0.00    -0.020 NA
ATOM     24  C   UNL     1      36.012 -23.622 -11.943  0.00  0.00    +0.145 C 
ATOM     25  H   UNL     1      35.490 -22.520 -13.606  0.00  0.00    +0.186 HD
ATOM     26  H   UNL     1      37.738 -23.027  -9.589  0.00  0.00    +0.197 HD
ENDBRANCH  16  19
ENDBRANCH   4  16
TORSDOF 2
ENDMDL
MODEL 5
REMARK VINA RESULT:     -11.1      7.885     10.459
REMARK  Name = 6102777
REMARK  2 active torsions:
REMARK  status: ('A' for Active; 'I' for Inactive)
REMARK    1  A    between atoms: C_4  and  S_16
REMARK    2  A    between atoms: S_16  and  N_19
REMARK                            x       y       z     vdW  Elec       q    Type
REMARK                         _______ _______ _______ _____ _____    ______ ____
ROOT
ATOM      1  O   UNL     1      36.188 -20.500 -19.451  0.00  0.00    -0.453 OA
ATOM      2  O   UNL     1      32.211 -20.624 -20.408  0.00  0.00    -0.286 OA
ATOM      3  C   UNL     1      34.355 -19.781 -20.897  0.00  0.00    +0.075 A 
ATOM      4  C   UNL     1      34.860 -18.271 -22.710  0.00  0.00    +0.126 C 
ATOM      5  C   UNL     1      35.697 -19.784 -20.515  0.00  0.00    +0.148 A 
ATOM      6  C   UNL     1      33.931 -19.026 -21.993  0.00  0.00    +0.026 C 
ATOM      7  C   UNL     1      33.945 -21.347 -18.988  0.00  0.00    +0.074 A 
ATOM      8  C   UNL     1      33.399 -20.587 -20.123  0.00  0.00    +0.201 A 
ATOM      9  C   UNL     1      35.310 -21.259 -18.717  0.00  0.00    +0.148 A 
ATOM     10  C   UNL     1      36.202 -18.270 -22.332  0.00  0.00    +0.023 C 
ATOM     11  C   UNL     1      36.621 -19.025 -21.236  0.00  0.00    +0.039 C 
ATOM     12  C   UNL     1      33.113 -22.142 -18.195  0.00  0.00    +0.006 C 
ATOM     13  C   UNL     1      35.850 -21.972 -17.645  0.00  0.00    +0.038 C 
ATOM     14  C   UNL     1      33.658 -22.852 -17.124  0.00  0.00    +0.000 C 
ATOM     15  C   UNL     1      35.023 -22.767 -16.849  0.00  0.00    +0.003 C 
ENDROOT
BRANCH   4  16
ATOM     16  S   UNL     1      34.340 -17.323 -24.082  0.00  0.00    +0.081 S 
ATOM     17  O   UNL     1      35.451 -17.238 -25.022  0.00  0.00    -0.149 OA
ATOM     18  O   UNL     1      33.057 -17.845 -24.533  0.00  0.00    -0.149 OA
BRANCH  16  19
ATOM     19  N   UNL     1      34.100 -15.794 -23.361  0.00  0.00    -0.156 N 
ATOM     20  N   UNL     1      33.602 -13.441 -23.443  0.00  0.00    -0.094 NA
ATOM     21  N   UNL     1      33.628 -14.572 -25.405  0.00  0.00    -0.071 NA
ATOM     22  N   UNL     1      33.329 -12.683 -24.515  0.00  0.00    -0.139 N 
ATOM     23  N   UNL     1      33.334 -13.312 -25.698  0.00  0.00    -0.020 NA
ATOM     24  C   UNL     1      33.778 -14.605 -24.057  0.00  0.00    +0.145 C 
ATOM     25  H   UNL     1      34.193 -15.735 -22.382  0.00  0.00    +0.186 HD
ATOM     26  H   UNL     1      33.136 -11.721 -24.436  0.00  0.00    +0.197 HD
ENDBRANCH  16  19
ENDBRANCH   4  16
TORSDOF 2
ENDMDL
MODEL 6
REMARK VINA RESULT:     -10.7      6.355      9.111
REMARK  Name = 6102777
REMARK  2 active torsions:
REMARK  status: ('A' for Active; 'I' for Inactive)
REMARK    1  A    between atoms: C_4  and  S_16
REMARK    2  A    between atoms: S_16  and  N_19
REMARK                            x       y       z     vdW  Elec       q    Type
REMARK                         _______ _______ _______ _____ _____    ______ ____
ROOT
ATOM      1  O   UNL     1      33.794 -15.086 -25.226  0.00  0.00    -0.453 OA
ATOM      2  O   UNL     1      34.828 -13.729 -21.506  0.00  0.00    -0.286 OA
ATOM      3  C   UNL     1      34.566 -15.564 -22.958  0.00  0.00    +0.075 A 
ATOM      4  C   UNL     1      35.003 -17.862 -22.365  0.00  0.00    +0.126 C 
ATOM      5  C   UNL     1      34.199 -15.957 -24.245  0.00  0.00    +0.148 A 
ATOM      6  C   UNL     1      34.968 -16.512 -22.014  0.00  0.00    +0.026 C 
ATOM      7  C   UNL     1      34.084 -13.216 -23.681  0.00  0.00    +0.074 A 
ATOM      8  C   UNL     1      34.520 -14.134 -22.617  0.00  0.00    +0.201 A 
ATOM      9  C   UNL     1      33.745 -13.746 -24.925  0.00  0.00    +0.148 A 
ATOM     10  C   UNL     1      34.636 -18.261 -23.650  0.00  0.00    +0.023 C 
ATOM     11  C   UNL     1      34.235 -17.310 -24.590  0.00  0.00    +0.039 C 
ATOM     12  C   UNL     1      34.009 -11.840 -23.451  0.00  0.00    +0.006 C 
ATOM     13  C   UNL     1      33.329 -12.894 -25.950  0.00  0.00    +0.038 C 
ATOM     14  C   UNL     1      33.592 -10.993 -24.478  0.00  0.00    +0.000 C 
ATOM     15  C   UNL     1      33.252 -11.518 -25.724  0.00  0.00    +0.003 C 
ENDROOT
BRANCH   4  16
ATOM     16  S   UNL     1      35.504 -19.055 -21.192  0.00  0.00    +0.081 S 
ATOM     17  O   UNL     1      36.168 -20.140 -21.904  0.00  0.00    -0.149 OA
ATOM     18  O   UNL     1      36.205 -18.366 -20.117  0.00  0.00    -0.149 OA
BRANCH  16  19
ATOM     19  N   UNL     1      33.996 -19.609 -20.613  0.00  0.00    -0.156 N 
ATOM     20  N   UNL     1      32.609 -21.113 -19.347  0.00  0.00    -0.094 NA
ATOM     21  N   UNL     1      34.843 -21.488 -19.330  0.00  0.00    -0.071 NA
ATOM     22  N   UNL     1      32.980 -22.171 -18.612  0.00  0.00    -0.139 N 
ATOM     23  N   UNL     1      34.294 -22.431 -18.574  0.00  0.00    -0.020 NA
ATOM     24  C   UNL     1      33.808 -20.729 -19.768  0.00  0.00    +0.145 C 
ATOM     25  H   UNL     1      33.194 -19.108 -20.888  0.00  0.00    +0.186 HD
ATOM     26  H   UNL     1      32.325 -22.725 -18.128  0.00  0.00    +0.197 HD
ENDBRANCH  16  19
ENDBRANCH   4  16
TORSDOF 2
ENDMDL
MODEL 7
REMARK VINA RESULT:     -10.6      2.558      3.221
REMARK  Name = 6102777
REMARK  2 active torsions:
REMARK  status: ('A' for Active; 'I' for Inactive)
REMARK    1  A    between atoms: C_4  and  S_16
REMARK    2  A    between atoms: S_16  and  N_19
REMARK                            x       y       z     vdW  Elec       q    Type
REMARK                         _______ _______ _______ _____ _____    ______ ____
ROOT
ATOM      1  O   UNL     1      36.474 -21.048 -18.366  0.00  0.00    -0.453 OA
ATOM      2  O   UNL     1      33.057 -22.896 -17.080  0.00  0.00    -0.286 OA
ATOM      3  C   UNL     1      35.352 -22.491 -16.746  0.00  0.00    +0.075 A 
ATOM      4  C   UNL     1      36.659 -23.396 -14.930  0.00  0.00    +0.126 C 
ATOM      5  C   UNL     1      36.479 -21.834 -17.240  0.00  0.00    +0.148 A 
ATOM      6  C   UNL     1      35.437 -23.273 -15.592  0.00  0.00    +0.026 C 
ATOM      7  C   UNL     1      34.092 -21.498 -18.667  0.00  0.00    +0.074 A 
ATOM      8  C   UNL     1      34.077 -22.344 -17.464  0.00  0.00    +0.201 A 
ATOM      9  C   UNL     1      35.292 -20.898 -19.050  0.00  0.00    +0.148 A 
ATOM     10  C   UNL     1      37.789 -22.741 -15.421  0.00  0.00    +0.023 C 
ATOM     11  C   UNL     1      37.700 -21.961 -16.574  0.00  0.00    +0.039 C 
ATOM     12  C   UNL     1      32.929 -21.298 -19.414  0.00  0.00    +0.006 C 
ATOM     13  C   UNL     1      35.330 -20.092 -20.189  0.00  0.00    +0.038 C 
ATOM     14  C   UNL     1      32.973 -20.491 -20.552  0.00  0.00    +0.000 C 
ATOM     15  C   UNL     1      34.170 -19.889 -20.939  0.00  0.00    +0.003 C 
ENDROOT
BRANCH   4  16
ATOM     16  S   UNL     1      36.776 -24.372 -13.486  0.00  0.00    +0.081 S 
ATOM     17  O   UNL     1      37.342 -23.548 -12.426  0.00  0.00    -0.149 OA
ATOM     18  O   UNL     1      35.491 -25.027 -13.278  0.00  0.00    -0.149 OA
BRANCH  16  19
ATOM     19  N   UNL     1      37.928 -25.538 -13.963  0.00  0.00    -0.156 N 
ATOM     20  N   UNL     1      38.637 -27.456 -15.232  0.00  0.00    -0.094 NA
ATOM     21  N   UNL     1      36.506 -26.742 -15.520  0.00  0.00    -0.071 NA
ATOM     22  N   UNL     1      37.930 -28.182 -16.111  0.00  0.00    -0.139 N 
ATOM     23  N   UNL     1      36.663 -27.796 -16.312  0.00  0.00    -0.020 NA
ATOM     24  C   UNL     1      37.701 -26.576 -14.898  0.00  0.00    +0.145 C 
ATOM     25  H   UNL     1      38.823 -25.484 -13.555  0.00  0.00    +0.186 HD
ATOM     26  H   UNL     1      38.320 -28.955 -16.580  0.00  0.00    +0.197 HD
ENDBRANCH  16  19
ENDBRANCH   4  16
TORSDOF 2
ENDMDL
MODEL 8
REMARK VINA RESULT:     -10.5      6.777      9.361
REMARK  Name = 6102777
REMARK  2 active torsions:
REMARK  status: ('A' for Active; 'I' for Inactive)
REMARK    1  A    between atoms: C_4  and  S_16
REMARK    2  A    between atoms: S_16  and  N_19
REMARK                            x       y       z     vdW  Elec       q    Type
REMARK                         _______ _______ _______ _____ _____    ______ ____
ROOT
ATOM      1  O   UNL     1      36.449 -21.607 -17.620  0.00  0.00    -0.453 OA
ATOM      2  O   UNL     1      32.529 -22.157 -18.656  0.00  0.00    -0.286 OA
ATOM      3  C   UNL     1      34.624 -21.229 -19.198  0.00  0.00    +0.075 A 
ATOM      4  C   UNL     1      35.086 -19.942 -21.187  0.00  0.00    +0.126 C 
ATOM      5  C   UNL     1      35.948 -21.080 -18.784  0.00  0.00    +0.148 A 
ATOM      6  C   UNL     1      34.188 -20.662 -20.398  0.00  0.00    +0.026 C 
ATOM      7  C   UNL     1      34.256 -22.551 -17.105  0.00  0.00    +0.074 A 
ATOM      8  C   UNL     1      33.700 -21.993 -18.347  0.00  0.00    +0.201 A 
ATOM      9  C   UNL     1      35.601 -22.325 -16.812  0.00  0.00    +0.148 A 
ATOM     10  C   UNL     1      36.410 -19.789 -20.777  0.00  0.00    +0.023 C 
ATOM     11  C   UNL     1      36.842 -20.357 -19.577  0.00  0.00    +0.039 C 
ATOM     12  C   UNL     1      33.455 -23.292 -16.233  0.00  0.00    +0.006 C 
ATOM     13  C   UNL     1      36.151 -22.844 -15.638  0.00  0.00    +0.038 C 
ATOM     14  C   UNL     1      34.010 -23.808 -15.061  0.00  0.00    +0.000 C 
ATOM     15  C   UNL     1      35.354 -23.585 -14.764  0.00  0.00    +0.003 C 
ENDROOT
BRANCH   4  16
ATOM     16  S   UNL     1      34.551 -19.229 -22.689  0.00  0.00    +0.081 S 
ATOM     17  O   UNL     1      35.346 -19.798 -23.770  0.00  0.00    -0.149 OA
ATOM     18  O   UNL     1      33.098 -19.321 -22.741  0.00  0.00    -0.149 OA
BRANCH  16  19
ATOM     19  N   UNL     1      35.000 -17.597 -22.463  0.00  0.00    -0.156 N 
ATOM     20  N   UNL     1      35.086 -15.287 -23.131  0.00  0.00    -0.094 NA
ATOM     21  N   UNL     1      34.028 -16.735 -24.514  0.00  0.00    -0.071 NA
ATOM     22  N   UNL     1      34.581 -14.718 -24.235  0.00  0.00    -0.139 N 
ATOM     23  N   UNL     1      33.947 -15.539 -25.084  0.00  0.00    -0.020 NA
ATOM     24  C   UNL     1      34.711 -16.540 -23.358  0.00  0.00    +0.145 C 
ATOM     25  H   UNL     1      35.501 -17.374 -21.645  0.00  0.00    +0.186 HD
ATOM     26  H   UNL     1      34.672 -13.754 -24.413  0.00  0.00    +0.197 HD
ENDBRANCH  16  19
ENDBRANCH   4  16
TORSDOF 2
ENDMDL
MODEL 9
REMARK VINA RESULT:     -10.3      4.440      8.197
REMARK  Name = 6102777
REMARK  2 active torsions:
REMARK  status: ('A' for Active; 'I' for Inactive)
REMARK    1  A    between atoms: C_4  and  S_16
REMARK    2  A    between atoms: S_16  and  N_19
REMARK                            x       y       z     vdW  Elec       q    Type
REMARK                         _______ _______ _______ _____ _____    ______ ____
ROOT
ATOM      1  O   UNL     1      34.077 -23.975 -13.015  0.00  0.00    -0.453 OA
ATOM      2  O   UNL     1      37.522 -23.119 -15.051  0.00  0.00    -0.286 OA
ATOM      3  C   UNL     1      35.171 -23.268 -15.080  0.00  0.00    +0.075 A 
ATOM      4  C   UNL     1      33.785 -22.773 -16.993  0.00  0.00    +0.126 C 
ATOM      5  C   UNL     1      34.038 -23.575 -14.328  0.00  0.00    +0.148 A 
ATOM      6  C   UNL     1      35.051 -22.866 -16.413  0.00  0.00    +0.026 C 
ATOM      7  C   UNL     1      36.513 -23.804 -13.036  0.00  0.00    +0.074 A 
ATOM      8  C   UNL     1      36.493 -23.374 -14.443  0.00  0.00    +0.201 A 
ATOM      9  C   UNL     1      35.302 -24.080 -12.402  0.00  0.00    +0.148 A 
ATOM     10  C   UNL     1      32.649 -23.080 -16.245  0.00  0.00    +0.023 C 
ATOM     11  C   UNL     1      32.774 -23.481 -14.914  0.00  0.00    +0.039 C 
ATOM     12  C   UNL     1      37.721 -23.933 -12.346  0.00  0.00    +0.006 C 
ATOM     13  C   UNL     1      35.297 -24.490 -11.068  0.00  0.00    +0.038 C 
ATOM     14  C   UNL     1      37.710 -24.343 -11.012  0.00  0.00    +0.000 C 
ATOM     15  C   UNL     1      36.501 -24.621 -10.374  0.00  0.00    +0.003 C 
ENDROOT
BRANCH   4  16
ATOM     16  S   UNL     1      33.623 -22.273 -18.658  0.00  0.00    +0.081 S 
ATOM     17  O   UNL     1      33.635 -23.466 -19.494  0.00  0.00    -0.149 OA
ATOM     18  O   UNL     1      32.502 -21.346 -18.745  0.00  0.00    -0.149 OA
BRANCH  16  19
ATOM     19  N   UNL     1      35.080 -21.412 -18.892  0.00  0.00    -0.156 N 
ATOM     20  N   UNL     1      36.450 -19.786 -20.017  0.00  0.00    -0.094 NA
ATOM     21  N   UNL     1      34.329 -20.061 -20.764  0.00  0.00    -0.071 NA
ATOM     22  N   UNL     1      36.128 -18.996 -21.052  0.00  0.00    -0.139 N 
ATOM     23  N   UNL     1      34.882 -19.126 -21.527  0.00  0.00    -0.020 NA
ATOM     24  C   UNL     1      35.294 -20.425 -19.882  0.00  0.00    +0.145 C 
ATOM     25  H   UNL     1      35.831 -21.620 -18.289  0.00  0.00    +0.186 HD
ATOM     26  H   UNL     1      36.770 -18.359 -21.440  0.00  0.00    +0.197 HD
ENDBRANCH  16  19
ENDBRANCH   4  16
TORSDOF 2
ENDMDL
