MODEL 1
REMARK VINA RESULT:     -12.6      0.000      0.000
REMARK  Name = 49866474
REMARK  7 active torsions:
REMARK  status: ('A' for Active; 'I' for Inactive)
REMARK    1  A    between atoms: O_1  and  C_3
REMARK    2  A    between atoms: O_1  and  C_18
REMARK    3  A    between atoms: C_4  and  C_10
REMARK    4  A    between atoms: C_18  and  C_19
REMARK    5  A    between atoms: C_19  and  N_20
REMARK    6  A    between atoms: C_19  and  C_24
REMARK    7  A    between atoms: C_24  and  C_26
REMARK                            x       y       z     vdW  Elec       q    Type
REMARK                         _______ _______ _______ _____ _____    ______ ____
ROOT
ATOM      1  O   UNL     1      35.202 -15.138 -23.045  0.00  0.00    -0.476 OA
ENDROOT
BRANCH   1   3
ATOM      2  N   UNL     1      34.185 -18.350 -24.472  0.00  0.00    -0.239 NA
ATOM      3  C   UNL     1      34.934 -16.479 -23.135  0.00  0.00    +0.158 C 
ATOM      4  C   UNL     1      34.841 -18.679 -22.168  0.00  0.00    +0.022 C 
ATOM      5  C   UNL     1      35.121 -17.323 -22.046  0.00  0.00    +0.040 C 
ATOM      6  C   UNL     1      34.467 -17.037 -24.315  0.00  0.00    +0.136 C 
ATOM      7  C   UNL     1      34.380 -19.139 -23.391  0.00  0.00    +0.099 C 
BRANCH   4  10
ATOM      8  N   UNL     1      35.265 -22.180 -17.897  0.00  0.00    -0.236 N 
ATOM      9  N   UNL     1      34.001 -22.579 -17.677  0.00  0.00    -0.180 NA
ATOM     10  C   UNL     1      35.026 -19.581 -21.055  0.00  0.00    +0.002 C 
ATOM     11  C   UNL     1      34.115 -21.102 -19.421  0.00  0.00    +0.035 C 
ATOM     12  C   UNL     1      33.914 -20.231 -20.504  0.00  0.00    +0.003 C 
ATOM     13  C   UNL     1      35.402 -21.293 -18.930  0.00  0.00    +0.067 C 
ATOM     14  C   UNL     1      36.307 -19.791 -20.543  0.00  0.00    +0.001 C 
ATOM     15  C   UNL     1      36.523 -20.656 -19.465  0.00  0.00    +0.016 C 
ATOM     16  C   UNL     1      33.305 -21.921 -18.606  0.00  0.00    +0.119 C 
ATOM     17  H   UNL     1      36.027 -22.499 -17.362  0.00  0.00    +0.174 HD
ENDBRANCH   4  10
ENDBRANCH   1   3
BRANCH   1  18
ATOM     18  C   UNL     1      34.414 -14.386 -22.132  0.00  0.00    +0.184 C 
BRANCH  18  19
ATOM     19  C   UNL     1      33.629 -13.296 -22.873  0.00  0.00    -0.017 C 
BRANCH  19  20
ATOM     20  N   UNL     1      33.071 -13.884 -24.095  0.00  0.00    +0.384 N 
ATOM     21  H   UNL     1      32.761 -13.139 -24.719  0.00  0.00    -0.089 HD
ATOM     22  H   UNL     1      32.279 -14.479 -23.855  0.00  0.00    -0.089 HD
ATOM     23  H   UNL     1      33.787 -14.441 -24.562  0.00  0.00    -0.089 HD
ENDBRANCH  19  20
BRANCH  19  24
ATOM     24  C   UNL     1      32.478 -12.696 -22.030  0.00  0.00    +0.006 C 
BRANCH  24  26
ATOM     25  N   UNL     1      32.943  -9.108 -23.042  0.00  0.00    -0.234 NA
ATOM     26  C   UNL     1      32.346 -11.230 -22.126  0.00  0.00    -0.024 C 
ATOM     27  C   UNL     1      31.894 -10.289 -21.297  0.00  0.00    +0.065 C 
ATOM     28  C   UNL     1      32.059  -8.912 -21.875  0.00  0.00    +0.122 C 
ATOM     29  C   UNL     1      32.986 -10.403 -23.158  0.00  0.00    +0.072 C 
ATOM     30  C   UNL     1      31.448 -10.403 -19.932  0.00  0.00    -0.020 C 
ATOM     31  C   UNL     1      32.577  -7.939 -20.854  0.00  0.00    -0.004 C 
ATOM     32  C   UNL     1      31.658  -9.365 -19.100  0.00  0.00    -0.004 C 
ATOM     33  C   UNL     1      32.356  -8.166 -19.545  0.00  0.00    -0.003 C 
ENDBRANCH  24  26
ENDBRANCH  19  24
ENDBRANCH  18  19
ENDBRANCH   1  18
TORSDOF 7
ENDMDL
MODEL 2
REMARK VINA RESULT:     -12.3      1.644     10.085
REMARK  Name = 49866474
REMARK  7 active torsions:
REMARK  status: ('A' for Active; 'I' for Inactive)
REMARK    1  A    between atoms: O_1  and  C_3
REMARK    2  A    between atoms: O_1  and  C_18
REMARK    3  A    between atoms: C_4  and  C_10
REMARK    4  A    between atoms: C_18  and  C_19
REMARK    5  A    between atoms: C_19  and  N_20
REMARK    6  A    between atoms: C_19  and  C_24
REMARK    7  A    between atoms: C_24  and  C_26
REMARK                            x       y       z     vdW  Elec       q    Type
REMARK                         _______ _______ _______ _____ _____    ______ ____
ROOT
ATOM      1  O   UNL     1      35.366 -16.613 -22.237  0.00  0.00    -0.476 OA
ENDROOT
BRANCH   1   3
ATOM      2  N   UNL     1      33.810 -15.091 -25.178  0.00  0.00    -0.239 NA
ATOM      3  C   UNL     1      34.694 -15.704 -23.012  0.00  0.00    +0.158 C 
ATOM      4  C   UNL     1      33.538 -13.612 -23.284  0.00  0.00    +0.022 C 
ATOM      5  C   UNL     1      34.218 -14.514 -22.473  0.00  0.00    +0.040 C 
ATOM      6  C   UNL     1      34.466 -15.942 -24.358  0.00  0.00    +0.136 C 
ATOM      7  C   UNL     1      33.362 -13.944 -24.617  0.00  0.00    +0.099 C 
BRANCH   4  10
ATOM      8  N   UNL     1      31.748  -8.702 -21.449  0.00  0.00    -0.236 N 
ATOM      9  N   UNL     1      32.322  -7.816 -22.280  0.00  0.00    -0.180 NA
ATOM     10  C   UNL     1      33.032 -12.368 -22.753  0.00  0.00    +0.002 C 
ATOM     11  C   UNL     1      32.903  -9.961 -22.823  0.00  0.00    +0.035 C 
ATOM     12  C   UNL     1      33.405 -11.160 -23.356  0.00  0.00    +0.003 C 
ATOM     13  C   UNL     1      32.057 -10.007 -21.721  0.00  0.00    +0.067 C 
ATOM     14  C   UNL     1      32.181 -12.385 -21.647  0.00  0.00    +0.001 C 
ATOM     15  C   UNL     1      31.673 -11.200 -21.105  0.00  0.00    +0.016 C 
ATOM     16  C   UNL     1      33.023  -8.585 -23.114  0.00  0.00    +0.119 C 
ATOM     17  H   UNL     1      31.156  -8.435 -20.709  0.00  0.00    +0.174 HD
ENDBRANCH   4  10
ENDBRANCH   1   3
BRANCH   1  18
ATOM     18  C   UNL     1      35.729 -17.840 -22.855  0.00  0.00    +0.184 C 
BRANCH  18  19
ATOM     19  C   UNL     1      35.926 -18.934 -21.800  0.00  0.00    -0.017 C 
BRANCH  19  20
ATOM     20  N   UNL     1      37.294 -18.832 -21.282  0.00  0.00    +0.384 N 
ATOM     21  H   UNL     1      37.624 -17.872 -21.381  0.00  0.00    -0.089 HD
ATOM     22  H   UNL     1      37.903 -19.458 -21.808  0.00  0.00    -0.089 HD
ATOM     23  H   UNL     1      37.305 -19.096 -20.297  0.00  0.00    -0.089 HD
ENDBRANCH  19  20
BRANCH  19  24
ATOM     24  C   UNL     1      34.930 -18.827 -20.619  0.00  0.00    +0.006 C 
BRANCH  24  26
ATOM     25  N   UNL     1      32.610 -21.590 -19.570  0.00  0.00    -0.234 NA
ATOM     26  C   UNL     1      34.401 -20.118 -20.141  0.00  0.00    -0.024 C 
ATOM     27  C   UNL     1      34.907 -21.103 -19.398  0.00  0.00    +0.065 C 
ATOM     28  C   UNL     1      33.893 -22.182 -19.139  0.00  0.00    +0.122 C 
ATOM     29  C   UNL     1      32.984 -20.501 -20.178  0.00  0.00    +0.072 C 
ATOM     30  C   UNL     1      36.172 -21.182 -18.713  0.00  0.00    -0.020 C 
ATOM     31  C   UNL     1      33.922 -22.639 -17.708  0.00  0.00    -0.004 C 
ATOM     32  C   UNL     1      36.235 -21.876 -17.561  0.00  0.00    -0.004 C 
ATOM     33  C   UNL     1      35.051 -22.502 -16.988  0.00  0.00    -0.003 C 
ENDBRANCH  24  26
ENDBRANCH  19  24
ENDBRANCH  18  19
ENDBRANCH   1  18
TORSDOF 7
ENDMDL
MODEL 3
REMARK VINA RESULT:     -11.8      1.806      2.674
REMARK  Name = 49866474
REMARK  7 active torsions:
REMARK  status: ('A' for Active; 'I' for Inactive)
REMARK    1  A    between atoms: O_1  and  C_3
REMARK    2  A    between atoms: O_1  and  C_18
REMARK    3  A    between atoms: C_4  and  C_10
REMARK    4  A    between atoms: C_18  and  C_19
REMARK    5  A    between atoms: C_19  and  N_20
REMARK    6  A    between atoms: C_19  and  C_24
REMARK    7  A    between atoms: C_24  and  C_26
REMARK                            x       y       z     vdW  Elec       q    Type
REMARK                         _______ _______ _______ _____ _____    ______ ____
ROOT
ATOM      1  O   UNL     1      34.474 -13.609 -22.834  0.00  0.00    -0.476 OA
ENDROOT
BRANCH   1   3
ATOM      2  N   UNL     1      34.192 -16.651 -24.848  0.00  0.00    -0.239 NA
ATOM      3  C   UNL     1      34.523 -14.935 -23.176  0.00  0.00    +0.158 C 
ATOM      4  C   UNL     1      34.976 -17.236 -22.636  0.00  0.00    +0.022 C 
ATOM      5  C   UNL     1      34.935 -15.897 -22.260  0.00  0.00    +0.040 C 
ATOM      6  C   UNL     1      34.165 -15.361 -24.445  0.00  0.00    +0.136 C 
ATOM      7  C   UNL     1      34.599 -17.557 -23.929  0.00  0.00    +0.099 C 
BRANCH   4  10
ATOM      8  N   UNL     1      36.326 -21.243 -19.059  0.00  0.00    -0.236 N 
ATOM      9  N   UNL     1      35.162 -21.869 -18.818  0.00  0.00    -0.180 NA
ATOM     10  C   UNL     1      35.400 -18.257 -21.707  0.00  0.00    +0.002 C 
ATOM     11  C   UNL     1      34.887 -20.140 -20.291  0.00  0.00    +0.035 C 
ATOM     12  C   UNL     1      34.454 -19.155 -21.194  0.00  0.00    +0.003 C 
ATOM     13  C   UNL     1      36.230 -20.196 -19.935  0.00  0.00    +0.067 C 
ATOM     14  C   UNL     1      36.741 -18.336 -21.333  0.00  0.00    +0.001 C 
ATOM     15  C   UNL     1      37.187 -19.311 -20.435  0.00  0.00    +0.016 C 
ATOM     16  C   UNL     1      34.289 -21.195 -19.569  0.00  0.00    +0.119 C 
ATOM     17  H   UNL     1      37.176 -21.515 -18.642  0.00  0.00    +0.174 HD
ENDBRANCH   4  10
ENDBRANCH   1   3
BRANCH   1  18
ATOM     18  C   UNL     1      33.679 -12.764 -23.655  0.00  0.00    +0.184 C 
BRANCH  18  19
ATOM     19  C   UNL     1      34.005 -11.291 -23.383  0.00  0.00    -0.017 C 
BRANCH  19  20
ATOM     20  N   UNL     1      34.925 -10.824 -24.425  0.00  0.00    +0.384 N 
ATOM     21  H   UNL     1      34.397 -10.344 -25.155  0.00  0.00    -0.089 HD
ATOM     22  H   UNL     1      35.414 -11.622 -24.829  0.00  0.00    -0.089 HD
ATOM     23  H   UNL     1      35.603 -10.181 -24.017  0.00  0.00    -0.089 HD
ENDBRANCH  19  20
BRANCH  19  24
ATOM     24  C   UNL     1      32.752 -10.382 -23.371  0.00  0.00    +0.006 C 
BRANCH  24  26
ATOM     25  N   UNL     1      32.143  -7.758 -20.753  0.00  0.00    -0.234 NA
ATOM     26  C   UNL     1      32.873  -9.179 -22.527  0.00  0.00    -0.024 C 
ATOM     27  C   UNL     1      33.459  -7.993 -22.691  0.00  0.00    +0.065 C 
ATOM     28  C   UNL     1      33.208  -7.082 -21.522  0.00  0.00    +0.122 C 
ATOM     29  C   UNL     1      32.076  -8.928 -21.318  0.00  0.00    +0.072 C 
ATOM     30  C   UNL     1      34.122  -7.446 -23.847  0.00  0.00    -0.020 C 
ATOM     31  C   UNL     1      32.868  -5.687 -21.969  0.00  0.00    -0.004 C 
ATOM     32  C   UNL     1      34.055  -6.118 -24.057  0.00  0.00    -0.004 C 
ATOM     33  C   UNL     1      33.299  -5.248 -23.166  0.00  0.00    -0.003 C 
ENDBRANCH  24  26
ENDBRANCH  19  24
ENDBRANCH  18  19
ENDBRANCH   1  18
TORSDOF 7
ENDMDL
MODEL 4
REMARK VINA RESULT:     -11.5      3.295     11.487
REMARK  Name = 49866474
REMARK  7 active torsions:
REMARK  status: ('A' for Active; 'I' for Inactive)
REMARK    1  A    between atoms: O_1  and  C_3
REMARK    2  A    between atoms: O_1  and  C_18
REMARK    3  A    between atoms: C_4  and  C_10
REMARK    4  A    between atoms: C_18  and  C_19
REMARK    5  A    between atoms: C_19  and  N_20
REMARK    6  A    between atoms: C_19  and  C_24
REMARK    7  A    between atoms: C_24  and  C_26
REMARK                            x       y       z     vdW  Elec       q    Type
REMARK                         _______ _______ _______ _____ _____    ______ ____
ROOT
ATOM      1  O   UNL     1      31.424 -11.626 -21.255  0.00  0.00    -0.476 OA
ENDROOT
BRANCH   1   3
ATOM      2  N   UNL     1      32.062  -8.816 -19.000  0.00  0.00    -0.239 NA
ATOM      3  C   UNL     1      31.745 -10.363 -20.832  0.00  0.00    +0.158 C 
ATOM      4  C   UNL     1      32.396  -8.091 -21.283  0.00  0.00    +0.022 C 
ATOM      5  C   UNL     1      32.073  -9.364 -21.742  0.00  0.00    +0.040 C 
ATOM      6  C   UNL     1      31.754 -10.040 -19.484  0.00  0.00    +0.136 C 
ATOM      7  C   UNL     1      32.376  -7.871 -19.915  0.00  0.00    +0.099 C 
BRANCH   4  10
ATOM      8  N   UNL     1      33.449  -3.937 -24.792  0.00  0.00    -0.236 N 
ATOM      9  N   UNL     1      32.283  -3.273 -24.868  0.00  0.00    -0.180 NA
ATOM     10  C   UNL     1      32.741  -7.033 -22.203  0.00  0.00    +0.002 C 
ATOM     11  C   UNL     1      32.126  -5.068 -23.458  0.00  0.00    +0.035 C 
ATOM     12  C   UNL     1      31.770  -6.088 -22.561  0.00  0.00    +0.003 C 
ATOM     13  C   UNL     1      33.422  -5.025 -23.962  0.00  0.00    +0.067 C 
ATOM     14  C   UNL     1      34.034  -6.966 -22.724  0.00  0.00    +0.001 C 
ATOM     15  C   UNL     1      34.403  -5.957 -23.619  0.00  0.00    +0.016 C 
ATOM     16  C   UNL     1      31.482  -3.964 -24.055  0.00  0.00    +0.119 C 
ATOM     17  H   UNL     1      34.253  -3.664 -25.289  0.00  0.00    +0.174 HD
ENDBRANCH   4  10
ENDBRANCH   1   3
BRANCH   1  18
ATOM     18  C   UNL     1      32.341 -12.663 -20.932  0.00  0.00    +0.184 C 
BRANCH  18  19
ATOM     19  C   UNL     1      33.012 -13.200 -22.201  0.00  0.00    -0.017 C 
BRANCH  19  20
ATOM     20  N   UNL     1      33.460 -12.057 -23.003  0.00  0.00    +0.384 N 
ATOM     21  H   UNL     1      32.650 -11.589 -23.411  0.00  0.00    -0.089 HD
ATOM     22  H   UNL     1      34.075 -12.383 -23.746  0.00  0.00    -0.089 HD
ATOM     23  H   UNL     1      33.965 -11.401 -22.406  0.00  0.00    -0.089 HD
ENDBRANCH  19  20
BRANCH  19  24
ATOM     24  C   UNL     1      34.225 -14.117 -21.908  0.00  0.00    +0.006 C 
BRANCH  24  26
ATOM     25  N   UNL     1      33.956 -16.292 -24.959  0.00  0.00    -0.234 NA
ATOM     26  C   UNL     1      34.438 -15.190 -22.897  0.00  0.00    -0.024 C 
ATOM     27  C   UNL     1      34.946 -16.420 -22.827  0.00  0.00    +0.065 C 
ATOM     28  C   UNL     1      34.855 -17.136 -24.145  0.00  0.00    +0.122 C 
ATOM     29  C   UNL     1      33.840 -15.214 -24.238  0.00  0.00    +0.072 C 
ATOM     30  C   UNL     1      35.390 -17.168 -21.678  0.00  0.00    -0.020 C 
ATOM     31  C   UNL     1      34.397 -18.557 -23.975  0.00  0.00    -0.004 C 
ATOM     32  C   UNL     1      35.242 -18.506 -21.687  0.00  0.00    -0.004 C 
ATOM     33  C   UNL     1      34.611 -19.191 -22.807  0.00  0.00    -0.003 C 
ENDBRANCH  24  26
ENDBRANCH  19  24
ENDBRANCH  18  19
ENDBRANCH   1  18
TORSDOF 7
ENDMDL
MODEL 5
REMARK VINA RESULT:     -11.5      5.437     10.978
REMARK  Name = 49866474
REMARK  7 active torsions:
REMARK  status: ('A' for Active; 'I' for Inactive)
REMARK    1  A    between atoms: O_1  and  C_3
REMARK    2  A    between atoms: O_1  and  C_18
REMARK    3  A    between atoms: C_4  and  C_10
REMARK    4  A    between atoms: C_18  and  C_19
REMARK    5  A    between atoms: C_19  and  N_20
REMARK    6  A    between atoms: C_19  and  C_24
REMARK    7  A    between atoms: C_24  and  C_26
REMARK                            x       y       z     vdW  Elec       q    Type
REMARK                         _______ _______ _______ _____ _____    ______ ____
ROOT
ATOM      1  O   UNL     1      36.222 -22.386 -17.423  0.00  0.00    -0.476 OA
ENDROOT
BRANCH   1   3
ATOM      2  N   UNL     1      32.965 -22.077 -19.061  0.00  0.00    -0.239 NA
ATOM      3  C   UNL     1      35.248 -21.937 -18.277  0.00  0.00    +0.158 C 
ATOM      4  C   UNL     1      34.501 -20.492 -20.049  0.00  0.00    +0.022 C 
ATOM      5  C   UNL     1      35.510 -20.928 -19.196  0.00  0.00    +0.040 C 
ATOM      6  C   UNL     1      33.971 -22.474 -18.250  0.00  0.00    +0.136 C 
ATOM      7  C   UNL     1      33.257 -21.093 -19.942  0.00  0.00    +0.099 C 
BRANCH   4  10
ATOM      8  N   UNL     1      35.241 -16.610 -23.930  0.00  0.00    -0.236 N 
ATOM      9  N   UNL     1      34.432 -16.994 -24.932  0.00  0.00    -0.180 NA
ATOM     10  C   UNL     1      34.742 -19.445 -21.014  0.00  0.00    +0.002 C 
ATOM     11  C   UNL     1      34.318 -18.448 -23.168  0.00  0.00    +0.035 C 
ATOM     12  C   UNL     1      34.068 -19.474 -22.243  0.00  0.00    +0.003 C 
ATOM     13  C   UNL     1      35.219 -17.440 -22.842  0.00  0.00    +0.067 C 
ATOM     14  C   UNL     1      35.640 -18.422 -20.712  0.00  0.00    +0.001 C 
ATOM     15  C   UNL     1      35.900 -17.393 -21.623  0.00  0.00    +0.016 C 
ATOM     16  C   UNL     1      33.873 -18.112 -24.464  0.00  0.00    +0.119 C 
ATOM     17  H   UNL     1      35.800 -15.801 -23.974  0.00  0.00    +0.174 HD
ENDBRANCH   4  10
ENDBRANCH   1   3
BRANCH   1  18
ATOM     18  C   UNL     1      36.014 -22.159 -16.036  0.00  0.00    +0.184 C 
BRANCH  18  19
ATOM     19  C   UNL     1      36.268 -23.443 -15.239  0.00  0.00    -0.017 C 
BRANCH  19  20
ATOM     20  N   UNL     1      36.660 -23.068 -13.877  0.00  0.00    +0.384 N 
ATOM     21  H   UNL     1      37.675 -22.971 -13.829  0.00  0.00    -0.089 HD
ATOM     22  H   UNL     1      36.357 -23.790 -13.224  0.00  0.00    -0.089 HD
ATOM     23  H   UNL     1      36.223 -22.180 -13.629  0.00  0.00    -0.089 HD
ENDBRANCH  19  20
BRANCH  19  24
ATOM     24  C   UNL     1      35.030 -24.371 -15.170  0.00  0.00    +0.006 C 
BRANCH  24  26
ATOM     25  N   UNL     1      32.657 -23.787 -12.317  0.00  0.00    -0.234 NA
ATOM     26  C   UNL     1      33.924 -23.860 -14.339  0.00  0.00    -0.024 C 
ATOM     27  C   UNL     1      32.754 -23.284 -14.615  0.00  0.00    +0.065 C 
ATOM     28  C   UNL     1      31.954 -23.024 -13.369  0.00  0.00    +0.122 C 
ATOM     29  C   UNL     1      33.761 -24.144 -12.907  0.00  0.00    +0.072 C 
ATOM     30  C   UNL     1      32.124 -23.045 -15.888  0.00  0.00    -0.020 C 
ATOM     31  C   UNL     1      30.509 -23.394 -13.550  0.00  0.00    -0.004 C 
ATOM     32  C   UNL     1      30.780 -23.080 -15.955  0.00  0.00    -0.004 C 
ATOM     33  C   UNL     1      29.971 -23.393 -14.784  0.00  0.00    -0.003 C 
ENDBRANCH  24  26
ENDBRANCH  19  24
ENDBRANCH  18  19
ENDBRANCH   1  18
TORSDOF 7
ENDMDL
MODEL 6
REMARK VINA RESULT:     -11.2      3.384     10.925
REMARK  Name = 49866474
REMARK  7 active torsions:
REMARK  status: ('A' for Active; 'I' for Inactive)
REMARK    1  A    between atoms: O_1  and  C_3
REMARK    2  A    between atoms: O_1  and  C_18
REMARK    3  A    between atoms: C_4  and  C_10
REMARK    4  A    between atoms: C_18  and  C_19
REMARK    5  A    between atoms: C_19  and  N_20
REMARK    6  A    between atoms: C_19  and  C_24
REMARK    7  A    between atoms: C_24  and  C_26
REMARK                            x       y       z     vdW  Elec       q    Type
REMARK                         _______ _______ _______ _____ _____    ______ ____
ROOT
ATOM      1  O   UNL     1      34.357 -21.255 -19.864  0.00  0.00    -0.476 OA
ENDROOT
BRANCH   1   3
ATOM      2  N   UNL     1      37.318 -19.134 -20.211  0.00  0.00    -0.239 NA
ATOM      3  C   UNL     1      35.157 -20.217 -20.265  0.00  0.00    +0.158 C 
ATOM      4  C   UNL     1      35.504 -18.177 -21.491  0.00  0.00    +0.022 C 
ATOM      5  C   UNL     1      34.669 -19.218 -21.100  0.00  0.00    +0.040 C 
ATOM      6  C   UNL     1      36.477 -20.129 -19.852  0.00  0.00    +0.136 C 
ATOM      7  C   UNL     1      36.808 -18.181 -21.024  0.00  0.00    +0.099 C 
BRANCH   4  10
ATOM      8  N   UNL     1      33.697 -13.959 -24.594  0.00  0.00    -0.236 N 
ATOM      9  N   UNL     1      33.726 -12.907 -23.760  0.00  0.00    -0.180 NA
ATOM     10  C   UNL     1      35.027 -17.125 -22.358  0.00  0.00    +0.002 C 
ATOM     11  C   UNL     1      34.437 -14.814 -22.716  0.00  0.00    +0.035 C 
ATOM     12  C   UNL     1      34.904 -15.822 -21.857  0.00  0.00    +0.003 C 
ATOM     13  C   UNL     1      34.111 -15.135 -24.029  0.00  0.00    +0.067 C 
ATOM     14  C   UNL     1      34.694 -17.419 -23.681  0.00  0.00    +0.001 C 
ATOM     15  C   UNL     1      34.226 -16.426 -24.548  0.00  0.00    +0.016 C 
ATOM     16  C   UNL     1      34.176 -13.431 -22.619  0.00  0.00    +0.119 C 
ATOM     17  H   UNL     1      33.403 -13.891 -25.531  0.00  0.00    +0.174 HD
ENDBRANCH   4  10
ENDBRANCH   1   3
BRANCH   1  18
ATOM     18  C   UNL     1      34.791 -21.999 -18.733  0.00  0.00    +0.184 C 
BRANCH  18  19
ATOM     19  C   UNL     1      33.664 -22.111 -17.701  0.00  0.00    -0.017 C 
BRANCH  19  20
ATOM     20  N   UNL     1      32.391 -21.857 -18.382  0.00  0.00    +0.384 N 
ATOM     21  H   UNL     1      31.756 -21.373 -17.746  0.00  0.00    -0.089 HD
ATOM     22  H   UNL     1      31.975 -22.742 -18.669  0.00  0.00    -0.089 HD
ATOM     23  H   UNL     1      32.556 -21.276 -19.204  0.00  0.00    -0.089 HD
ENDBRANCH  19  20
BRANCH  19  24
ATOM     24  C   UNL     1      33.602 -23.499 -17.016  0.00  0.00    +0.006 C 
BRANCH  24  26
ATOM     25  N   UNL     1      33.385 -23.841 -13.281  0.00  0.00    -0.234 NA
ATOM     26  C   UNL     1      33.113 -23.476 -15.624  0.00  0.00    -0.024 C 
ATOM     27  C   UNL     1      31.899 -23.492 -15.073  0.00  0.00    +0.065 C 
ATOM     28  C   UNL     1      31.970 -23.534 -13.573  0.00  0.00    +0.122 C 
ATOM     29  C   UNL     1      33.955 -23.712 -14.444  0.00  0.00    +0.072 C 
ATOM     30  C   UNL     1      30.608 -23.635 -15.696  0.00  0.00    -0.020 C 
ATOM     31  C   UNL     1      30.985 -24.513 -12.997  0.00  0.00    -0.004 C 
ATOM     32  C   UNL     1      29.633 -24.263 -15.012  0.00  0.00    -0.004 C 
ATOM     33  C   UNL     1      29.875 -24.826 -13.690  0.00  0.00    -0.003 C 
ENDBRANCH  24  26
ENDBRANCH  19  24
ENDBRANCH  18  19
ENDBRANCH   1  18
TORSDOF 7
ENDMDL
MODEL 7
REMARK VINA RESULT:     -11.2      2.190     10.363
REMARK  Name = 49866474
REMARK  7 active torsions:
REMARK  status: ('A' for Active; 'I' for Inactive)
REMARK    1  A    between atoms: O_1  and  C_3
REMARK    2  A    between atoms: O_1  and  C_18
REMARK    3  A    between atoms: C_4  and  C_10
REMARK    4  A    between atoms: C_18  and  C_19
REMARK    5  A    between atoms: C_19  and  N_20
REMARK    6  A    between atoms: C_19  and  C_24
REMARK    7  A    between atoms: C_24  and  C_26
REMARK                            x       y       z     vdW  Elec       q    Type
REMARK                         _______ _______ _______ _____ _____    ______ ____
ROOT
ATOM      1  O   UNL     1      33.451 -14.697 -23.476  0.00  0.00    -0.476 OA
ENDROOT
BRANCH   1   3
ATOM      2  N   UNL     1      33.628 -12.384 -26.305  0.00  0.00    -0.239 NA
ATOM      3  C   UNL     1      33.518 -13.519 -24.173  0.00  0.00    +0.158 C 
ATOM      4  C   UNL     1      33.609 -11.116 -24.246  0.00  0.00    +0.022 C 
ATOM      5  C   UNL     1      33.542 -12.296 -23.512  0.00  0.00    +0.040 C 
ATOM      6  C   UNL     1      33.563 -13.509 -25.558  0.00  0.00    +0.136 C 
ATOM      7  C   UNL     1      33.649 -11.214 -25.627  0.00  0.00    +0.099 C 
BRANCH   4  10
ATOM      8  N   UNL     1      33.461  -6.256 -21.594  0.00  0.00    -0.236 N 
ATOM      9  N   UNL     1      32.344  -6.325 -20.850  0.00  0.00    -0.180 NA
ATOM     10  C   UNL     1      33.635  -9.831 -23.589  0.00  0.00    +0.002 C 
ATOM     11  C   UNL     1      32.652  -8.238 -22.068  0.00  0.00    +0.035 C 
ATOM     12  C   UNL     1      32.609  -9.494 -22.695  0.00  0.00    +0.003 C 
ATOM     13  C   UNL     1      33.703  -7.372 -22.348  0.00  0.00    +0.067 C 
ATOM     14  C   UNL     1      34.678  -8.942 -23.851  0.00  0.00    +0.001 C 
ATOM     15  C   UNL     1      34.735  -7.688 -23.235  0.00  0.00    +0.016 C 
ATOM     16  C   UNL     1      31.855  -7.532 -21.141  0.00  0.00    +0.119 C 
ATOM     17  H   UNL     1      34.054  -5.470 -21.596  0.00  0.00    +0.174 HD
ENDBRANCH   4  10
ENDBRANCH   1   3
BRANCH   1  18
ATOM     18  C   UNL     1      34.054 -15.834 -24.079  0.00  0.00    +0.184 C 
BRANCH  18  19
ATOM     19  C   UNL     1      35.087 -16.458 -23.132  0.00  0.00    -0.017 C 
BRANCH  19  20
ATOM     20  N   UNL     1      34.975 -15.794 -21.829  0.00  0.00    +0.384 N 
ATOM     21  H   UNL     1      34.644 -16.464 -21.134  0.00  0.00    -0.089 HD
ATOM     22  H   UNL     1      34.315 -15.020 -21.898  0.00  0.00    -0.089 HD
ATOM     23  H   UNL     1      35.889 -15.438 -21.550  0.00  0.00    -0.089 HD
ENDBRANCH  19  20
BRANCH  19  24
ATOM     24  C   UNL     1      34.894 -17.982 -22.941  0.00  0.00    +0.006 C 
BRANCH  24  26
ATOM     25  N   UNL     1      37.574 -19.335 -20.683  0.00  0.00    -0.234 NA
ATOM     26  C   UNL     1      35.604 -18.551 -21.780  0.00  0.00    -0.024 C 
ATOM     27  C   UNL     1      35.221 -19.276 -20.730  0.00  0.00    +0.065 C 
ATOM     28  C   UNL     1      36.388 -19.665 -19.866  0.00  0.00    +0.122 C 
ATOM     29  C   UNL     1      37.065 -18.659 -21.672  0.00  0.00    +0.072 C 
ATOM     30  C   UNL     1      33.933 -19.843 -20.424  0.00  0.00    -0.020 C 
ATOM     31  C   UNL     1      36.306 -21.102 -19.434  0.00  0.00    -0.004 C 
ATOM     32  C   UNL     1      33.888 -21.007 -19.749  0.00  0.00    -0.004 C 
ATOM     33  C   UNL     1      35.106 -21.709 -19.367  0.00  0.00    -0.003 C 
ENDBRANCH  24  26
ENDBRANCH  19  24
ENDBRANCH  18  19
ENDBRANCH   1  18
TORSDOF 7
ENDMDL
MODEL 8
REMARK VINA RESULT:     -11.1      1.023      2.021
REMARK  Name = 49866474
REMARK  7 active torsions:
REMARK  status: ('A' for Active; 'I' for Inactive)
REMARK    1  A    between atoms: O_1  and  C_3
REMARK    2  A    between atoms: O_1  and  C_18
REMARK    3  A    between atoms: C_4  and  C_10
REMARK    4  A    between atoms: C_18  and  C_19
REMARK    5  A    between atoms: C_19  and  N_20
REMARK    6  A    between atoms: C_19  and  C_24
REMARK    7  A    between atoms: C_24  and  C_26
REMARK                            x       y       z     vdW  Elec       q    Type
REMARK                         _______ _______ _______ _____ _____    ______ ____
ROOT
ATOM      1  O   UNL     1      35.183 -15.056 -22.854  0.00  0.00    -0.476 OA
ENDROOT
BRANCH   1   3
ATOM      2  N   UNL     1      34.468 -18.210 -24.565  0.00  0.00    -0.239 NA
ATOM      3  C   UNL     1      34.929 -16.390 -23.042  0.00  0.00    +0.158 C 
ATOM      4  C   UNL     1      34.615 -18.616 -22.186  0.00  0.00    +0.022 C 
ATOM      5  C   UNL     1      34.873 -17.268 -21.965  0.00  0.00    +0.040 C 
ATOM      6  C   UNL     1      34.721 -16.907 -24.310  0.00  0.00    +0.136 C 
ATOM      7  C   UNL     1      34.422 -19.033 -23.493  0.00  0.00    +0.099 C 
BRANCH   4  10
ATOM      8  N   UNL     1      34.658 -22.189 -17.954  0.00  0.00    -0.236 N 
ATOM      9  N   UNL     1      35.957 -22.290 -17.627  0.00  0.00    -0.180 NA
ATOM     10  C   UNL     1      34.551 -19.552 -21.088  0.00  0.00    +0.002 C 
ATOM     11  C   UNL     1      35.650 -20.849 -19.378  0.00  0.00    +0.035 C 
ATOM     12  C   UNL     1      35.734 -19.937 -20.442  0.00  0.00    +0.003 C 
ATOM     13  C   UNL     1      34.406 -21.341 -18.998  0.00  0.00    +0.067 C 
ATOM     14  C   UNL     1      33.316 -20.061 -20.685  0.00  0.00    +0.001 C 
ATOM     15  C   UNL     1      33.216 -20.970 -19.628  0.00  0.00    +0.016 C 
ATOM     16  C   UNL     1      36.557 -21.473 -18.495  0.00  0.00    +0.119 C 
ATOM     17  H   UNL     1      33.948 -22.683 -17.483  0.00  0.00    +0.174 HD
ENDBRANCH   4  10
ENDBRANCH   1   3
BRANCH   1  18
ATOM     18  C   UNL     1      34.280 -14.342 -22.020  0.00  0.00    +0.184 C 
BRANCH  18  19
ATOM     19  C   UNL     1      33.720 -13.121 -22.759  0.00  0.00    -0.017 C 
BRANCH  19  20
ATOM     20  N   UNL     1      33.641 -13.445 -24.187  0.00  0.00    +0.384 N 
ATOM     21  H   UNL     1      33.878 -12.618 -24.736  0.00  0.00    -0.089 HD
ATOM     22  H   UNL     1      32.695 -13.746 -24.416  0.00  0.00    -0.089 HD
ATOM     23  H   UNL     1      34.298 -14.195 -24.402  0.00  0.00    -0.089 HD
ENDBRANCH  19  20
BRANCH  19  24
ATOM     24  C   UNL     1      32.317 -12.699 -22.259  0.00  0.00    +0.006 C 
BRANCH  24  26
ATOM     25  N   UNL     1      31.438  -9.846 -19.978  0.00  0.00    -0.234 NA
ATOM     26  C   UNL     1      32.267 -11.373 -21.615  0.00  0.00    -0.024 C 
ATOM     27  C   UNL     1      32.572 -10.140 -22.019  0.00  0.00    +0.065 C 
ATOM     28  C   UNL     1      32.254  -9.114 -20.968  0.00  0.00    +0.122 C 
ATOM     29  C   UNL     1      31.561 -11.084 -20.360  0.00  0.00    +0.072 C 
ATOM     30  C   UNL     1      32.986  -9.673 -23.318  0.00  0.00    -0.020 C 
ATOM     31  C   UNL     1      31.587  -7.903 -21.557  0.00  0.00    -0.004 C 
ATOM     32  C   UNL     1      32.622  -8.435 -23.701  0.00  0.00    -0.004 C 
ATOM     33  C   UNL     1      31.794  -7.591 -22.850  0.00  0.00    -0.003 C 
ENDBRANCH  24  26
ENDBRANCH  19  24
ENDBRANCH  18  19
ENDBRANCH   1  18
TORSDOF 7
ENDMDL
MODEL 9
REMARK VINA RESULT:     -11.1      5.196     11.512
REMARK  Name = 49866474
REMARK  7 active torsions:
REMARK  status: ('A' for Active; 'I' for Inactive)
REMARK    1  A    between atoms: O_1  and  C_3
REMARK    2  A    between atoms: O_1  and  C_18
REMARK    3  A    between atoms: C_4  and  C_10
REMARK    4  A    between atoms: C_18  and  C_19
REMARK    5  A    between atoms: C_19  and  N_20
REMARK    6  A    between atoms: C_19  and  C_24
REMARK    7  A    between atoms: C_24  and  C_26
REMARK                            x       y       z     vdW  Elec       q    Type
REMARK                         _______ _______ _______ _____ _____    ______ ____
ROOT
ATOM      1  O   UNL     1      32.981 -22.392 -18.034  0.00  0.00    -0.476 OA
ENDROOT
BRANCH   1   3
ATOM      2  N   UNL     1      36.501 -21.567 -18.594  0.00  0.00    -0.239 NA
ATOM      3  C   UNL     1      34.093 -21.785 -18.556  0.00  0.00    +0.158 C 
ATOM      4  C   UNL     1      35.129 -20.210 -20.051  0.00  0.00    +0.022 C 
ATOM      5  C   UNL     1      33.982 -20.808 -19.539  0.00  0.00    +0.040 C 
ATOM      6  C   UNL     1      35.364 -22.125 -18.121  0.00  0.00    +0.136 C 
ATOM      7  C   UNL     1      36.353 -20.621 -19.550  0.00  0.00    +0.099 C 
BRANCH   4  10
ATOM      8  N   UNL     1      34.659 -16.495 -24.132  0.00  0.00    -0.236 N 
ATOM      9  N   UNL     1      33.938 -17.132 -25.070  0.00  0.00    -0.180 NA
ATOM     10  C   UNL     1      35.045 -19.193 -21.073  0.00  0.00    +0.002 C 
ATOM     11  C   UNL     1      34.285 -18.463 -23.241  0.00  0.00    +0.035 C 
ATOM     12  C   UNL     1      34.352 -19.465 -22.260  0.00  0.00    +0.003 C 
ATOM     13  C   UNL     1      34.902 -17.239 -23.010  0.00  0.00    +0.067 C 
ATOM     14  C   UNL     1      35.656 -17.956 -20.866  0.00  0.00    +0.001 C 
ATOM     15  C   UNL     1      35.598 -16.948 -21.834  0.00  0.00    +0.016 C 
ATOM     16  C   UNL     1      33.712 -18.328 -24.524  0.00  0.00    +0.119 C 
ATOM     17  H   UNL     1      34.984 -15.572 -24.243  0.00  0.00    +0.174 HD
ENDBRANCH   4  10
ENDBRANCH   1   3
BRANCH   1  18
ATOM     18  C   UNL     1      33.199 -23.510 -17.184  0.00  0.00    +0.184 C 
BRANCH  18  19
ATOM     19  C   UNL     1      33.229 -23.070 -15.716  0.00  0.00    -0.017 C 
BRANCH  19  20
ATOM     20  N   UNL     1      31.847 -22.871 -15.269  0.00  0.00    +0.384 N 
ATOM     21  H   UNL     1      31.544 -23.683 -14.729  0.00  0.00    -0.089 HD
ATOM     22  H   UNL     1      31.240 -22.756 -16.080  0.00  0.00    -0.089 HD
ATOM     23  H   UNL     1      31.796 -22.037 -14.685  0.00  0.00    -0.089 HD
ENDBRANCH  19  20
BRANCH  19  24
ATOM     24  C   UNL     1      33.917 -24.099 -14.786  0.00  0.00    +0.006 C 
BRANCH  24  26
ATOM     25  N   UNL     1      37.475 -23.000 -14.288  0.00  0.00    -0.234 NA
ATOM     26  C   UNL     1      35.175 -23.630 -14.175  0.00  0.00    -0.024 C 
ATOM     27  C   UNL     1      35.664 -23.657 -12.936  0.00  0.00    +0.065 C 
ATOM     28  C   UNL     1      37.058 -23.099 -12.874  0.00  0.00    +0.122 C 
ATOM     29  C   UNL     1      36.368 -23.229 -14.933  0.00  0.00    +0.072 C 
ATOM     30  C   UNL     1      35.125 -24.268 -11.748  0.00  0.00    -0.020 C 
ATOM     31  C   UNL     1      37.956 -23.943 -12.014  0.00  0.00    -0.004 C 
ATOM     32  C   UNL     1      35.982 -24.751 -10.829  0.00  0.00    -0.004 C 
ATOM     33  C   UNL     1      37.423 -24.701 -11.038  0.00  0.00    -0.003 C 
ENDBRANCH  24  26
ENDBRANCH  19  24
ENDBRANCH  18  19
ENDBRANCH   1  18
TORSDOF 7
ENDMDL
