MODEL 1
REMARK VINA RESULT:     -12.3      0.000      0.000
REMARK  Name = 32778
REMARK  7 active torsions:
REMARK  status: ('A' for Active; 'I' for Inactive)
REMARK    1  A    between atoms: C_1  and  S_7
REMARK    2  A    between atoms: C_2  and  C_23
REMARK    3  A    between atoms: S_7  and  N_12
REMARK    4  A    between atoms: N_11  and  N_16
REMARK    5  A    between atoms: C_23  and  C_24
REMARK    6  A    between atoms: C_24  and  N_26
REMARK    7  A    between atoms: C_27  and  C_31
REMARK                            x       y       z     vdW  Elec       q    Type
REMARK                         _______ _______ _______ _____ _____    ______ ____
ROOT
ATOM      1  C   UNL     1      34.389 -21.406 -19.124  0.00  0.00    +0.125 C 
ATOM      2  C   UNL     1      35.659 -19.504 -20.722  0.00  0.00    -0.020 C 
ATOM      3  C   UNL     1      35.780 -21.298 -19.108  0.00  0.00    +0.020 C 
ATOM      4  C   UNL     1      33.633 -20.563 -19.940  0.00  0.00    +0.020 C 
ATOM      5  C   UNL     1      36.415 -20.347 -19.906  0.00  0.00    -0.003 C 
ATOM      6  C   UNL     1      34.268 -19.612 -20.738  0.00  0.00    -0.003 C 
ENDROOT
BRANCH   1   7
ATOM      7  S   UNL     1      33.585 -22.613 -18.114  0.00  0.00    +0.077 S 
ATOM      8  O   UNL     1      33.726 -23.906 -18.755  0.00  0.00    -0.150 OA
ATOM      9  O   UNL     1      32.270 -22.088 -17.799  0.00  0.00    -0.150 OA
BRANCH   7  12
ATOM     10  O   UNL     1      34.016 -24.649 -15.810  0.00  0.00    -0.250 OA
ATOM     11  N   UNL     1      35.520 -23.277 -14.711  0.00  0.00    -0.230 N 
ATOM     12  N   UNL     1      34.561 -22.567 -16.711  0.00  0.00    -0.168 N 
ATOM     13  C   UNL     1      34.652 -23.602 -15.728  0.00  0.00    +0.333 C 
ATOM     14  H   UNL     1      35.994 -22.414 -14.717  0.00  0.00    +0.171 HD
ATOM     15  H   UNL     1      35.107 -21.759 -16.567  0.00  0.00    +0.178 HD
BRANCH  11  16
ATOM     16  N   UNL     1      35.720 -24.181 -13.679  0.00  0.00    -0.205 NA
ATOM     17  C   UNL     1      37.091 -24.854 -10.868  0.00  0.00    +0.002 C 
ATOM     18  C   UNL     1      37.521 -26.088 -11.650  0.00  0.00    +0.002 C 
ATOM     19  C   UNL     1      35.673 -24.376 -11.156  0.00  0.00    +0.019 C 
ATOM     20  C   UNL     1      37.058 -26.188 -13.099  0.00  0.00    +0.019 C 
ATOM     21  C   UNL     1      35.582 -23.485 -12.399  0.00  0.00    +0.092 C 
ATOM     22  C   UNL     1      37.002 -24.868 -13.867  0.00  0.00    +0.092 C 
ENDBRANCH  11  16
ENDBRANCH   7  12
ENDBRANCH   1   7
BRANCH   2  23
ATOM     23  C   UNL     1      36.338 -18.486 -21.574  0.00  0.00    +0.048 C 
BRANCH  23  24
ATOM     24  C   UNL     1      35.655 -18.268 -22.931  0.00  0.00    +0.094 C 
BRANCH  24  26
ATOM     25  O   UNL     1      33.766 -17.348 -24.838  0.00  0.00    -0.268 OA
ATOM     26  N   UNL     1      35.240 -16.904 -23.121  0.00  0.00    -0.299 N 
ATOM     27  C   UNL     1      34.303 -16.537 -24.085  0.00  0.00    +0.267 C 
ATOM     28  H   UNL     1      35.632 -16.205 -22.549  0.00  0.00    +0.150 HD
BRANCH  27  31
ATOM     29  O   UNL     1      33.400 -13.225 -25.064  0.00  0.00    -0.358 OA
ATOM     30  N   UNL     1      33.576 -14.579 -25.326  0.00  0.00    -0.073 NA
ATOM     31  C   UNL     1      34.009 -15.099 -24.175  0.00  0.00    +0.176 C 
ATOM     32  C   UNL     1      34.124 -14.133 -23.161  0.00  0.00    +0.063 C 
ATOM     33  C   UNL     1      33.730 -12.972 -23.771  0.00  0.00    +0.155 C 
ATOM     34  C   UNL     1      33.601 -11.580 -23.322  0.00  0.00    +0.075 C 
ENDBRANCH  27  31
ENDBRANCH  24  26
ENDBRANCH  23  24
ENDBRANCH   2  23
TORSDOF 7
ENDMDL
MODEL 2
REMARK VINA RESULT:     -11.3      3.337     12.257
REMARK  Name = 32778
REMARK  7 active torsions:
REMARK  status: ('A' for Active; 'I' for Inactive)
REMARK    1  A    between atoms: C_1  and  S_7
REMARK    2  A    between atoms: C_2  and  C_23
REMARK    3  A    between atoms: S_7  and  N_12
REMARK    4  A    between atoms: N_11  and  N_16
REMARK    5  A    between atoms: C_23  and  C_24
REMARK    6  A    between atoms: C_24  and  N_26
REMARK    7  A    between atoms: C_27  and  C_31
REMARK                            x       y       z     vdW  Elec       q    Type
REMARK                         _______ _______ _______ _____ _____    ______ ____
ROOT
ATOM      1  C   UNL     1      34.838 -17.500 -22.858  0.00  0.00    +0.125 C 
ATOM      2  C   UNL     1      35.670 -19.319 -20.913  0.00  0.00    -0.020 C 
ATOM      3  C   UNL     1      34.462 -18.840 -22.950  0.00  0.00    +0.020 C 
ATOM      4  C   UNL     1      35.631 -17.070 -21.794  0.00  0.00    +0.020 C 
ATOM      5  C   UNL     1      34.877 -19.749 -21.978  0.00  0.00    -0.003 C 
ATOM      6  C   UNL     1      36.046 -17.979 -20.821  0.00  0.00    -0.003 C 
ENDROOT
BRANCH   1   7
ATOM      7  S   UNL     1      34.313 -16.348 -24.092  0.00  0.00    +0.077 S 
ATOM      8  O   UNL     1      33.048 -16.809 -24.630  0.00  0.00    -0.150 OA
ATOM      9  O   UNL     1      35.448 -16.126 -24.968  0.00  0.00    -0.150 OA
BRANCH   7  12
ATOM     10  O   UNL     1      33.349 -13.490 -24.822  0.00  0.00    -0.250 OA
ATOM     11  N   UNL     1      33.482 -12.751 -22.634  0.00  0.00    -0.230 N 
ATOM     12  N   UNL     1      34.051 -14.951 -23.144  0.00  0.00    -0.168 N 
ATOM     13  C   UNL     1      33.599 -13.686 -23.636  0.00  0.00    +0.333 C 
ATOM     14  H   UNL     1      33.703 -12.987 -21.703  0.00  0.00    +0.171 HD
ATOM     15  H   UNL     1      34.227 -15.022 -22.176  0.00  0.00    +0.178 HD
BRANCH  11  16
ATOM     16  N   UNL     1      33.052 -11.471 -22.950  0.00  0.00    -0.205 NA
ATOM     17  C   UNL     1      33.526  -8.312 -22.783  0.00  0.00    +0.002 C 
ATOM     18  C   UNL     1      32.085  -8.368 -22.292  0.00  0.00    +0.002 C 
ATOM     19  C   UNL     1      33.853  -9.275 -23.918  0.00  0.00    +0.019 C 
ATOM     20  C   UNL     1      31.429  -9.743 -22.219  0.00  0.00    +0.019 C 
ATOM     21  C   UNL     1      34.191 -10.686 -23.429  0.00  0.00    +0.092 C 
ATOM     22  C   UNL     1      32.346 -10.891 -21.802  0.00  0.00    +0.092 C 
ENDBRANCH  11  16
ENDBRANCH   7  12
ENDBRANCH   1   7
BRANCH   2  23
ATOM     23  C   UNL     1      36.112 -20.292 -19.873  0.00  0.00    +0.048 C 
BRANCH  23  24
ATOM     24  C   UNL     1      35.318 -21.605 -19.883  0.00  0.00    +0.094 C 
BRANCH  24  26
ATOM     25  O   UNL     1      33.762 -23.883 -19.221  0.00  0.00    -0.268 OA
ATOM     26  N   UNL     1      34.511 -21.765 -18.703  0.00  0.00    -0.299 N 
ATOM     27  C   UNL     1      33.774 -22.921 -18.454  0.00  0.00    +0.267 C 
ATOM     28  H   UNL     1      34.478 -21.031 -18.048  0.00  0.00    +0.150 HD
BRANCH  27  31
ATOM     29  O   UNL     1      31.246 -22.664 -15.947  0.00  0.00    -0.358 OA
ATOM     30  N   UNL     1      31.690 -22.556 -17.260  0.00  0.00    -0.073 NA
ATOM     31  C   UNL     1      32.975 -22.916 -17.220  0.00  0.00    +0.176 C 
ATOM     32  C   UNL     1      33.395 -23.258 -15.923  0.00  0.00    +0.063 C 
ATOM     33  C   UNL     1      32.271 -23.082 -15.161  0.00  0.00    +0.155 C 
ATOM     34  C   UNL     1      31.975 -23.251 -13.732  0.00  0.00    +0.075 C 
ENDBRANCH  27  31
ENDBRANCH  24  26
ENDBRANCH  23  24
ENDBRANCH   2  23
TORSDOF 7
ENDMDL
MODEL 3
REMARK VINA RESULT:     -11.0      3.942     11.247
REMARK  Name = 32778
REMARK  7 active torsions:
REMARK  status: ('A' for Active; 'I' for Inactive)
REMARK    1  A    between atoms: C_1  and  S_7
REMARK    2  A    between atoms: C_2  and  C_23
REMARK    3  A    between atoms: S_7  and  N_12
REMARK    4  A    between atoms: N_11  and  N_16
REMARK    5  A    between atoms: C_23  and  C_24
REMARK    6  A    between atoms: C_24  and  N_26
REMARK    7  A    between atoms: C_27  and  C_31
REMARK                            x       y       z     vdW  Elec       q    Type
REMARK                         _______ _______ _______ _____ _____    ______ ____
ROOT
ATOM      1  C   UNL     1      35.528 -19.804 -20.412  0.00  0.00    +0.125 C 
ATOM      2  C   UNL     1      34.129 -21.829 -19.099  0.00  0.00    -0.020 C 
ATOM      3  C   UNL     1      36.217 -20.746 -19.649  0.00  0.00    +0.020 C 
ATOM      4  C   UNL     1      34.138 -19.874 -20.518  0.00  0.00    +0.020 C 
ATOM      5  C   UNL     1      35.518 -21.759 -18.993  0.00  0.00    -0.003 C 
ATOM      6  C   UNL     1      33.439 -20.886 -19.862  0.00  0.00    -0.003 C 
ENDROOT
BRANCH   1   7
ATOM      7  S   UNL     1      36.415 -18.520 -21.242  0.00  0.00    +0.077 S 
ATOM      8  O   UNL     1      36.236 -18.697 -22.669  0.00  0.00    -0.150 OA
ATOM      9  O   UNL     1      37.747 -18.491 -20.666  0.00  0.00    -0.150 OA
BRANCH   7  12
ATOM     10  O   UNL     1      34.875 -16.327 -22.810  0.00  0.00    -0.250 OA
ATOM     11  N   UNL     1      34.271 -15.198 -20.883  0.00  0.00    -0.230 N 
ATOM     12  N   UNL     1      35.548 -17.140 -20.728  0.00  0.00    -0.168 N 
ATOM     13  C   UNL     1      34.883 -16.209 -21.588  0.00  0.00    +0.333 C 
ATOM     14  H   UNL     1      34.323 -15.173 -19.900  0.00  0.00    +0.171 HD
ATOM     15  H   UNL     1      35.503 -16.969 -19.758  0.00  0.00    +0.178 HD
BRANCH  11  16
ATOM     16  N   UNL     1      33.579 -14.215 -21.574  0.00  0.00    -0.205 NA
ATOM     17  C   UNL     1      33.558 -11.287 -22.863  0.00  0.00    +0.002 C 
ATOM     18  C   UNL     1      32.286 -11.196 -22.031  0.00  0.00    +0.002 C 
ATOM     19  C   UNL     1      33.785 -12.634 -23.539  0.00  0.00    +0.019 C 
ATOM     20  C   UNL     1      31.893 -12.429 -21.225  0.00  0.00    +0.019 C 
ATOM     21  C   UNL     1      34.446 -13.664 -22.618  0.00  0.00    +0.092 C 
ATOM     22  C   UNL     1      33.053 -13.225 -20.629  0.00  0.00    +0.092 C 
ENDBRANCH  11  16
ENDBRANCH   7  12
ENDBRANCH   1   7
BRANCH   2  23
ATOM     23  C   UNL     1      33.381 -22.912 -18.398  0.00  0.00    +0.048 C 
BRANCH  23  24
ATOM     24  C   UNL     1      32.925 -22.528 -16.984  0.00  0.00    +0.094 C 
BRANCH  24  26
ATOM     25  O   UNL     1      31.230 -24.052 -15.294  0.00  0.00    -0.268 OA
ATOM     26  N   UNL     1      31.495 -22.404 -16.885  0.00  0.00    -0.299 N 
ATOM     27  C   UNL     1      30.736 -23.196 -16.026  0.00  0.00    +0.267 C 
ATOM     28  H   UNL     1      31.037 -21.736 -17.444  0.00  0.00    +0.150 HD
BRANCH  27  31
ATOM     29  O   UNL     1      27.264 -23.007 -16.838  0.00  0.00    -0.358 OA
ATOM     30  N   UNL     1      28.576 -23.368 -17.126  0.00  0.00    -0.073 NA
ATOM     31  C   UNL     1      29.284 -22.970 -16.066  0.00  0.00    +0.176 C 
ATOM     32  C   UNL     1      28.482 -22.358 -15.086  0.00  0.00    +0.063 C 
ATOM     33  C   UNL     1      27.222 -22.406 -15.621  0.00  0.00    +0.155 C 
ATOM     34  C   UNL     1      25.903 -21.958 -15.156  0.00  0.00    +0.075 C 
ENDBRANCH  27  31
ENDBRANCH  24  26
ENDBRANCH  23  24
ENDBRANCH   2  23
TORSDOF 7
ENDMDL
MODEL 4
REMARK VINA RESULT:     -10.9      3.009     11.708
REMARK  Name = 32778
REMARK  7 active torsions:
REMARK  status: ('A' for Active; 'I' for Inactive)
REMARK    1  A    between atoms: C_1  and  S_7
REMARK    2  A    between atoms: C_2  and  C_23
REMARK    3  A    between atoms: S_7  and  N_12
REMARK    4  A    between atoms: N_11  and  N_16
REMARK    5  A    between atoms: C_23  and  C_24
REMARK    6  A    between atoms: C_24  and  N_26
REMARK    7  A    between atoms: C_27  and  C_31
REMARK                            x       y       z     vdW  Elec       q    Type
REMARK                         _______ _______ _______ _____ _____    ______ ____
ROOT
ATOM      1  C   UNL     1      34.640 -22.675 -16.986  0.00  0.00    +0.125 C 
ATOM      2  C   UNL     1      36.175 -22.868 -14.665  0.00  0.00    -0.020 C 
ATOM      3  C   UNL     1      34.123 -23.315 -15.860  0.00  0.00    +0.020 C 
ATOM      4  C   UNL     1      35.925 -22.132 -16.952  0.00  0.00    +0.020 C 
ATOM      5  C   UNL     1      34.890 -23.411 -14.699  0.00  0.00    -0.003 C 
ATOM      6  C   UNL     1      36.692 -22.228 -15.791  0.00  0.00    -0.003 C 
ENDROOT
BRANCH   1   7
ATOM      7  S   UNL     1      33.668 -22.555 -18.458  0.00  0.00    +0.077 S 
ATOM      8  O   UNL     1      32.378 -21.994 -18.102  0.00  0.00    -0.150 OA
ATOM      9  O   UNL     1      33.752 -23.842 -19.122  0.00  0.00    -0.150 OA
BRANCH   7  12
ATOM     10  O   UNL     1      32.794 -20.230 -20.320  0.00  0.00    -0.250 OA
ATOM     11  N   UNL     1      34.975 -19.600 -20.764  0.00  0.00    -0.230 N 
ATOM     12  N   UNL     1      34.562 -21.402 -19.347  0.00  0.00    -0.168 N 
ATOM     13  C   UNL     1      34.004 -20.376 -20.174  0.00  0.00    +0.333 C 
ATOM     14  H   UNL     1      35.929 -19.782 -20.597  0.00  0.00    +0.171 HD
ATOM     15  H   UNL     1      35.545 -21.447 -19.286  0.00  0.00    +0.178 HD
BRANCH  11  16
ATOM     16  N   UNL     1      34.595 -18.559 -21.597  0.00  0.00    -0.205 NA
ATOM     17  C   UNL     1      34.971 -17.000 -24.365  0.00  0.00    +0.002 C 
ATOM     18  C   UNL     1      35.068 -15.820 -23.406  0.00  0.00    +0.002 C 
ATOM     19  C   UNL     1      33.933 -18.049 -23.985  0.00  0.00    +0.019 C 
ATOM     20  C   UNL     1      34.927 -16.121 -21.918  0.00  0.00    +0.019 C 
ATOM     21  C   UNL     1      34.452 -19.065 -22.963  0.00  0.00    +0.092 C 
ATOM     22  C   UNL     1      35.535 -17.443 -21.451  0.00  0.00    +0.092 C 
ENDBRANCH  11  16
ENDBRANCH   7  12
ENDBRANCH   1   7
BRANCH   2  23
ATOM     23  C   UNL     1      36.994 -22.970 -13.423  0.00  0.00    +0.048 C 
BRANCH  23  24
ATOM     24  C   UNL     1      37.019 -24.381 -12.819  0.00  0.00    +0.094 C 
BRANCH  24  26
ATOM     25  O   UNL     1      39.802 -24.875 -13.071  0.00  0.00    -0.268 OA
ATOM     26  N   UNL     1      37.632 -25.341 -13.696  0.00  0.00    -0.299 N 
ATOM     27  C   UNL     1      39.012 -25.521 -13.759  0.00  0.00    +0.267 C 
ATOM     28  H   UNL     1      37.055 -25.893 -14.273  0.00  0.00    +0.150 HD
BRANCH  27  31
ATOM     29  O   UNL     1      40.769 -27.434 -16.208  0.00  0.00    -0.358 OA
ATOM     30  N   UNL     1      40.626 -26.318 -15.391  0.00  0.00    -0.073 NA
ATOM     31  C   UNL     1      39.483 -26.520 -14.729  0.00  0.00    +0.176 C 
ATOM     32  C   UNL     1      38.867 -27.733 -15.083  0.00  0.00    +0.063 C 
ATOM     33  C   UNL     1      39.715 -28.268 -16.015  0.00  0.00    +0.155 C 
ATOM     34  C   UNL     1      39.705 -29.506 -16.806  0.00  0.00    +0.075 C 
ENDBRANCH  27  31
ENDBRANCH  24  26
ENDBRANCH  23  24
ENDBRANCH   2  23
TORSDOF 7
ENDMDL
MODEL 5
REMARK VINA RESULT:     -10.4      2.521     11.808
REMARK  Name = 32778
REMARK  7 active torsions:
REMARK  status: ('A' for Active; 'I' for Inactive)
REMARK    1  A    between atoms: C_1  and  S_7
REMARK    2  A    between atoms: C_2  and  C_23
REMARK    3  A    between atoms: S_7  and  N_12
REMARK    4  A    between atoms: N_11  and  N_16
REMARK    5  A    between atoms: C_23  and  C_24
REMARK    6  A    between atoms: C_24  and  N_26
REMARK    7  A    between atoms: C_27  and  C_31
REMARK                            x       y       z     vdW  Elec       q    Type
REMARK                         _______ _______ _______ _____ _____    ______ ____
ROOT
ATOM      1  C   UNL     1      35.508 -19.765 -20.553  0.00  0.00    +0.125 C 
ATOM      2  C   UNL     1      34.163 -21.643 -18.990  0.00  0.00    -0.020 C 
ATOM      3  C   UNL     1      36.230 -20.668 -19.773  0.00  0.00    +0.020 C 
ATOM      4  C   UNL     1      34.113 -19.800 -20.551  0.00  0.00    +0.020 C 
ATOM      5  C   UNL     1      35.557 -21.607 -18.992  0.00  0.00    -0.003 C 
ATOM      6  C   UNL     1      33.441 -20.740 -19.770  0.00  0.00    -0.003 C 
ENDROOT
BRANCH   1   7
ATOM      7  S   UNL     1      36.361 -18.573 -21.542  0.00  0.00    +0.077 S 
ATOM      8  O   UNL     1      36.004 -18.799 -22.929  0.00  0.00    -0.150 OA
ATOM      9  O   UNL     1      37.751 -18.602 -21.127  0.00  0.00    -0.150 OA
BRANCH   7  12
ATOM     10  O   UNL     1      34.663 -16.423 -23.001  0.00  0.00    -0.250 OA
ATOM     11  N   UNL     1      34.423 -15.138 -21.091  0.00  0.00    -0.230 N 
ATOM     12  N   UNL     1      35.639 -17.122 -21.000  0.00  0.00    -0.168 N 
ATOM     13  C   UNL     1      34.875 -16.222 -21.808  0.00  0.00    +0.333 C 
ATOM     14  H   UNL     1      34.637 -15.049 -20.134  0.00  0.00    +0.171 HD
ATOM     15  H   UNL     1      35.760 -16.885 -20.051  0.00  0.00    +0.178 HD
BRANCH  11  16
ATOM     16  N   UNL     1      33.663 -14.173 -21.734  0.00  0.00    -0.205 NA
ATOM     17  C   UNL     1      33.445 -11.204 -22.907  0.00  0.00    +0.002 C 
ATOM     18  C   UNL     1      32.184 -11.222 -22.053  0.00  0.00    +0.002 C 
ATOM     19  C   UNL     1      33.741 -12.508 -23.638  0.00  0.00    +0.019 C 
ATOM     20  C   UNL     1      31.879 -12.506 -21.290  0.00  0.00    +0.019 C 
ATOM     21  C   UNL     1      34.477 -13.531 -22.768  0.00  0.00    +0.092 C 
ATOM     22  C   UNL     1      33.095 -13.253 -20.743  0.00  0.00    +0.092 C 
ENDBRANCH  11  16
ENDBRANCH   7  12
ENDBRANCH   1   7
BRANCH   2  23
ATOM     23  C   UNL     1      33.444 -22.648 -18.155  0.00  0.00    +0.048 C 
BRANCH  23  24
ATOM     24  C   UNL     1      33.596 -22.414 -16.646  0.00  0.00    +0.094 C 
BRANCH  24  26
ATOM     25  O   UNL     1      36.202 -21.992 -15.604  0.00  0.00    -0.268 OA
ATOM     26  N   UNL     1      34.428 -23.405 -16.019  0.00  0.00    -0.299 N 
ATOM     27  C   UNL     1      35.700 -23.113 -15.533  0.00  0.00    +0.267 C 
ATOM     28  H   UNL     1      34.085 -24.324 -15.930  0.00  0.00    +0.150 HD
BRANCH  27  31
ATOM     29  O   UNL     1      36.866 -26.288 -14.389  0.00  0.00    -0.358 OA
ATOM     30  N   UNL     1      35.934 -25.479 -15.029  0.00  0.00    -0.073 NA
ATOM     31  C   UNL     1      36.436 -24.244 -14.949  0.00  0.00    +0.176 C 
ATOM     32  C   UNL     1      37.671 -24.211 -14.277  0.00  0.00    +0.063 C 
ATOM     33  C   UNL     1      37.895 -25.521 -13.945  0.00  0.00    +0.155 C 
ATOM     34  C   UNL     1      38.977 -26.220 -13.240  0.00  0.00    +0.075 C 
ENDBRANCH  27  31
ENDBRANCH  24  26
ENDBRANCH  23  24
ENDBRANCH   2  23
TORSDOF 7
ENDMDL
MODEL 6
REMARK VINA RESULT:     -10.3      3.354      4.018
REMARK  Name = 32778
REMARK  7 active torsions:
REMARK  status: ('A' for Active; 'I' for Inactive)
REMARK    1  A    between atoms: C_1  and  S_7
REMARK    2  A    between atoms: C_2  and  C_23
REMARK    3  A    between atoms: S_7  and  N_12
REMARK    4  A    between atoms: N_11  and  N_16
REMARK    5  A    between atoms: C_23  and  C_24
REMARK    6  A    between atoms: C_24  and  N_26
REMARK    7  A    between atoms: C_27  and  C_31
REMARK                            x       y       z     vdW  Elec       q    Type
REMARK                         _______ _______ _______ _____ _____    ______ ____
ROOT
ATOM      1  C   UNL     1      35.124 -20.868 -19.801  0.00  0.00    +0.125 C 
ATOM      2  C   UNL     1      35.631 -18.600 -21.343  0.00  0.00    -0.020 C 
ATOM      3  C   UNL     1      34.100 -20.294 -20.555  0.00  0.00    +0.020 C 
ATOM      4  C   UNL     1      36.401 -20.307 -19.817  0.00  0.00    +0.020 C 
ATOM      5  C   UNL     1      34.354 -19.161 -21.327  0.00  0.00    -0.003 C 
ATOM      6  C   UNL     1      36.655 -19.173 -20.589  0.00  0.00    -0.003 C 
ENDROOT
BRANCH   1   7
ATOM      7  S   UNL     1      34.801 -22.304 -18.821  0.00  0.00    +0.077 S 
ATOM      8  O   UNL     1      35.737 -22.315 -17.714  0.00  0.00    -0.150 OA
ATOM      9  O   UNL     1      34.731 -23.428 -19.736  0.00  0.00    -0.150 OA
BRANCH   7  12
ATOM     10  O   UNL     1      33.094 -23.572 -16.560  0.00  0.00    -0.250 OA
ATOM     11  N   UNL     1      31.317 -22.135 -16.925  0.00  0.00    -0.230 N 
ATOM     12  N   UNL     1      33.234 -21.954 -18.237  0.00  0.00    -0.168 N 
ATOM     13  C   UNL     1      32.573 -22.642 -17.170  0.00  0.00    +0.333 C 
ATOM     14  H   UNL     1      30.970 -21.384 -17.460  0.00  0.00    +0.171 HD
ATOM     15  H   UNL     1      32.743 -21.218 -18.671  0.00  0.00    +0.178 HD
BRANCH  11  16
ATOM     16  N   UNL     1      30.548 -22.694 -15.917  0.00  0.00    -0.205 NA
ATOM     17  C   UNL     1      30.281 -24.835 -13.555  0.00  0.00    +0.002 C 
ATOM     18  C   UNL     1      29.002 -25.154 -14.318  0.00  0.00    +0.002 C 
ATOM     19  C   UNL     1      30.626 -23.353 -13.475  0.00  0.00    +0.019 C 
ATOM     20  C   UNL     1      28.713 -24.327 -15.565  0.00  0.00    +0.019 C 
ATOM     21  C   UNL     1      31.368 -22.842 -14.713  0.00  0.00    +0.092 C 
ATOM     22  C   UNL     1      29.934 -23.937 -16.397  0.00  0.00    +0.092 C 
ENDBRANCH  11  16
ENDBRANCH   7  12
ENDBRANCH   1   7
BRANCH   2  23
ATOM     23  C   UNL     1      35.902 -17.388 -22.170  0.00  0.00    +0.048 C 
BRANCH  23  24
ATOM     24  C   UNL     1      34.722 -16.976 -23.059  0.00  0.00    +0.094 C 
BRANCH  24  26
ATOM     25  O   UNL     1      33.900 -15.150 -25.070  0.00  0.00    -0.268 OA
ATOM     26  N   UNL     1      34.332 -15.607 -22.851  0.00  0.00    -0.299 N 
ATOM     27  C   UNL     1      33.941 -14.775 -23.898  0.00  0.00    +0.267 C 
ATOM     28  H   UNL     1      34.342 -15.245 -21.936  0.00  0.00    +0.150 HD
BRANCH  27  31
ATOM     29  O   UNL     1      32.801 -11.771 -22.343  0.00  0.00    -0.358 OA
ATOM     30  N   UNL     1      32.954 -13.152 -22.383  0.00  0.00    -0.073 NA
ATOM     31  C   UNL     1      33.604 -13.394 -23.525  0.00  0.00    +0.176 C 
ATOM     32  C   UNL     1      33.885 -12.217 -24.240  0.00  0.00    +0.063 C 
ATOM     33  C   UNL     1      33.359 -11.226 -23.455  0.00  0.00    +0.155 C 
ATOM     34  C   UNL     1      33.286  -9.764 -23.576  0.00  0.00    +0.075 C 
ENDBRANCH  27  31
ENDBRANCH  24  26
ENDBRANCH  23  24
ENDBRANCH   2  23
TORSDOF 7
ENDMDL
MODEL 7
REMARK VINA RESULT:     -10.3      2.537     12.387
REMARK  Name = 32778
REMARK  7 active torsions:
REMARK  status: ('A' for Active; 'I' for Inactive)
REMARK    1  A    between atoms: C_1  and  S_7
REMARK    2  A    between atoms: C_2  and  C_23
REMARK    3  A    between atoms: S_7  and  N_12
REMARK    4  A    between atoms: N_11  and  N_16
REMARK    5  A    between atoms: C_23  and  C_24
REMARK    6  A    between atoms: C_24  and  N_26
REMARK    7  A    between atoms: C_27  and  C_31
REMARK                            x       y       z     vdW  Elec       q    Type
REMARK                         _______ _______ _______ _____ _____    ______ ____
ROOT
ATOM      1  C   UNL     1      34.932 -17.790 -22.915  0.00  0.00    +0.125 C 
ATOM      2  C   UNL     1      35.963 -19.610 -21.070  0.00  0.00    -0.020 C 
ATOM      3  C   UNL     1      34.275 -19.000 -22.687  0.00  0.00    +0.020 C 
ATOM      4  C   UNL     1      36.105 -17.491 -22.221  0.00  0.00    +0.020 C 
ATOM      5  C   UNL     1      34.790 -19.909 -21.764  0.00  0.00    -0.003 C 
ATOM      6  C   UNL     1      36.620 -18.401 -21.297  0.00  0.00    -0.003 C 
ENDROOT
BRANCH   1   7
ATOM      7  S   UNL     1      34.279 -16.638 -24.086  0.00  0.00    +0.077 S 
ATOM      8  O   UNL     1      33.011 -17.152 -24.566  0.00  0.00    -0.150 OA
ATOM      9  O   UNL     1      35.350 -16.336 -25.018  0.00  0.00    -0.150 OA
BRANCH   7  12
ATOM     10  O   UNL     1      33.133 -13.817 -24.685  0.00  0.00    -0.250 OA
ATOM     11  N   UNL     1      33.350 -13.125 -22.488  0.00  0.00    -0.230 N 
ATOM     12  N   UNL     1      34.000 -15.280 -23.088  0.00  0.00    -0.168 N 
ATOM     13  C   UNL     1      33.457 -14.029 -23.520  0.00  0.00    +0.333 C 
ATOM     14  H   UNL     1      33.633 -13.372 -21.578  0.00  0.00    +0.171 HD
ATOM     15  H   UNL     1      34.233 -15.365 -22.134  0.00  0.00    +0.178 HD
BRANCH  11  16
ATOM     16  N   UNL     1      32.838 -11.863 -22.745  0.00  0.00    -0.205 NA
ATOM     17  C   UNL     1      33.181  -8.688 -22.558  0.00  0.00    +0.002 C 
ATOM     18  C   UNL     1      31.788  -8.818 -21.955  0.00  0.00    +0.002 C 
ATOM     19  C   UNL     1      33.459  -9.617 -23.733  0.00  0.00    +0.019 C 
ATOM     20  C   UNL     1      31.203 -10.223 -21.856  0.00  0.00    +0.019 C 
ATOM     21  C   UNL     1      33.898 -11.019 -23.298  0.00  0.00    +0.092 C 
ATOM     22  C   UNL     1      32.201 -11.333 -21.535  0.00  0.00    +0.092 C 
ENDBRANCH  11  16
ENDBRANCH   7  12
ENDBRANCH   1   7
BRANCH   2  23
ATOM     23  C   UNL     1      36.513 -20.583 -20.082  0.00  0.00    +0.048 C 
BRANCH  23  24
ATOM     24  C   UNL     1      35.452 -21.161 -19.135  0.00  0.00    +0.094 C 
BRANCH  24  26
ATOM     25  O   UNL     1      34.231 -22.859 -17.217  0.00  0.00    -0.268 OA
ATOM     26  N   UNL     1      36.001 -21.527 -17.857  0.00  0.00    -0.299 N 
ATOM     27  C   UNL     1      35.333 -22.369 -16.971  0.00  0.00    +0.267 C 
ATOM     28  H   UNL     1      36.882 -21.169 -17.599  0.00  0.00    +0.150 HD
BRANCH  27  31
ATOM     29  O   UNL     1      37.558 -22.516 -14.183  0.00  0.00    -0.358 OA
ATOM     30  N   UNL     1      37.214 -22.086 -15.460  0.00  0.00    -0.073 NA
ATOM     31  C   UNL     1      36.013 -22.621 -15.692  0.00  0.00    +0.176 C 
ATOM     32  C   UNL     1      35.551 -23.391 -14.610  0.00  0.00    +0.063 C 
ATOM     33  C   UNL     1      36.560 -23.293 -13.688  0.00  0.00    +0.155 C 
ATOM     34  C   UNL     1      36.759 -23.836 -12.339  0.00  0.00    +0.075 C 
ENDBRANCH  27  31
ENDBRANCH  24  26
ENDBRANCH  23  24
ENDBRANCH   2  23
TORSDOF 7
ENDMDL
MODEL 8
REMARK VINA RESULT:     -10.2      4.337     13.178
REMARK  Name = 32778
REMARK  7 active torsions:
REMARK  status: ('A' for Active; 'I' for Inactive)
REMARK    1  A    between atoms: C_1  and  S_7
REMARK    2  A    between atoms: C_2  and  C_23
REMARK    3  A    between atoms: S_7  and  N_12
REMARK    4  A    between atoms: N_11  and  N_16
REMARK    5  A    between atoms: C_23  and  C_24
REMARK    6  A    between atoms: C_24  and  N_26
REMARK    7  A    between atoms: C_27  and  C_31
REMARK                            x       y       z     vdW  Elec       q    Type
REMARK                         _______ _______ _______ _____ _____    ______ ____
ROOT
ATOM      1  C   UNL     1      34.026 -13.963 -23.967  0.00  0.00    +0.125 C 
ATOM      2  C   UNL     1      34.958 -16.128 -22.476  0.00  0.00    -0.020 C 
ATOM      3  C   UNL     1      34.285 -15.182 -24.594  0.00  0.00    +0.020 C 
ATOM      4  C   UNL     1      34.234 -13.827 -22.595  0.00  0.00    +0.020 C 
ATOM      5  C   UNL     1      34.750 -16.265 -23.848  0.00  0.00    -0.003 C 
ATOM      6  C   UNL     1      34.699 -14.909 -21.849  0.00  0.00    -0.003 C 
ENDROOT
BRANCH   1   7
ATOM      7  S   UNL     1      33.438 -12.591 -24.914  0.00  0.00    +0.077 S 
ATOM      8  O   UNL     1      32.374 -13.062 -25.780  0.00  0.00    -0.150 OA
ATOM      9  O   UNL     1      34.606 -11.936 -25.474  0.00  0.00    -0.150 OA
BRANCH   7  12
ATOM     10  O   UNL     1      34.137  -9.729 -23.937  0.00  0.00    -0.250 OA
ATOM     11  N   UNL     1      32.488  -9.745 -22.314  0.00  0.00    -0.230 N 
ATOM     12  N   UNL     1      32.775 -11.607 -23.685  0.00  0.00    -0.168 N 
ATOM     13  C   UNL     1      33.215 -10.287 -23.349  0.00  0.00    +0.333 C 
ATOM     14  H   UNL     1      31.761 -10.258 -21.893  0.00  0.00    +0.171 HD
ATOM     15  H   UNL     1      32.027 -11.979 -23.162  0.00  0.00    +0.178 HD
BRANCH  11  16
ATOM     16  N   UNL     1      32.793  -8.467 -21.872  0.00  0.00    -0.205 NA
ATOM     17  C   UNL     1      31.898  -5.849 -20.265  0.00  0.00    +0.002 C 
ATOM     18  C   UNL     1      32.340  -5.196 -21.567  0.00  0.00    +0.002 C 
ATOM     19  C   UNL     1      32.771  -7.010 -19.803  0.00  0.00    +0.019 C 
ATOM     20  C   UNL     1      32.871  -6.116 -22.661  0.00  0.00    +0.019 C 
ATOM     21  C   UNL     1      32.401  -8.340 -20.467  0.00  0.00    +0.092 C 
ATOM     22  C   UNL     1      32.186  -7.478 -22.769  0.00  0.00    +0.092 C 
ENDBRANCH  11  16
ENDBRANCH   7  12
ENDBRANCH   1   7
BRANCH   2  23
ATOM     23  C   UNL     1      35.454 -17.287 -21.678  0.00  0.00    +0.048 C 
BRANCH  23  24
ATOM     24  C   UNL     1      35.091 -18.649 -22.284  0.00  0.00    +0.094 C 
BRANCH  24  26
ATOM     25  O   UNL     1      36.235 -19.971 -20.049  0.00  0.00    -0.268 OA
ATOM     26  N   UNL     1      34.393 -19.493 -21.352  0.00  0.00    -0.299 N 
ATOM     27  C   UNL     1      35.033 -20.107 -20.277  0.00  0.00    +0.267 C 
ATOM     28  H   UNL     1      33.428 -19.643 -21.477  0.00  0.00    +0.150 HD
BRANCH  27  31
ATOM     29  O   UNL     1      32.378 -21.831 -18.626  0.00  0.00    -0.358 OA
ATOM     30  N   UNL     1      32.858 -20.908 -19.549  0.00  0.00    -0.073 NA
ATOM     31  C   UNL     1      34.187 -20.965 -19.434  0.00  0.00    +0.176 C 
ATOM     32  C   UNL     1      34.601 -21.896 -18.466  0.00  0.00    +0.063 C 
ATOM     33  C   UNL     1      33.426 -22.411 -17.988  0.00  0.00    +0.155 C 
ATOM     34  C   UNL     1      33.098 -23.419 -16.971  0.00  0.00    +0.075 C 
ENDBRANCH  27  31
ENDBRANCH  24  26
ENDBRANCH  23  24
ENDBRANCH   2  23
TORSDOF 7
ENDMDL
MODEL 9
REMARK VINA RESULT:      -9.8      5.069     14.223
REMARK  Name = 32778
REMARK  7 active torsions:
REMARK  status: ('A' for Active; 'I' for Inactive)
REMARK    1  A    between atoms: C_1  and  S_7
REMARK    2  A    between atoms: C_2  and  C_23
REMARK    3  A    between atoms: S_7  and  N_12
REMARK    4  A    between atoms: N_11  and  N_16
REMARK    5  A    between atoms: C_23  and  C_24
REMARK    6  A    between atoms: C_24  and  N_26
REMARK    7  A    between atoms: C_27  and  C_31
REMARK                            x       y       z     vdW  Elec       q    Type
REMARK                         _______ _______ _______ _____ _____    ______ ____
ROOT
ATOM      1  C   UNL     1      32.722 -12.117 -21.574  0.00  0.00    +0.125 C 
ATOM      2  C   UNL     1      34.293 -14.105 -22.739  0.00  0.00    -0.020 C 
ATOM      3  C   UNL     1      33.096 -13.236 -20.829  0.00  0.00    +0.020 C 
ATOM      4  C   UNL     1      33.132 -11.993 -22.901  0.00  0.00    +0.020 C 
ATOM      5  C   UNL     1      33.883 -14.230 -21.412  0.00  0.00    -0.003 C 
ATOM      6  C   UNL     1      33.919 -12.987 -23.484  0.00  0.00    -0.003 C 
ENDROOT
BRANCH   1   7
ATOM      7  S   UNL     1      31.724 -10.859 -20.835  0.00  0.00    +0.077 S 
ATOM      8  O   UNL     1      31.791 -11.017 -19.395  0.00  0.00    -0.150 OA
ATOM      9  O   UNL     1      30.444 -10.883 -21.519  0.00  0.00    -0.150 OA
BRANCH   7  12
ATOM     10  O   UNL     1      31.428  -8.935 -23.253  0.00  0.00    -0.250 OA
ATOM     11  N   UNL     1      33.177  -7.590 -22.557  0.00  0.00    -0.230 N 
ATOM     12  N   UNL     1      32.581  -9.453 -21.292  0.00  0.00    -0.168 N 
ATOM     13  C   UNL     1      32.321  -8.663 -22.456  0.00  0.00    +0.333 C 
ATOM     14  H   UNL     1      33.871  -7.439 -21.874  0.00  0.00    +0.171 HD
ATOM     15  H   UNL     1      33.317  -9.161 -20.704  0.00  0.00    +0.178 HD
BRANCH  11  16
ATOM     16  N   UNL     1      33.052  -6.725 -23.633  0.00  0.00    -0.205 NA
ATOM     17  C   UNL     1      33.766  -3.906 -24.966  0.00  0.00    +0.002 C 
ATOM     18  C   UNL     1      32.252  -3.877 -25.133  0.00  0.00    +0.002 C 
ATOM     19  C   UNL     1      34.409  -5.268 -25.195  0.00  0.00    +0.019 C 
ATOM     20  C   UNL     1      31.474  -5.085 -24.620  0.00  0.00    +0.019 C 
ATOM     21  C   UNL     1      34.367  -6.167 -23.956  0.00  0.00    +0.092 C 
ATOM     22  C   UNL     1      32.017  -5.727 -23.345  0.00  0.00    +0.092 C 
ENDBRANCH  11  16
ENDBRANCH   7  12
ENDBRANCH   1   7
BRANCH   2  23
ATOM     23  C   UNL     1      35.135 -15.168 -23.362  0.00  0.00    +0.048 C 
BRANCH  23  24
ATOM     24  C   UNL     1      34.523 -16.572 -23.263  0.00  0.00    +0.094 C 
BRANCH  24  26
ATOM     25  O   UNL     1      34.271 -19.377 -22.916  0.00  0.00    -0.268 OA
ATOM     26  N   UNL     1      35.105 -17.349 -22.202  0.00  0.00    -0.299 N 
ATOM     27  C   UNL     1      34.931 -18.728 -22.105  0.00  0.00    +0.267 C 
ATOM     28  H   UNL     1      35.646 -16.890 -21.520  0.00  0.00    +0.150 HD
BRANCH  27  31
ATOM     29  O   UNL     1      37.000 -19.694 -19.361  0.00  0.00    -0.358 OA
ATOM     30  N   UNL     1      36.680 -18.856 -20.423  0.00  0.00    -0.073 NA
ATOM     31  C   UNL     1      35.564 -19.372 -20.945  0.00  0.00    +0.176 C 
ATOM     32  C   UNL     1      35.137 -20.524 -20.262  0.00  0.00    +0.063 C 
ATOM     33  C   UNL     1      36.074 -20.683 -19.276  0.00  0.00    +0.155 C 
ATOM     34  C   UNL     1      36.261 -21.666 -18.201  0.00  0.00    +0.075 C 
ENDBRANCH  27  31
ENDBRANCH  24  26
ENDBRANCH  23  24
ENDBRANCH   2  23
TORSDOF 7
ENDMDL
