MODEL 1
REMARK VINA RESULT:     -11.6      0.000      0.000
REMARK  Name = 23729147
REMARK  5 active torsions:
REMARK  status: ('A' for Active; 'I' for Inactive)
REMARK    1  A    between atoms: O_1  and  C_6
REMARK    2  A    between atoms: O_1  and  C_18
REMARK    3  A    between atoms: C_18  and  C_20
REMARK    4  A    between atoms: N_19  and  C_26
REMARK    5  A    between atoms: C_26  and  C_28
REMARK                            x       y       z     vdW  Elec       q    Type
REMARK                         _______ _______ _______ _____ _____    ______ ____
ROOT
ATOM      1  O   UNL     1      34.144 -12.759 -23.247  0.00  0.00    -0.479 OA
ENDROOT
BRANCH   1   6
ATOM      2  N   UNL     1      32.101  -8.475 -22.271  0.00  0.00    -0.332 NA
ATOM      3  N   UNL     1      33.944  -8.536 -23.823  0.00  0.00    -0.317 NA
ATOM      4  N   UNL     1      35.005 -10.540 -24.369  0.00  0.00    -0.335 N 
ATOM      5  N   UNL     1      32.890  -6.513 -23.287  0.00  0.00    -0.283 N 
ATOM      6  C   UNL     1      33.224 -11.962 -22.610  0.00  0.00    +0.130 C 
ATOM      7  C   UNL     1      33.147 -10.571 -22.788  0.00  0.00    +0.177 C 
ATOM      8  C   UNL     1      32.340 -12.604 -21.748  0.00  0.00    +0.033 C 
ATOM      9  C   UNL     1      32.185  -9.807 -22.107  0.00  0.00    +0.137 C 
ATOM     10  C   UNL     1      33.999  -9.868 -23.636  0.00  0.00    +0.181 C 
ATOM     11  C   UNL     1      31.385 -11.859 -21.067  0.00  0.00    +0.005 C 
ATOM     12  C   UNL     1      31.313 -10.475 -21.251  0.00  0.00    +0.030 C 
ATOM     13  C   UNL     1      32.985  -7.912 -23.120  0.00  0.00    +0.197 C 
ATOM     14  H   UNL     1      35.602 -10.033 -24.965  0.00  0.00    +0.144 HD
ATOM     15  H   UNL     1      35.108 -11.516 -24.285  0.00  0.00    +0.144 HD
ATOM     16  H   UNL     1      32.206  -6.004 -22.796  0.00  0.00    +0.156 HD
ATOM     17  H   UNL     1      33.509  -6.047 -23.895  0.00  0.00    +0.156 HD
ENDBRANCH   1   6
BRANCH   1  18
ATOM     18  C   UNL     1      33.651 -13.917 -23.896  0.00  0.00    +0.205 C 
BRANCH  18  20
ATOM     19  N   UNL     1      34.895 -17.744 -22.327  0.00  0.00    +0.390 N 
ATOM     20  C   UNL     1      34.552 -15.095 -23.535  0.00  0.00    +0.040 C 
ATOM     21  C   UNL     1      34.080 -16.380 -24.222  0.00  0.00    -0.019 C 
ATOM     22  C   UNL     1      34.600 -15.307 -22.018  0.00  0.00    -0.019 C 
ATOM     23  C   UNL     1      34.916 -17.585 -23.787  0.00  0.00    -0.077 C 
ATOM     24  C   UNL     1      35.420 -16.548 -21.655  0.00  0.00    -0.077 C 
ATOM     25  H   UNL     1      33.925 -17.867 -22.038  0.00  0.00    -0.079 HD
BRANCH  19  26
ATOM     26  C   UNL     1      35.657 -18.929 -21.931  0.00  0.00    -0.048 C 
BRANCH  26  28
ATOM     27  F   UNL     1      36.945 -20.529 -19.977  0.00  0.00    -0.205 F 
ATOM     28  C   UNL     1      34.907 -19.769 -20.931  0.00  0.00    -0.016 C 
ATOM     29  C   UNL     1      35.605 -20.533 -19.995  0.00  0.00    +0.134 C 
ATOM     30  C   UNL     1      33.513 -19.781 -20.942  0.00  0.00    -0.004 C 
ATOM     31  C   UNL     1      34.906 -21.312 -19.071  0.00  0.00    +0.029 C 
ATOM     32  C   UNL     1      32.815 -20.559 -20.018  0.00  0.00    -0.000 C 
ATOM     33  C   UNL     1      33.512 -21.324 -19.083  0.00  0.00    +0.002 C 
ENDBRANCH  26  28
ENDBRANCH  19  26
ENDBRANCH  18  20
ENDBRANCH   1  18
TORSDOF 5
ENDMDL
MODEL 2
REMARK VINA RESULT:     -11.4      1.630      2.505
REMARK  Name = 23729147
REMARK  5 active torsions:
REMARK  status: ('A' for Active; 'I' for Inactive)
REMARK    1  A    between atoms: O_1  and  C_6
REMARK    2  A    between atoms: O_1  and  C_18
REMARK    3  A    between atoms: C_18  and  C_20
REMARK    4  A    between atoms: N_19  and  C_26
REMARK    5  A    between atoms: C_26  and  C_28
REMARK                            x       y       z     vdW  Elec       q    Type
REMARK                         _______ _______ _______ _____ _____    ______ ____
ROOT
ATOM      1  O   UNL     1      33.474 -14.174 -22.974  0.00  0.00    -0.479 OA
ENDROOT
BRANCH   1   6
ATOM      2  N   UNL     1      32.195  -9.726 -21.536  0.00  0.00    -0.332 NA
ATOM      3  N   UNL     1      31.859 -11.562 -20.011  0.00  0.00    -0.317 NA
ATOM      4  N   UNL     1      32.437 -13.746 -20.594  0.00  0.00    -0.335 N 
ATOM      5  N   UNL     1      31.272  -9.376 -19.408  0.00  0.00    -0.283 N 
ATOM      6  C   UNL     1      33.342 -12.819 -23.166  0.00  0.00    +0.130 C 
ATOM      7  C   UNL     1      32.812 -11.947 -22.200  0.00  0.00    +0.177 C 
ATOM      8  C   UNL     1      33.767 -12.323 -24.394  0.00  0.00    +0.033 C 
ATOM      9  C   UNL     1      32.701 -10.570 -22.453  0.00  0.00    +0.137 C 
ATOM     10  C   UNL     1      32.370 -12.379 -20.952  0.00  0.00    +0.181 C 
ATOM     11  C   UNL     1      33.661 -10.962 -24.656  0.00  0.00    +0.005 C 
ATOM     12  C   UNL     1      33.133 -10.100 -23.690  0.00  0.00    +0.030 C 
ATOM     13  C   UNL     1      31.802 -10.268 -20.365  0.00  0.00    +0.197 C 
ATOM     14  H   UNL     1      32.121 -14.039 -19.709  0.00  0.00    +0.144 HD
ATOM     15  H   UNL     1      32.799 -14.404 -21.230  0.00  0.00    +0.144 HD
ATOM     16  H   UNL     1      31.206  -8.416 -19.613  0.00  0.00    +0.156 HD
ATOM     17  H   UNL     1      30.970  -9.714 -18.534  0.00  0.00    +0.156 HD
ENDBRANCH   1   6
BRANCH   1  18
ATOM     18  C   UNL     1      34.041 -14.920 -24.035  0.00  0.00    +0.205 C 
BRANCH  18  20
ATOM     19  N   UNL     1      35.118 -18.412 -21.731  0.00  0.00    +0.390 N 
ATOM     20  C   UNL     1      34.890 -16.040 -23.440  0.00  0.00    +0.040 C 
ATOM     21  C   UNL     1      34.366 -17.415 -23.866  0.00  0.00    -0.019 C 
ATOM     22  C   UNL     1      34.925 -15.952 -21.911  0.00  0.00    -0.019 C 
ATOM     23  C   UNL     1      35.150 -18.544 -23.194  0.00  0.00    -0.077 C 
ATOM     24  C   UNL     1      35.691 -17.129 -21.302  0.00  0.00    -0.077 C 
ATOM     25  H   UNL     1      34.143 -18.436 -21.434  0.00  0.00    -0.079 HD
BRANCH  19  26
ATOM     26  C   UNL     1      35.828 -19.526 -21.102  0.00  0.00    -0.048 C 
BRANCH  26  28
ATOM     27  F   UNL     1      36.791 -21.441 -19.248  0.00  0.00    -0.205 F 
ATOM     28  C   UNL     1      34.924 -20.334 -20.210  0.00  0.00    -0.016 C 
ATOM     29  C   UNL     1      35.465 -21.261 -19.319  0.00  0.00    +0.134 C 
ATOM     30  C   UNL     1      33.543 -20.155 -20.277  0.00  0.00    -0.004 C 
ATOM     31  C   UNL     1      34.624 -22.010 -18.495  0.00  0.00    +0.029 C 
ATOM     32  C   UNL     1      32.702 -20.903 -19.453  0.00  0.00    -0.000 C 
ATOM     33  C   UNL     1      33.242 -21.831 -18.562  0.00  0.00    +0.002 C 
ENDBRANCH  26  28
ENDBRANCH  19  26
ENDBRANCH  18  20
ENDBRANCH   1  18
TORSDOF 5
ENDMDL
MODEL 3
REMARK VINA RESULT:     -11.4      3.692      9.802
REMARK  Name = 23729147
REMARK  5 active torsions:
REMARK  status: ('A' for Active; 'I' for Inactive)
REMARK    1  A    between atoms: O_1  and  C_6
REMARK    2  A    between atoms: O_1  and  C_18
REMARK    3  A    between atoms: C_18  and  C_20
REMARK    4  A    between atoms: N_19  and  C_26
REMARK    5  A    between atoms: C_26  and  C_28
REMARK                            x       y       z     vdW  Elec       q    Type
REMARK                         _______ _______ _______ _____ _____    ______ ____
ROOT
ATOM      1  O   UNL     1      34.387 -19.064 -21.554  0.00  0.00    -0.479 OA
ENDROOT
BRANCH   1   6
ATOM      2  N   UNL     1      34.637 -22.303 -17.958  0.00  0.00    -0.332 NA
ATOM      3  N   UNL     1      32.476 -21.807 -18.903  0.00  0.00    -0.317 NA
ATOM      4  N   UNL     1      32.233 -20.266 -20.637  0.00  0.00    -0.335 N 
ATOM      5  N   UNL     1      32.700 -23.359 -17.161  0.00  0.00    -0.283 N 
ATOM      6  C   UNL     1      35.075 -19.800 -20.620  0.00  0.00    +0.130 C 
ATOM      7  C   UNL     1      34.459 -20.707 -19.740  0.00  0.00    +0.177 C 
ATOM      8  C   UNL     1      36.452 -19.611 -20.573  0.00  0.00    +0.033 C 
ATOM      9  C   UNL     1      35.215 -21.432 -18.804  0.00  0.00    +0.137 C 
ATOM     10  C   UNL     1      33.087 -20.944 -19.736  0.00  0.00    +0.181 C 
ATOM     11  C   UNL     1      37.211 -20.322 -19.651  0.00  0.00    +0.005 C 
ATOM     12  C   UNL     1      36.591 -21.223 -18.779  0.00  0.00    +0.030 C 
ATOM     13  C   UNL     1      33.299 -22.443 -18.053  0.00  0.00    +0.197 C 
ATOM     14  H   UNL     1      31.265 -20.443 -20.625  0.00  0.00    +0.144 HD
ATOM     15  H   UNL     1      32.608 -19.619 -21.278  0.00  0.00    +0.144 HD
ATOM     16  H   UNL     1      33.255 -23.853 -16.516  0.00  0.00    +0.156 HD
ATOM     17  H   UNL     1      31.726 -23.503 -17.186  0.00  0.00    +0.156 HD
ENDBRANCH   1   6
BRANCH   1  18
ATOM     18  C   UNL     1      34.971 -18.949 -22.838  0.00  0.00    +0.205 C 
BRANCH  18  20
ATOM     19  N   UNL     1      33.894 -14.784 -23.234  0.00  0.00    +0.390 N 
ATOM     20  C   UNL     1      35.073 -17.468 -23.193  0.00  0.00    +0.040 C 
ATOM     21  C   UNL     1      34.977 -16.592 -21.940  0.00  0.00    -0.019 C 
ATOM     22  C   UNL     1      33.984 -17.064 -24.191  0.00  0.00    -0.019 C 
ATOM     23  C   UNL     1      34.979 -15.105 -22.297  0.00  0.00    -0.077 C 
ATOM     24  C   UNL     1      34.018 -15.560 -24.475  0.00  0.00    -0.077 C 
ATOM     25  H   UNL     1      33.011 -15.038 -22.792  0.00  0.00    -0.079 HD
BRANCH  19  26
ATOM     26  C   UNL     1      33.877 -13.351 -23.526  0.00  0.00    -0.048 C 
BRANCH  26  28
ATOM     27  F   UNL     1      33.116 -10.643 -23.880  0.00  0.00    -0.205 F 
ATOM     28  C   UNL     1      33.078 -12.581 -22.508  0.00  0.00    -0.016 C 
ATOM     29  C   UNL     1      32.738 -11.249 -22.746  0.00  0.00    +0.134 C 
ATOM     30  C   UNL     1      32.680 -13.202 -21.325  0.00  0.00    -0.004 C 
ATOM     31  C   UNL     1      31.999 -10.538 -21.799  0.00  0.00    +0.029 C 
ATOM     32  C   UNL     1      31.941 -12.492 -20.378  0.00  0.00    -0.000 C 
ATOM     33  C   UNL     1      31.601 -11.160 -20.615  0.00  0.00    +0.002 C 
ENDBRANCH  26  28
ENDBRANCH  19  26
ENDBRANCH  18  20
ENDBRANCH   1  18
TORSDOF 5
ENDMDL
MODEL 4
REMARK VINA RESULT:     -11.3      5.028     10.938
REMARK  Name = 23729147
REMARK  5 active torsions:
REMARK  status: ('A' for Active; 'I' for Inactive)
REMARK    1  A    between atoms: O_1  and  C_6
REMARK    2  A    between atoms: O_1  and  C_18
REMARK    3  A    between atoms: C_18  and  C_20
REMARK    4  A    between atoms: N_19  and  C_26
REMARK    5  A    between atoms: C_26  and  C_28
REMARK                            x       y       z     vdW  Elec       q    Type
REMARK                         _______ _______ _______ _____ _____    ______ ____
ROOT
ATOM      1  O   UNL     1      35.259 -21.985 -18.419  0.00  0.00    -0.479 OA
ENDROOT
BRANCH   1   6
ATOM      2  N   UNL     1      32.485 -23.494 -14.743  0.00  0.00    -0.332 NA
ATOM      3  N   UNL     1      31.424 -23.003 -16.850  0.00  0.00    -0.317 NA
ATOM      4  N   UNL     1      32.657 -22.270 -18.689  0.00  0.00    -0.335 N 
ATOM      5  N   UNL     1      30.169 -23.739 -15.013  0.00  0.00    -0.283 N 
ATOM      6  C   UNL     1      35.071 -22.406 -17.124  0.00  0.00    +0.130 C 
ATOM      7  C   UNL     1      33.814 -22.744 -16.594  0.00  0.00    +0.177 C 
ATOM      8  C   UNL     1      36.208 -22.489 -16.327  0.00  0.00    +0.033 C 
ATOM      9  C   UNL     1      33.683 -23.168 -15.261  0.00  0.00    +0.137 C 
ATOM     10  C   UNL     1      32.638 -22.684 -17.337  0.00  0.00    +0.181 C 
ATOM     11  C   UNL     1      36.091 -22.906 -15.007  0.00  0.00    +0.005 C 
ATOM     12  C   UNL     1      34.837 -23.242 -14.486  0.00  0.00    +0.030 C 
ATOM     13  C   UNL     1      31.421 -23.394 -15.565  0.00  0.00    +0.197 C 
ATOM     14  H   UNL     1      31.819 -22.232 -19.204  0.00  0.00    +0.144 HD
ATOM     15  H   UNL     1      33.509 -22.021 -19.116  0.00  0.00    +0.144 HD
ATOM     16  H   UNL     1      30.107 -24.032 -14.077  0.00  0.00    +0.156 HD
ATOM     17  H   UNL     1      29.356 -23.686 -15.567  0.00  0.00    +0.156 HD
ENDBRANCH   1   6
BRANCH   1  18
ATOM     18  C   UNL     1      36.401 -21.189 -18.675  0.00  0.00    +0.205 C 
BRANCH  18  20
ATOM     19  N   UNL     1      35.473 -18.183 -21.635  0.00  0.00    +0.390 N 
ATOM     20  C   UNL     1      36.231 -20.521 -20.037  0.00  0.00    +0.040 C 
ATOM     21  C   UNL     1      37.125 -19.283 -20.159  0.00  0.00    -0.019 C 
ATOM     22  C   UNL     1      34.770 -20.129 -20.279  0.00  0.00    -0.019 C 
ATOM     23  C   UNL     1      36.887 -18.551 -21.482  0.00  0.00    -0.077 C 
ATOM     24  C   UNL     1      34.609 -19.369 -21.598  0.00  0.00    -0.077 C 
ATOM     25  H   UNL     1      35.218 -17.583 -20.851  0.00  0.00    -0.079 HD
BRANCH  19  26
ATOM     26  C   UNL     1      35.271 -17.440 -22.879  0.00  0.00    -0.048 C 
BRANCH  26  28
ATOM     27  F   UNL     1      34.290 -15.742 -24.926  0.00  0.00    -0.205 F 
ATOM     28  C   UNL     1      34.781 -16.039 -22.622  0.00  0.00    -0.016 C 
ATOM     29  C   UNL     1      34.311 -15.257 -23.678  0.00  0.00    +0.134 C 
ATOM     30  C   UNL     1      34.799 -15.525 -21.327  0.00  0.00    -0.004 C 
ATOM     31  C   UNL     1      33.859 -13.959 -23.436  0.00  0.00    +0.029 C 
ATOM     32  C   UNL     1      34.346 -14.228 -21.085  0.00  0.00    -0.000 C 
ATOM     33  C   UNL     1      33.877 -13.445 -22.139  0.00  0.00    +0.002 C 
ENDBRANCH  26  28
ENDBRANCH  19  26
ENDBRANCH  18  20
ENDBRANCH   1  18
TORSDOF 5
ENDMDL
MODEL 5
REMARK VINA RESULT:     -11.2      6.080     11.842
REMARK  Name = 23729147
REMARK  5 active torsions:
REMARK  status: ('A' for Active; 'I' for Inactive)
REMARK    1  A    between atoms: O_1  and  C_6
REMARK    2  A    between atoms: O_1  and  C_18
REMARK    3  A    between atoms: C_18  and  C_20
REMARK    4  A    between atoms: N_19  and  C_26
REMARK    5  A    between atoms: C_26  and  C_28
REMARK                            x       y       z     vdW  Elec       q    Type
REMARK                         _______ _______ _______ _____ _____    ______ ____
ROOT
ATOM      1  O   UNL     1      33.573 -22.756 -16.940  0.00  0.00    -0.479 OA
ENDROOT
BRANCH   1   6
ATOM      2  N   UNL     1      33.563 -24.169 -12.304  0.00  0.00    -0.332 NA
ATOM      3  N   UNL     1      35.684 -23.741 -13.366  0.00  0.00    -0.317 NA
ATOM      4  N   UNL     1      35.812 -23.056 -15.592  0.00  0.00    -0.335 N 
ATOM      5  N   UNL     1      35.576 -24.428 -11.128  0.00  0.00    -0.283 N 
ATOM      6  C   UNL     1      32.940 -23.138 -15.782  0.00  0.00    +0.130 C 
ATOM      7  C   UNL     1      33.622 -23.467 -14.597  0.00  0.00    +0.177 C 
ATOM      8  C   UNL     1      31.551 -23.193 -15.823  0.00  0.00    +0.033 C 
ATOM      9  C   UNL     1      32.921 -23.853 -13.443  0.00  0.00    +0.137 C 
ATOM     10  C   UNL     1      35.010 -23.431 -14.489  0.00  0.00    +0.181 C 
ATOM     11  C   UNL     1      30.846 -23.575 -14.687  0.00  0.00    +0.005 C 
ATOM     12  C   UNL     1      31.531 -23.899 -13.513  0.00  0.00    +0.030 C 
ATOM     13  C   UNL     1      34.910 -24.095 -12.327  0.00  0.00    +0.197 C 
ATOM     14  H   UNL     1      36.792 -23.035 -15.503  0.00  0.00    +0.144 HD
ATOM     15  H   UNL     1      35.391 -22.815 -16.448  0.00  0.00    +0.144 HD
ATOM     16  H   UNL     1      35.058 -24.695 -10.335  0.00  0.00    +0.156 HD
ATOM     17  H   UNL     1      36.559 -24.392 -11.085  0.00  0.00    +0.156 HD
ENDBRANCH   1   6
BRANCH   1  18
ATOM     18  C   UNL     1      32.770 -22.162 -17.943  0.00  0.00    +0.205 C 
BRANCH  18  20
ATOM     19  N   UNL     1      35.394 -19.695 -20.329  0.00  0.00    +0.390 N 
ATOM     20  C   UNL     1      33.675 -21.722 -19.091  0.00  0.00    +0.040 C 
ATOM     21  C   UNL     1      35.095 -21.432 -18.594  0.00  0.00    -0.019 C 
ATOM     22  C   UNL     1      33.111 -20.484 -19.794  0.00  0.00    -0.019 C 
ATOM     23  C   UNL     1      35.982 -20.896 -19.719  0.00  0.00    -0.077 C 
ATOM     24  C   UNL     1      34.063 -19.978 -20.881  0.00  0.00    -0.077 C 
ATOM     25  H   UNL     1      35.289 -18.991 -19.599  0.00  0.00    -0.079 HD
BRANCH  19  26
ATOM     26  C   UNL     1      36.277 -19.165 -21.368  0.00  0.00    -0.048 C 
BRANCH  26  28
ATOM     27  F   UNL     1      35.059 -19.749 -23.860  0.00  0.00    -0.205 F 
ATOM     28  C   UNL     1      35.589 -18.125 -22.211  0.00  0.00    -0.016 C 
ATOM     29  C   UNL     1      35.010 -18.482 -23.429  0.00  0.00    +0.134 C 
ATOM     30  C   UNL     1      35.532 -16.803 -21.772  0.00  0.00    -0.004 C 
ATOM     31  C   UNL     1      34.374 -17.514 -24.209  0.00  0.00    +0.029 C 
ATOM     32  C   UNL     1      34.896 -15.836 -22.551  0.00  0.00    -0.000 C 
ATOM     33  C   UNL     1      34.317 -16.191 -23.770  0.00  0.00    +0.002 C 
ENDBRANCH  26  28
ENDBRANCH  19  26
ENDBRANCH  18  20
ENDBRANCH   1  18
TORSDOF 5
ENDMDL
MODEL 6
REMARK VINA RESULT:     -11.0      1.145      1.482
REMARK  Name = 23729147
REMARK  5 active torsions:
REMARK  status: ('A' for Active; 'I' for Inactive)
REMARK    1  A    between atoms: O_1  and  C_6
REMARK    2  A    between atoms: O_1  and  C_18
REMARK    3  A    between atoms: C_18  and  C_20
REMARK    4  A    between atoms: N_19  and  C_26
REMARK    5  A    between atoms: C_26  and  C_28
REMARK                            x       y       z     vdW  Elec       q    Type
REMARK                         _______ _______ _______ _____ _____    ______ ____
ROOT
ATOM      1  O   UNL     1      34.307 -13.360 -22.981  0.00  0.00    -0.479 OA
ENDROOT
BRANCH   1   6
ATOM      2  N   UNL     1      31.704  -9.391 -22.004  0.00  0.00    -0.332 NA
ATOM      3  N   UNL     1      33.219  -9.333 -23.877  0.00  0.00    -0.317 NA
ATOM      4  N   UNL     1      34.523 -11.182 -24.442  0.00  0.00    -0.335 N 
ATOM      5  N   UNL     1      31.917  -7.465 -23.324  0.00  0.00    -0.283 N 
ATOM      6  C   UNL     1      33.383 -12.656 -22.247  0.00  0.00    +0.130 C 
ATOM      7  C   UNL     1      33.015 -11.330 -22.530  0.00  0.00    +0.177 C 
ATOM      8  C   UNL     1      32.802 -13.327 -21.175  0.00  0.00    +0.033 C 
ATOM      9  C   UNL     1      32.064 -10.661 -21.742  0.00  0.00    +0.137 C 
ATOM     10  C   UNL     1      33.556 -10.604 -23.587  0.00  0.00    +0.181 C 
ATOM     11  C   UNL     1      31.860 -12.674 -20.388  0.00  0.00    +0.005 C 
ATOM     12  C   UNL     1      31.499 -11.355 -20.676  0.00  0.00    +0.030 C 
ATOM     13  C   UNL     1      32.301  -8.797 -23.057  0.00  0.00    +0.197 C 
ATOM     14  H   UNL     1      34.898 -10.659 -25.187  0.00  0.00    +0.144 HD
ATOM     15  H   UNL     1      34.820 -12.109 -24.294  0.00  0.00    +0.144 HD
ATOM     16  H   UNL     1      31.249  -7.021 -22.756  0.00  0.00    +0.156 HD
ATOM     17  H   UNL     1      32.320  -6.980 -24.082  0.00  0.00    +0.156 HD
ENDBRANCH   1   6
BRANCH   1  18
ATOM     18  C   UNL     1      33.860 -14.546 -23.610  0.00  0.00    +0.205 C 
BRANCH  18  20
ATOM     19  N   UNL     1      35.173 -18.306 -21.937  0.00  0.00    +0.390 N 
ATOM     20  C   UNL     1      34.784 -15.690 -23.203  0.00  0.00    +0.040 C 
ATOM     21  C   UNL     1      34.371 -17.001 -23.879  0.00  0.00    -0.019 C 
ATOM     22  C   UNL     1      34.795 -15.874 -21.682  0.00  0.00    -0.019 C 
ATOM     23  C   UNL     1      35.231 -18.172 -23.399  0.00  0.00    -0.077 C 
ATOM     24  C   UNL     1      35.642 -17.082 -21.273  0.00  0.00    -0.077 C 
ATOM     25  H   UNL     1      34.199 -18.454 -21.673  0.00  0.00    -0.079 HD
BRANCH  19  26
ATOM     26  C   UNL     1      35.959 -19.459 -21.498  0.00  0.00    -0.048 C 
BRANCH  26  28
ATOM     27  F   UNL     1      33.137 -19.728 -21.435  0.00  0.00    -0.205 F 
ATOM     28  C   UNL     1      35.232 -20.268 -20.456  0.00  0.00    -0.016 C 
ATOM     29  C   UNL     1      33.840 -20.358 -20.484  0.00  0.00    +0.134 C 
ATOM     30  C   UNL     1      35.954 -20.926 -19.462  0.00  0.00    -0.004 C 
ATOM     31  C   UNL     1      33.171 -21.107 -19.515  0.00  0.00    +0.029 C 
ATOM     32  C   UNL     1      35.285 -21.675 -18.494  0.00  0.00    -0.000 C 
ATOM     33  C   UNL     1      33.893 -21.765 -18.520  0.00  0.00    +0.002 C 
ENDBRANCH  26  28
ENDBRANCH  19  26
ENDBRANCH  18  20
ENDBRANCH   1  18
TORSDOF 5
ENDMDL
MODEL 7
REMARK VINA RESULT:     -10.5      6.321     11.740
REMARK  Name = 23729147
REMARK  5 active torsions:
REMARK  status: ('A' for Active; 'I' for Inactive)
REMARK    1  A    between atoms: O_1  and  C_6
REMARK    2  A    between atoms: O_1  and  C_18
REMARK    3  A    between atoms: C_18  and  C_20
REMARK    4  A    between atoms: N_19  and  C_26
REMARK    5  A    between atoms: C_26  and  C_28
REMARK                            x       y       z     vdW  Elec       q    Type
REMARK                         _______ _______ _______ _____ _____    ______ ____
ROOT
ATOM      1  O   UNL     1      33.534 -22.306 -17.255  0.00  0.00    -0.479 OA
ENDROOT
BRANCH   1   6
ATOM      2  N   UNL     1      32.513 -24.474 -13.043  0.00  0.00    -0.332 NA
ATOM      3  N   UNL     1      30.681 -23.815 -14.464  0.00  0.00    -0.317 NA
ATOM      4  N   UNL     1      31.052 -22.765 -16.513  0.00  0.00    -0.335 N 
ATOM      5  N   UNL     1      30.290 -24.870 -12.409  0.00  0.00    -0.283 N 
ATOM      6  C   UNL     1      33.893 -22.897 -16.067  0.00  0.00    +0.130 C 
ATOM      7  C   UNL     1      32.965 -23.398 -15.138  0.00  0.00    +0.177 C 
ATOM      8  C   UNL     1      35.257 -22.985 -15.806  0.00  0.00    +0.033 C 
ATOM      9  C   UNL     1      33.392 -23.991 -13.939  0.00  0.00    +0.137 C 
ATOM     10  C   UNL     1      31.588 -23.342 -15.339  0.00  0.00    +0.181 C 
ATOM     11  C   UNL     1      35.691 -23.569 -14.622  0.00  0.00    +0.005 C 
ATOM     12  C   UNL     1      34.762 -24.066 -13.703  0.00  0.00    +0.030 C 
ATOM     13  C   UNL     1      31.205 -24.360 -13.354  0.00  0.00    +0.197 C 
ATOM     14  H   UNL     1      30.077 -22.731 -16.644  0.00  0.00    +0.144 HD
ATOM     15  H   UNL     1      31.653 -22.397 -17.201  0.00  0.00    +0.144 HD
ATOM     16  H   UNL     1      30.617 -25.280 -11.577  0.00  0.00    +0.156 HD
ATOM     17  H   UNL     1      29.321 -24.815 -12.582  0.00  0.00    +0.156 HD
ENDBRANCH   1   6
BRANCH   1  18
ATOM     18  C   UNL     1      33.837 -23.015 -18.442  0.00  0.00    +0.205 C 
BRANCH  18  20
ATOM     19  N   UNL     1      35.523 -19.384 -20.066  0.00  0.00    +0.390 N 
ATOM     20  C   UNL     1      34.447 -22.040 -19.446  0.00  0.00    +0.040 C 
ATOM     21  C   UNL     1      35.844 -21.594 -19.002  0.00  0.00    -0.019 C 
ATOM     22  C   UNL     1      33.550 -20.814 -19.638  0.00  0.00    -0.019 C 
ATOM     23  C   UNL     1      36.421 -20.541 -19.951  0.00  0.00    -0.077 C 
ATOM     24  C   UNL     1      34.202 -19.786 -20.566  0.00  0.00    -0.077 C 
ATOM     25  H   UNL     1      35.399 -18.988 -19.135  0.00  0.00    -0.079 HD
BRANCH  19  26
ATOM     26  C   UNL     1      36.111 -18.365 -20.936  0.00  0.00    -0.048 C 
BRANCH  26  28
ATOM     27  F   UNL     1      35.351 -15.863 -22.030  0.00  0.00    -0.205 F 
ATOM     28  C   UNL     1      35.355 -18.229 -22.231  0.00  0.00    -0.016 C 
ATOM     29  C   UNL     1      35.012 -16.965 -22.712  0.00  0.00    +0.134 C 
ATOM     30  C   UNL     1      34.997 -19.370 -22.948  0.00  0.00    -0.004 C 
ATOM     31  C   UNL     1      34.310 -16.843 -23.912  0.00  0.00    +0.029 C 
ATOM     32  C   UNL     1      34.295 -19.248 -24.148  0.00  0.00    -0.000 C 
ATOM     33  C   UNL     1      33.951 -17.985 -24.629  0.00  0.00    +0.002 C 
ENDBRANCH  26  28
ENDBRANCH  19  26
ENDBRANCH  18  20
ENDBRANCH   1  18
TORSDOF 5
ENDMDL
MODEL 8
REMARK VINA RESULT:     -10.5      5.210     11.310
REMARK  Name = 23729147
REMARK  5 active torsions:
REMARK  status: ('A' for Active; 'I' for Inactive)
REMARK    1  A    between atoms: O_1  and  C_6
REMARK    2  A    between atoms: O_1  and  C_18
REMARK    3  A    between atoms: C_18  and  C_20
REMARK    4  A    between atoms: N_19  and  C_26
REMARK    5  A    between atoms: C_26  and  C_28
REMARK                            x       y       z     vdW  Elec       q    Type
REMARK                         _______ _______ _______ _____ _____    ______ ____
ROOT
ATOM      1  O   UNL     1      34.963 -22.082 -17.900  0.00  0.00    -0.479 OA
ENDROOT
BRANCH   1   6
ATOM      2  N   UNL     1      35.547 -23.579 -13.328  0.00  0.00    -0.332 NA
ATOM      3  N   UNL     1      37.458 -22.683 -14.491  0.00  0.00    -0.317 NA
ATOM      4  N   UNL     1      37.297 -21.933 -16.693  0.00  0.00    -0.335 N 
ATOM      5  N   UNL     1      37.639 -23.433 -12.278  0.00  0.00    -0.283 N 
ATOM      6  C   UNL     1      34.501 -22.619 -16.723  0.00  0.00    +0.130 C 
ATOM      7  C   UNL     1      35.310 -22.824 -15.593  0.00  0.00    +0.177 C 
ATOM      8  C   UNL     1      33.154 -22.968 -16.687  0.00  0.00    +0.033 C 
ATOM      9  C   UNL     1      34.781 -23.379 -14.416  0.00  0.00    +0.137 C 
ATOM     10  C   UNL     1      36.664 -22.497 -15.562  0.00  0.00    +0.181 C 
ATOM     11  C   UNL     1      32.620 -23.518 -15.528  0.00  0.00    +0.005 C 
ATOM     12  C   UNL     1      33.431 -23.718 -14.408  0.00  0.00    +0.030 C 
ATOM     13  C   UNL     1      36.843 -23.220 -13.425  0.00  0.00    +0.197 C 
ATOM     14  H   UNL     1      38.254 -21.706 -16.660  0.00  0.00    +0.144 HD
ATOM     15  H   UNL     1      36.781 -21.766 -17.515  0.00  0.00    +0.144 HD
ATOM     16  H   UNL     1      37.241 -23.824 -11.468  0.00  0.00    +0.156 HD
ATOM     17  H   UNL     1      38.593 -23.189 -12.290  0.00  0.00    +0.156 HD
ENDBRANCH   1   6
BRANCH   1  18
ATOM     18  C   UNL     1      34.033 -21.962 -18.960  0.00  0.00    +0.205 C 
BRANCH  18  20
ATOM     19  N   UNL     1      35.457 -18.543 -21.183  0.00  0.00    +0.390 N 
ATOM     20  C   UNL     1      34.674 -21.143 -20.077  0.00  0.00    +0.040 C 
ATOM     21  C   UNL     1      35.886 -20.361 -19.562  0.00  0.00    -0.019 C 
ATOM     22  C   UNL     1      33.662 -20.177 -20.701  0.00  0.00    -0.019 C 
ATOM     23  C   UNL     1      36.474 -19.461 -20.650  0.00  0.00    -0.077 C 
ATOM     24  C   UNL     1      34.323 -19.282 -21.753  0.00  0.00    -0.077 C 
ATOM     25  H   UNL     1      35.108 -17.978 -20.410  0.00  0.00    -0.079 HD
BRANCH  19  26
ATOM     26  C   UNL     1      36.046 -17.656 -22.186  0.00  0.00    -0.048 C 
BRANCH  26  28
ATOM     27  F   UNL     1      35.127 -16.783 -24.722  0.00  0.00    -0.205 F 
ATOM     28  C   UNL     1      35.226 -16.407 -22.379  0.00  0.00    -0.016 C 
ATOM     29  C   UNL     1      34.806 -16.035 -23.657  0.00  0.00    +0.134 C 
ATOM     30  C   UNL     1      34.888 -15.622 -21.278  0.00  0.00    -0.004 C 
ATOM     31  C   UNL     1      34.048 -14.877 -23.832  0.00  0.00    +0.029 C 
ATOM     32  C   UNL     1      34.129 -14.465 -21.453  0.00  0.00    -0.000 C 
ATOM     33  C   UNL     1      33.710 -14.092 -22.730  0.00  0.00    +0.002 C 
ENDBRANCH  26  28
ENDBRANCH  19  26
ENDBRANCH  18  20
ENDBRANCH   1  18
TORSDOF 5
ENDMDL
MODEL 9
REMARK VINA RESULT:     -10.3      1.483      2.641
REMARK  Name = 23729147
REMARK  5 active torsions:
REMARK  status: ('A' for Active; 'I' for Inactive)
REMARK    1  A    between atoms: O_1  and  C_6
REMARK    2  A    between atoms: O_1  and  C_18
REMARK    3  A    between atoms: C_18  and  C_20
REMARK    4  A    between atoms: N_19  and  C_26
REMARK    5  A    between atoms: C_26  and  C_28
REMARK                            x       y       z     vdW  Elec       q    Type
REMARK                         _______ _______ _______ _____ _____    ______ ____
ROOT
ATOM      1  O   UNL     1      32.792 -11.853 -23.256  0.00  0.00    -0.479 OA
ENDROOT
BRANCH   1   6
ATOM      2  N   UNL     1      33.452  -7.087 -22.684  0.00  0.00    -0.332 NA
ATOM      3  N   UNL     1      31.658  -8.146 -21.473  0.00  0.00    -0.317 NA
ATOM      4  N   UNL     1      31.245 -10.433 -21.669  0.00  0.00    -0.335 N 
ATOM      5  N   UNL     1      32.058  -5.847 -21.262  0.00  0.00    -0.283 N 
ATOM      6  C   UNL     1      33.446 -10.672 -23.511  0.00  0.00    +0.130 C 
ATOM      7  C   UNL     1      33.084  -9.444 -22.932  0.00  0.00    +0.177 C 
ATOM      8  C   UNL     1      34.518 -10.736 -24.395  0.00  0.00    +0.033 C 
ATOM      9  C   UNL     1      33.790  -8.267 -23.232  0.00  0.00    +0.137 C 
ATOM     10  C   UNL     1      32.023  -9.312 -22.039  0.00  0.00    +0.181 C 
ATOM     11  C   UNL     1      35.224  -9.578 -24.701  0.00  0.00    +0.005 C 
ATOM     12  C   UNL     1      34.858  -8.360 -24.120  0.00  0.00    +0.030 C 
ATOM     13  C   UNL     1      32.405  -7.090 -21.834  0.00  0.00    +0.197 C 
ATOM     14  H   UNL     1      30.498 -10.327 -21.037  0.00  0.00    +0.144 HD
ATOM     15  H   UNL     1      31.452 -11.321 -22.042  0.00  0.00    +0.144 HD
ATOM     16  H   UNL     1      32.571  -5.039 -21.491  0.00  0.00    +0.156 HD
ATOM     17  H   UNL     1      31.302  -5.789 -20.633  0.00  0.00    +0.156 HD
ENDBRANCH   1   6
BRANCH   1  18
ATOM     18  C   UNL     1      33.148 -12.542 -22.071  0.00  0.00    +0.205 C 
BRANCH  18  20
ATOM     19  N   UNL     1      34.584 -16.548 -22.810  0.00  0.00    +0.390 N 
ATOM     20  C   UNL     1      34.094 -13.681 -22.439  0.00  0.00    +0.040 C 
ATOM     21  C   UNL     1      33.581 -14.453 -23.659  0.00  0.00    -0.019 C 
ATOM     22  C   UNL     1      34.282 -14.643 -21.261  0.00  0.00    -0.019 C 
ATOM     23  C   UNL     1      34.471 -15.657 -23.972  0.00  0.00    -0.077 C 
ATOM     24  C   UNL     1      35.149 -15.841 -21.653  0.00  0.00    -0.077 C 
ATOM     25  H   UNL     1      33.646 -16.860 -22.560  0.00  0.00    -0.079 HD
BRANCH  19  26
ATOM     26  C   UNL     1      35.396 -17.719 -23.141  0.00  0.00    -0.048 C 
BRANCH  26  28
ATOM     27  F   UNL     1      37.795 -18.238 -21.723  0.00  0.00    -0.205 F 
ATOM     28  C   UNL     1      35.479 -18.687 -21.990  0.00  0.00    -0.016 C 
ATOM     29  C   UNL     1      36.693 -18.895 -21.336  0.00  0.00    +0.134 C 
ATOM     30  C   UNL     1      34.339 -19.376 -21.580  0.00  0.00    -0.004 C 
ATOM     31  C   UNL     1      36.767 -19.794 -20.270  0.00  0.00    +0.029 C 
ATOM     32  C   UNL     1      34.411 -20.274 -20.515  0.00  0.00    -0.000 C 
ATOM     33  C   UNL     1      35.626 -20.483 -19.860  0.00  0.00    +0.002 C 
ENDBRANCH  26  28
ENDBRANCH  19  26
ENDBRANCH  18  20
ENDBRANCH   1  18
TORSDOF 5
ENDMDL
