MODEL 1
REMARK VINA RESULT:     -10.9      0.000      0.000
REMARK  Name = 5288250
REMARK  9 active torsions:
REMARK  status: ('A' for Active; 'I' for Inactive)
REMARK    1  A    between atoms: C_1  and  N_3
REMARK    2  A    between atoms: C_1  and  C_20
REMARK    3  A    between atoms: C_1  and  C_23
REMARK    4  A    between atoms: C_4  and  C_6
REMARK    5  A    between atoms: C_6  and  C_10
REMARK    6  A    between atoms: C_20  and  O_21
REMARK    7  A    between atoms: C_23  and  C_24
REMARK    8  A    between atoms: C_29  and  C_30
REMARK    9  A    between atoms: C_31  and  C_32
REMARK                            x       y       z     vdW  Elec       q    Type
REMARK                         _______ _______ _______ _____ _____    ______ ____
ROOT
ATOM      1  C   UNL     1      33.925 -23.342 -14.477  0.00  0.00    +0.176 C 
ENDROOT
BRANCH   1   3
ATOM      2  O   UNL     1      36.748 -22.708 -14.393  0.00  0.00    -0.275 OA
ATOM      3  N   UNL     1      34.967 -24.079 -13.799  0.00  0.00    -0.297 N 
ATOM      4  C   UNL     1      36.300 -23.695 -13.815  0.00  0.00    +0.223 C 
ATOM      5  H   UNL     1      34.719 -24.891 -13.301  0.00  0.00    +0.150 HD
BRANCH   4   6
ATOM      6  C   UNL     1      37.157 -24.655 -13.017  0.00  0.00    +0.087 C 
BRANCH   6  10
ATOM      7  N   UNL     1      38.618 -27.700 -14.769  0.00  0.00    -0.282 N 
ATOM      8  N   UNL     1      37.169 -27.943 -16.513  0.00  0.00    -0.331 N 
ATOM      9  N   UNL     1      38.813 -29.579 -16.145  0.00  0.00    -0.273 NA
ATOM     10  C   UNL     1      38.102 -25.463 -13.903  0.00  0.00    +0.029 C 
ATOM     11  C   UNL     1      39.549 -25.354 -13.399  0.00  0.00    +0.004 C 
ATOM     12  C   UNL     1      37.664 -26.933 -13.970  0.00  0.00    +0.094 C 
ATOM     13  C   UNL     1      40.486 -26.215 -14.243  0.00  0.00    +0.022 C 
ATOM     14  C   UNL     1      40.004 -27.661 -14.307  0.00  0.00    +0.093 C 
ATOM     15  C   UNL     1      38.231 -28.460 -15.819  0.00  0.00    +0.174 C 
ATOM     16  H   UNL     1      36.761 -27.093 -16.229  0.00  0.00    +0.145 HD
ATOM     17  H   UNL     1      36.813 -28.422 -17.296  0.00  0.00    +0.145 HD
ATOM     18  H   UNL     1      39.574 -29.910 -15.615  0.00  0.00    +0.189 HD
ENDBRANCH   6  10
ENDBRANCH   4   6
ENDBRANCH   1   3
BRANCH   1  20
ATOM     19  O   UNL     1      32.525 -23.790 -12.560  0.00  0.00    -0.248 OA
ATOM     20  C   UNL     1      32.662 -23.218 -13.637  0.00  0.00    +0.335 C 
BRANCH  20  21
ATOM     21  O   UNL     1      31.725 -22.427 -14.231  0.00  0.00    -0.443 OA
ATOM     22  C   UNL     1      30.417 -22.996 -14.351  0.00  0.00    +0.256 C 
ENDBRANCH  20  21
ENDBRANCH   1  20
BRANCH   1  23
ATOM     23  C   UNL     1      33.638 -23.932 -15.866  0.00  0.00    +0.057 C 
BRANCH  23  24
ATOM     24  C   UNL     1      33.807 -22.960 -17.012  0.00  0.00    -0.020 C 
ATOM     25  C   UNL     1      35.085 -22.593 -17.433  0.00  0.00    -0.004 C 
ATOM     26  C   UNL     1      32.685 -22.430 -17.649  0.00  0.00    -0.004 C 
ATOM     27  C   UNL     1      35.242 -21.696 -18.490  0.00  0.00    +0.008 C 
ATOM     28  C   UNL     1      32.840 -21.534 -18.706  0.00  0.00    +0.008 C 
ATOM     29  C   UNL     1      34.119 -21.167 -19.127  0.00  0.00    +0.042 C 
BRANCH  29  30
ATOM     30  C   UNL     1      34.279 -20.248 -20.209  0.00  0.00    -0.060 C 
ATOM     31  C   UNL     1      34.414 -19.474 -21.117  0.00  0.00    -0.060 C 
BRANCH  31  32
ATOM     32  C   UNL     1      34.575 -18.553 -22.201  0.00  0.00    +0.042 C 
ATOM     33  C   UNL     1      35.232 -17.341 -21.993  0.00  0.00    +0.008 C 
ATOM     34  C   UNL     1      34.074 -18.868 -23.464  0.00  0.00    +0.008 C 
ATOM     35  C   UNL     1      35.390 -16.442 -23.048  0.00  0.00    +0.001 C 
ATOM     36  C   UNL     1      34.232 -17.969 -24.520  0.00  0.00    +0.001 C 
ATOM     37  C   UNL     1      34.889 -16.756 -24.311  0.00  0.00    +0.000 C 
ENDBRANCH  31  32
ENDBRANCH  29  30
ENDBRANCH  23  24
ENDBRANCH   1  23
TORSDOF 9
ENDMDL
MODEL 2
REMARK VINA RESULT:     -10.6      2.469      5.788
REMARK  Name = 5288250
REMARK  9 active torsions:
REMARK  status: ('A' for Active; 'I' for Inactive)
REMARK    1  A    between atoms: C_1  and  N_3
REMARK    2  A    between atoms: C_1  and  C_20
REMARK    3  A    between atoms: C_1  and  C_23
REMARK    4  A    between atoms: C_4  and  C_6
REMARK    5  A    between atoms: C_6  and  C_10
REMARK    6  A    between atoms: C_20  and  O_21
REMARK    7  A    between atoms: C_23  and  C_24
REMARK    8  A    between atoms: C_29  and  C_30
REMARK    9  A    between atoms: C_31  and  C_32
REMARK                            x       y       z     vdW  Elec       q    Type
REMARK                         _______ _______ _______ _____ _____    ______ ____
ROOT
ATOM      1  C   UNL     1      35.489 -24.839 -15.048  0.00  0.00    +0.176 C 
ENDROOT
BRANCH   1   3
ATOM      2  O   UNL     1      35.203 -23.400 -12.554  0.00  0.00    -0.275 OA
ATOM      3  N   UNL     1      34.276 -24.636 -14.290  0.00  0.00    -0.297 N 
ATOM      4  C   UNL     1      34.237 -23.927 -13.098  0.00  0.00    +0.223 C 
ATOM      5  H   UNL     1      33.437 -25.017 -14.637  0.00  0.00    +0.150 HD
BRANCH   4   6
ATOM      6  C   UNL     1      32.832 -23.876 -12.536  0.00  0.00    +0.087 C 
BRANCH   6  10
ATOM      7  N   UNL     1      30.018 -23.277 -15.027  0.00  0.00    -0.282 N 
ATOM      8  N   UNL     1      31.175 -22.441 -16.806  0.00  0.00    -0.331 N 
ATOM      9  N   UNL     1      28.828 -22.461 -16.866  0.00  0.00    -0.273 NA
ATOM     10  C   UNL     1      31.775 -24.206 -13.588  0.00  0.00    +0.029 C 
ATOM     11  C   UNL     1      30.754 -25.212 -13.037  0.00  0.00    +0.004 C 
ATOM     12  C   UNL     1      31.069 -22.931 -14.071  0.00  0.00    +0.094 C 
ATOM     13  C   UNL     1      29.657 -25.493 -14.063  0.00  0.00    +0.022 C 
ATOM     14  C   UNL     1      28.998 -24.201 -14.538  0.00  0.00    +0.093 C 
ATOM     15  C   UNL     1      29.951 -22.716 -16.257  0.00  0.00    +0.174 C 
ATOM     16  H   UNL     1      31.998 -22.651 -16.308  0.00  0.00    +0.145 HD
ATOM     17  H   UNL     1      31.232 -22.031 -17.700  0.00  0.00    +0.145 HD
ATOM     18  H   UNL     1      27.972 -22.677 -16.429  0.00  0.00    +0.189 HD
ENDBRANCH   6  10
ENDBRANCH   4   6
ENDBRANCH   1   3
BRANCH   1  20
ATOM     19  O   UNL     1      36.796 -26.035 -13.405  0.00  0.00    -0.248 OA
ATOM     20  C   UNL     1      36.306 -26.015 -14.530  0.00  0.00    +0.335 C 
BRANCH  20  21
ATOM     21  O   UNL     1      36.434 -27.002 -15.460  0.00  0.00    -0.443 OA
ATOM     22  C   UNL     1      37.663 -27.734 -15.424  0.00  0.00    +0.256 C 
ENDBRANCH  20  21
ENDBRANCH   1  20
BRANCH   1  23
ATOM     23  C   UNL     1      36.320 -23.551 -15.129  0.00  0.00    +0.057 C 
BRANCH  23  24
ATOM     24  C   UNL     1      36.076 -22.717 -16.367  0.00  0.00    -0.020 C 
ATOM     25  C   UNL     1      37.092 -21.910 -16.877  0.00  0.00    -0.004 C 
ATOM     26  C   UNL     1      34.833 -22.757 -17.000  0.00  0.00    -0.004 C 
ATOM     27  C   UNL     1      36.866 -21.141 -18.019  0.00  0.00    +0.008 C 
ATOM     28  C   UNL     1      34.607 -21.989 -18.142  0.00  0.00    +0.008 C 
ATOM     29  C   UNL     1      35.623 -21.181 -18.651  0.00  0.00    +0.042 C 
BRANCH  29  30
ATOM     30  C   UNL     1      35.392 -20.393 -19.821  0.00  0.00    -0.060 C 
ATOM     31  C   UNL     1      35.195 -19.731 -20.803  0.00  0.00    -0.060 C 
BRANCH  31  32
ATOM     32  C   UNL     1      34.962 -18.941 -21.974  0.00  0.00    +0.042 C 
ATOM     33  C   UNL     1      34.328 -19.505 -23.080  0.00  0.00    +0.008 C 
ATOM     34  C   UNL     1      35.372 -17.608 -22.008  0.00  0.00    +0.008 C 
ATOM     35  C   UNL     1      34.101 -18.736 -24.221  0.00  0.00    +0.001 C 
ATOM     36  C   UNL     1      35.145 -16.839 -23.149  0.00  0.00    +0.001 C 
ATOM     37  C   UNL     1      34.510 -17.403 -24.256  0.00  0.00    +0.000 C 
ENDBRANCH  31  32
ENDBRANCH  29  30
ENDBRANCH  23  24
ENDBRANCH   1  23
TORSDOF 9
ENDMDL
MODEL 3
REMARK VINA RESULT:     -10.5      0.981      1.583
REMARK  Name = 5288250
REMARK  9 active torsions:
REMARK  status: ('A' for Active; 'I' for Inactive)
REMARK    1  A    between atoms: C_1  and  N_3
REMARK    2  A    between atoms: C_1  and  C_20
REMARK    3  A    between atoms: C_1  and  C_23
REMARK    4  A    between atoms: C_4  and  C_6
REMARK    5  A    between atoms: C_6  and  C_10
REMARK    6  A    between atoms: C_20  and  O_21
REMARK    7  A    between atoms: C_23  and  C_24
REMARK    8  A    between atoms: C_29  and  C_30
REMARK    9  A    between atoms: C_31  and  C_32
REMARK                            x       y       z     vdW  Elec       q    Type
REMARK                         _______ _______ _______ _____ _____    ______ ____
ROOT
ATOM      1  C   UNL     1      34.649 -23.419 -14.072  0.00  0.00    +0.176 C 
ENDROOT
BRANCH   1   3
ATOM      2  O   UNL     1      37.431 -22.622 -14.125  0.00  0.00    -0.275 OA
ATOM      3  N   UNL     1      35.721 -23.933 -13.252  0.00  0.00    -0.297 N 
ATOM      4  C   UNL     1      37.031 -23.486 -13.350  0.00  0.00    +0.223 C 
ATOM      5  H   UNL     1      35.512 -24.633 -12.592  0.00  0.00    +0.150 HD
BRANCH   4   6
ATOM      6  C   UNL     1      37.929 -24.204 -12.364  0.00  0.00    +0.087 C 
BRANCH   6  10
ATOM      7  N   UNL     1      38.096 -27.262 -14.622  0.00  0.00    -0.282 N 
ATOM      8  N   UNL     1      39.962 -26.801 -15.851  0.00  0.00    -0.331 N 
ATOM      9  N   UNL     1      38.648 -28.666 -16.407  0.00  0.00    -0.273 NA
ATOM     10  C   UNL     1      38.211 -25.646 -12.780  0.00  0.00    +0.029 C 
ATOM     11  C   UNL     1      37.421 -26.630 -11.904  0.00  0.00    +0.004 C 
ATOM     12  C   UNL     1      37.882 -25.861 -14.264  0.00  0.00    +0.094 C 
ATOM     13  C   UNL     1      37.649 -28.070 -12.360  0.00  0.00    +0.022 C 
ATOM     14  C   UNL     1      37.336 -28.237 -13.844  0.00  0.00    +0.093 C 
ATOM     15  C   UNL     1      38.886 -27.626 -15.659  0.00  0.00    +0.174 C 
ATOM     16  H   UNL     1      40.101 -26.027 -15.260  0.00  0.00    +0.145 HD
ATOM     17  H   UNL     1      40.597 -26.983 -16.581  0.00  0.00    +0.145 HD
ATOM     18  H   UNL     1      37.860 -29.230 -16.230  0.00  0.00    +0.189 HD
ENDBRANCH   6  10
ENDBRANCH   4   6
ENDBRANCH   1   3
BRANCH   1  20
ATOM     19  O   UNL     1      33.084 -24.243 -12.426  0.00  0.00    -0.248 OA
ATOM     20  C   UNL     1      33.298 -23.495 -13.376  0.00  0.00    +0.335 C 
BRANCH  20  21
ATOM     21  O   UNL     1      32.380 -22.661 -13.940  0.00  0.00    -0.443 OA
ATOM     22  C   UNL     1      31.236 -23.297 -14.518  0.00  0.00    +0.256 C 
ENDBRANCH  20  21
ENDBRANCH   1  20
BRANCH   1  23
ATOM     23  C   UNL     1      34.625 -24.097 -15.451  0.00  0.00    +0.057 C 
BRANCH  23  24
ATOM     24  C   UNL     1      34.639 -23.143 -16.624  0.00  0.00    -0.020 C 
ATOM     25  C   UNL     1      35.809 -22.460 -16.955  0.00  0.00    -0.004 C 
ATOM     26  C   UNL     1      33.481 -22.947 -17.377  0.00  0.00    -0.004 C 
ATOM     27  C   UNL     1      35.821 -21.580 -18.037  0.00  0.00    +0.008 C 
ATOM     28  C   UNL     1      33.493 -22.068 -18.460  0.00  0.00    +0.008 C 
ATOM     29  C   UNL     1      34.663 -21.384 -18.790  0.00  0.00    +0.042 C 
BRANCH  29  30
ATOM     30  C   UNL     1      34.676 -20.482 -19.898  0.00  0.00    -0.060 C 
ATOM     31  C   UNL     1      34.685 -19.726 -20.830  0.00  0.00    -0.060 C 
BRANCH  31  32
ATOM     32  C   UNL     1      34.697 -18.823 -21.941  0.00  0.00    +0.042 C 
ATOM     33  C   UNL     1      34.117 -19.200 -23.151  0.00  0.00    +0.008 C 
ATOM     34  C   UNL     1      35.289 -17.566 -21.811  0.00  0.00    +0.008 C 
ATOM     35  C   UNL     1      34.128 -18.320 -24.234  0.00  0.00    +0.001 C 
ATOM     36  C   UNL     1      35.300 -16.687 -22.894  0.00  0.00    +0.001 C 
ATOM     37  C   UNL     1      34.720 -17.064 -24.105  0.00  0.00    +0.000 C 
ENDBRANCH  31  32
ENDBRANCH  29  30
ENDBRANCH  23  24
ENDBRANCH   1  23
TORSDOF 9
ENDMDL
MODEL 4
REMARK VINA RESULT:     -10.0      5.921      9.694
REMARK  Name = 5288250
REMARK  9 active torsions:
REMARK  status: ('A' for Active; 'I' for Inactive)
REMARK    1  A    between atoms: C_1  and  N_3
REMARK    2  A    between atoms: C_1  and  C_20
REMARK    3  A    between atoms: C_1  and  C_23
REMARK    4  A    between atoms: C_4  and  C_6
REMARK    5  A    between atoms: C_6  and  C_10
REMARK    6  A    between atoms: C_20  and  O_21
REMARK    7  A    between atoms: C_23  and  C_24
REMARK    8  A    between atoms: C_29  and  C_30
REMARK    9  A    between atoms: C_31  and  C_32
REMARK                            x       y       z     vdW  Elec       q    Type
REMARK                         _______ _______ _______ _____ _____    ______ ____
ROOT
ATOM      1  C   UNL     1      34.347 -17.948 -23.318  0.00  0.00    +0.176 C 
ENDROOT
BRANCH   1   3
ATOM      2  O   UNL     1      35.235 -17.415 -20.616  0.00  0.00    -0.275 OA
ATOM      3  N   UNL     1      35.150 -18.805 -22.476  0.00  0.00    -0.297 N 
ATOM      4  C   UNL     1      35.528 -18.461 -21.186  0.00  0.00    +0.223 C 
ATOM      5  H   UNL     1      35.443 -19.674 -22.835  0.00  0.00    +0.150 HD
BRANCH   4   6
ATOM      6  C   UNL     1      36.360 -19.555 -20.550  0.00  0.00    +0.087 C 
BRANCH   6  10
ATOM      7  N   UNL     1      35.738 -22.057 -17.752  0.00  0.00    -0.282 N 
ATOM      8  N   UNL     1      37.096 -21.234 -16.114  0.00  0.00    -0.331 N 
ATOM      9  N   UNL     1      36.014 -23.292 -15.787  0.00  0.00    -0.273 NA
ATOM     10  C   UNL     1      35.638 -20.229 -19.385  0.00  0.00    +0.029 C 
ATOM     11  C   UNL     1      34.252 -20.728 -19.819  0.00  0.00    +0.004 C 
ATOM     12  C   UNL     1      36.475 -21.385 -18.820  0.00  0.00    +0.094 C 
ATOM     13  C   UNL     1      33.555 -21.463 -18.675  0.00  0.00    +0.022 C 
ATOM     14  C   UNL     1      34.428 -22.586 -18.124  0.00  0.00    +0.093 C 
ATOM     15  C   UNL     1      36.267 -22.246 -16.521  0.00  0.00    +0.174 C 
ATOM     16  H   UNL     1      37.258 -20.463 -16.704  0.00  0.00    +0.145 HD
ATOM     17  H   UNL     1      37.530 -21.279 -15.232  0.00  0.00    +0.145 HD
ATOM     18  H   UNL     1      35.411 -23.995 -16.123  0.00  0.00    +0.189 HD
ENDBRANCH   6  10
ENDBRANCH   4   6
ENDBRANCH   1   3
BRANCH   1  20
ATOM     19  O   UNL     1      33.932 -19.850 -24.751  0.00  0.00    -0.248 OA
ATOM     20  C   UNL     1      33.594 -18.727 -24.388  0.00  0.00    +0.335 C 
BRANCH  20  21
ATOM     21  O   UNL     1      32.538 -18.025 -24.888  0.00  0.00    -0.443 OA
ATOM     22  C   UNL     1      31.503 -18.808 -25.491  0.00  0.00    +0.256 C 
ENDBRANCH  20  21
ENDBRANCH   1  20
BRANCH   1  23
ATOM     23  C   UNL     1      35.185 -16.809 -23.917  0.00  0.00    +0.057 C 
BRANCH  23  24
ATOM     24  C   UNL     1      34.659 -15.420 -23.632  0.00  0.00    -0.020 C 
ATOM     25  C   UNL     1      33.995 -14.706 -24.629  0.00  0.00    -0.004 C 
ATOM     26  C   UNL     1      34.837 -14.853 -22.369  0.00  0.00    -0.004 C 
ATOM     27  C   UNL     1      33.510 -13.425 -24.365  0.00  0.00    +0.008 C 
ATOM     28  C   UNL     1      34.351 -13.573 -22.105  0.00  0.00    +0.008 C 
ATOM     29  C   UNL     1      33.688 -12.859 -23.103  0.00  0.00    +0.042 C 
BRANCH  29  30
ATOM     30  C   UNL     1      33.192 -11.546 -22.833  0.00  0.00    -0.060 C 
ATOM     31  C   UNL     1      32.775 -10.444 -22.604  0.00  0.00    -0.060 C 
BRANCH  31  32
ATOM     32  C   UNL     1      32.279  -9.129 -22.333  0.00  0.00    +0.042 C 
ATOM     33  C   UNL     1      31.729  -8.366 -23.362  0.00  0.00    +0.008 C 
ATOM     34  C   UNL     1      32.347  -8.611 -21.040  0.00  0.00    +0.008 C 
ATOM     35  C   UNL     1      31.245  -7.084 -23.099  0.00  0.00    +0.001 C 
ATOM     36  C   UNL     1      31.863  -7.329 -20.777  0.00  0.00    +0.001 C 
ATOM     37  C   UNL     1      31.313  -6.566 -21.807  0.00  0.00    +0.000 C 
ENDBRANCH  31  32
ENDBRANCH  29  30
ENDBRANCH  23  24
ENDBRANCH   1  23
TORSDOF 9
ENDMDL
MODEL 5
REMARK VINA RESULT:      -9.6      6.586     12.322
REMARK  Name = 5288250
REMARK  9 active torsions:
REMARK  status: ('A' for Active; 'I' for Inactive)
REMARK    1  A    between atoms: C_1  and  N_3
REMARK    2  A    between atoms: C_1  and  C_20
REMARK    3  A    between atoms: C_1  and  C_23
REMARK    4  A    between atoms: C_4  and  C_6
REMARK    5  A    between atoms: C_6  and  C_10
REMARK    6  A    between atoms: C_20  and  O_21
REMARK    7  A    between atoms: C_23  and  C_24
REMARK    8  A    between atoms: C_29  and  C_30
REMARK    9  A    between atoms: C_31  and  C_32
REMARK                            x       y       z     vdW  Elec       q    Type
REMARK                         _______ _______ _______ _____ _____    ______ ____
ROOT
ATOM      1  C   UNL     1      35.711 -18.413 -22.473  0.00  0.00    +0.176 C 
ENDROOT
BRANCH   1   3
ATOM      2  O   UNL     1      35.559 -15.611 -23.183  0.00  0.00    -0.275 OA
ATOM      3  N   UNL     1      35.129 -17.344 -21.695  0.00  0.00    -0.297 N 
ATOM      4  C   UNL     1      35.103 -16.024 -22.121  0.00  0.00    +0.223 C 
ATOM      5  H   UNL     1      34.731 -17.564 -20.821  0.00  0.00    +0.150 HD
BRANCH   4   6
ATOM      6  C   UNL     1      34.428 -15.133 -21.100  0.00  0.00    +0.087 C 
BRANCH   6  10
ATOM      7  N   UNL     1      33.518 -12.039 -23.119  0.00  0.00    -0.282 N 
ATOM      8  N   UNL     1      33.722 -12.828 -25.250  0.00  0.00    -0.331 N 
ATOM      9  N   UNL     1      33.319 -10.541 -24.902  0.00  0.00    -0.273 NA
ATOM     10  C   UNL     1      33.539 -14.075 -21.751  0.00  0.00    +0.029 C 
ATOM     11  C   UNL     1      32.702 -13.341 -20.694  0.00  0.00    +0.004 C 
ATOM     12  C   UNL     1      34.381 -13.078 -22.560  0.00  0.00    +0.094 C 
ATOM     13  C   UNL     1      31.862 -12.236 -21.334  0.00  0.00    +0.022 C 
ATOM     14  C   UNL     1      32.730 -11.282 -22.149  0.00  0.00    +0.093 C 
ATOM     15  C   UNL     1      33.511 -11.743 -24.440  0.00  0.00    +0.174 C 
ATOM     16  H   UNL     1      33.862 -13.718 -24.855  0.00  0.00    +0.145 HD
ATOM     17  H   UNL     1      33.734 -12.716 -26.228  0.00  0.00    +0.145 HD
ATOM     18  H   UNL     1      33.172  -9.792 -24.279  0.00  0.00    +0.189 HD
ENDBRANCH   6  10
ENDBRANCH   4   6
ENDBRANCH   1   3
BRANCH   1  20
ATOM     19  O   UNL     1      34.915 -20.133 -23.973  0.00  0.00    -0.248 OA
ATOM     20  C   UNL     1      34.705 -19.059 -23.416  0.00  0.00    +0.335 C 
BRANCH  20  21
ATOM     21  O   UNL     1      33.584 -18.301 -23.570  0.00  0.00    -0.443 OA
ATOM     22  C   UNL     1      32.794 -18.588 -24.728  0.00  0.00    +0.256 C 
ENDBRANCH  20  21
ENDBRANCH   1  20
BRANCH   1  23
ATOM     23  C   UNL     1      36.402 -19.448 -21.573  0.00  0.00    +0.057 C 
BRANCH  23  24
ATOM     24  C   UNL     1      35.488 -20.133 -20.581  0.00  0.00    -0.020 C 
ATOM     25  C   UNL     1      34.112 -19.915 -20.635  0.00  0.00    -0.004 C 
ATOM     26  C   UNL     1      36.022 -20.983 -19.613  0.00  0.00    -0.004 C 
ATOM     27  C   UNL     1      33.269 -20.547 -19.720  0.00  0.00    +0.008 C 
ATOM     28  C   UNL     1      35.180 -21.616 -18.699  0.00  0.00    +0.008 C 
ATOM     29  C   UNL     1      33.803 -21.397 -18.752  0.00  0.00    +0.042 C 
BRANCH  29  30
ATOM     30  C   UNL     1      32.940 -22.044 -17.815  0.00  0.00    -0.060 C 
ATOM     31  C   UNL     1      32.215 -22.586 -17.026  0.00  0.00    -0.060 C 
BRANCH  31  32
ATOM     32  C   UNL     1      31.350 -23.232 -16.086  0.00  0.00    +0.042 C 
ATOM     33  C   UNL     1      29.968 -23.173 -16.257  0.00  0.00    +0.008 C 
ATOM     34  C   UNL     1      31.891 -23.920 -15.000  0.00  0.00    +0.008 C 
ATOM     35  C   UNL     1      29.124 -23.803 -15.342  0.00  0.00    +0.001 C 
ATOM     36  C   UNL     1      31.047 -24.550 -14.084  0.00  0.00    +0.001 C 
ATOM     37  C   UNL     1      29.664 -24.490 -14.256  0.00  0.00    +0.000 C 
ENDBRANCH  31  32
ENDBRANCH  29  30
ENDBRANCH  23  24
ENDBRANCH   1  23
TORSDOF 9
ENDMDL
MODEL 6
REMARK VINA RESULT:      -9.6      6.337     12.338
REMARK  Name = 5288250
REMARK  9 active torsions:
REMARK  status: ('A' for Active; 'I' for Inactive)
REMARK    1  A    between atoms: C_1  and  N_3
REMARK    2  A    between atoms: C_1  and  C_20
REMARK    3  A    between atoms: C_1  and  C_23
REMARK    4  A    between atoms: C_4  and  C_6
REMARK    5  A    between atoms: C_6  and  C_10
REMARK    6  A    between atoms: C_20  and  O_21
REMARK    7  A    between atoms: C_23  and  C_24
REMARK    8  A    between atoms: C_29  and  C_30
REMARK    9  A    between atoms: C_31  and  C_32
REMARK                            x       y       z     vdW  Elec       q    Type
REMARK                         _______ _______ _______ _____ _____    ______ ____
ROOT
ATOM      1  C   UNL     1      35.648 -18.229 -21.377  0.00  0.00    +0.176 C 
ENDROOT
BRANCH   1   3
ATOM      2  O   UNL     1      34.856 -15.511 -20.778  0.00  0.00    -0.275 OA
ATOM      3  N   UNL     1      35.251 -17.207 -22.317  0.00  0.00    -0.297 N 
ATOM      4  C   UNL     1      34.886 -15.925 -21.934  0.00  0.00    +0.223 C 
ATOM      5  H   UNL     1      35.239 -17.431 -23.276  0.00  0.00    +0.150 HD
BRANCH   4   6
ATOM      6  C   UNL     1      34.524 -15.076 -23.134  0.00  0.00    +0.087 C 
BRANCH   6  10
ATOM      7  N   UNL     1      32.384 -12.154 -21.969  0.00  0.00    -0.282 N 
ATOM      8  N   UNL     1      32.329 -12.517 -19.718  0.00  0.00    -0.331 N 
ATOM      9  N   UNL     1      31.004 -10.813 -20.642  0.00  0.00    -0.273 NA
ATOM     10  C   UNL     1      34.174 -13.641 -22.746  0.00  0.00    +0.029 C 
ATOM     11  C   UNL     1      34.425 -12.682 -23.919  0.00  0.00    +0.004 C 
ATOM     12  C   UNL     1      32.717 -13.544 -22.273  0.00  0.00    +0.094 C 
ATOM     13  C   UNL     1      34.012 -11.257 -23.556  0.00  0.00    +0.022 C 
ATOM     14  C   UNL     1      32.568 -11.206 -23.066  0.00  0.00    +0.093 C 
ATOM     15  C   UNL     1      31.865 -11.782 -20.776  0.00  0.00    +0.174 C 
ATOM     16  H   UNL     1      32.980 -13.240 -19.868  0.00  0.00    +0.145 HD
ATOM     17  H   UNL     1      32.011 -12.323 -18.807  0.00  0.00    +0.145 HD
ATOM     18  H   UNL     1      30.699 -10.313 -21.434  0.00  0.00    +0.189 HD
ENDBRANCH   6  10
ENDBRANCH   4   6
ENDBRANCH   1   3
BRANCH   1  20
ATOM     19  O   UNL     1      37.916 -18.627 -22.109  0.00  0.00    -0.248 OA
ATOM     20  C   UNL     1      37.159 -18.300 -21.201  0.00  0.00    +0.335 C 
BRANCH  20  21
ATOM     21  O   UNL     1      37.545 -17.980 -19.934  0.00  0.00    -0.443 OA
ATOM     22  C   UNL     1      37.564 -19.062 -18.998  0.00  0.00    +0.256 C 
ENDBRANCH  20  21
ENDBRANCH   1  20
BRANCH   1  23
ATOM     23  C   UNL     1      35.048 -19.594 -21.747  0.00  0.00    +0.057 C 
BRANCH  23  24
ATOM     24  C   UNL     1      34.414 -20.339 -20.594  0.00  0.00    -0.020 C 
ATOM     25  C   UNL     1      33.054 -20.187 -20.327  0.00  0.00    -0.004 C 
ATOM     26  C   UNL     1      35.191 -21.180 -19.797  0.00  0.00    -0.004 C 
ATOM     27  C   UNL     1      32.470 -20.874 -19.263  0.00  0.00    +0.008 C 
ATOM     28  C   UNL     1      34.607 -21.868 -18.733  0.00  0.00    +0.008 C 
ATOM     29  C   UNL     1      33.247 -21.715 -18.466  0.00  0.00    +0.042 C 
BRANCH  29  30
ATOM     30  C   UNL     1      32.649 -22.419 -17.376  0.00  0.00    -0.060 C 
ATOM     31  C   UNL     1      32.144 -23.009 -16.460  0.00  0.00    -0.060 C 
BRANCH  31  32
ATOM     32  C   UNL     1      31.544 -23.714 -15.368  0.00  0.00    +0.042 C 
ATOM     33  C   UNL     1      32.276 -23.951 -14.205  0.00  0.00    +0.008 C 
ATOM     34  C   UNL     1      30.227 -24.163 -15.468  0.00  0.00    +0.008 C 
ATOM     35  C   UNL     1      31.692 -24.638 -13.141  0.00  0.00    +0.001 C 
ATOM     36  C   UNL     1      29.643 -24.850 -14.404  0.00  0.00    +0.001 C 
ATOM     37  C   UNL     1      30.376 -25.088 -13.241  0.00  0.00    +0.000 C 
ENDBRANCH  31  32
ENDBRANCH  29  30
ENDBRANCH  23  24
ENDBRANCH   1  23
TORSDOF 9
ENDMDL
MODEL 7
REMARK VINA RESULT:      -9.6      3.054      6.140
REMARK  Name = 5288250
REMARK  9 active torsions:
REMARK  status: ('A' for Active; 'I' for Inactive)
REMARK    1  A    between atoms: C_1  and  N_3
REMARK    2  A    between atoms: C_1  and  C_20
REMARK    3  A    between atoms: C_1  and  C_23
REMARK    4  A    between atoms: C_4  and  C_6
REMARK    5  A    between atoms: C_6  and  C_10
REMARK    6  A    between atoms: C_20  and  O_21
REMARK    7  A    between atoms: C_23  and  C_24
REMARK    8  A    between atoms: C_29  and  C_30
REMARK    9  A    between atoms: C_31  and  C_32
REMARK                            x       y       z     vdW  Elec       q    Type
REMARK                         _______ _______ _______ _____ _____    ______ ____
ROOT
ATOM      1  C   UNL     1      36.334 -23.849 -12.240  0.00  0.00    +0.176 C 
ENDROOT
BRANCH   1   3
ATOM      2  O   UNL     1      33.697 -25.016 -11.987  0.00  0.00    -0.275 OA
ATOM      3  N   UNL     1      35.069 -23.232 -12.568  0.00  0.00    -0.297 N 
ATOM      4  C   UNL     1      33.849 -23.874 -12.411  0.00  0.00    +0.223 C 
ATOM      5  H   UNL     1      35.074 -22.312 -12.917  0.00  0.00    +0.150 HD
BRANCH   4   6
ATOM      6  C   UNL     1      32.702 -22.980 -12.831  0.00  0.00    +0.087 C 
BRANCH   6  10
ATOM      7  N   UNL     1      29.790 -23.375 -15.249  0.00  0.00    -0.282 N 
ATOM      8  N   UNL     1      30.637 -22.390 -17.124  0.00  0.00    -0.331 N 
ATOM      9  N   UNL     1      28.388 -23.064 -17.093  0.00  0.00    -0.273 NA
ATOM     10  C   UNL     1      31.761 -23.669 -13.817  0.00  0.00    +0.029 C 
ATOM     11  C   UNL     1      31.071 -24.874 -13.160  0.00  0.00    +0.004 C 
ATOM     12  C   UNL     1      30.720 -22.680 -14.360  0.00  0.00    +0.094 C 
ATOM     13  C   UNL     1      30.078 -25.524 -14.123  0.00  0.00    +0.022 C 
ATOM     14  C   UNL     1      29.077 -24.506 -14.659  0.00  0.00    +0.093 C 
ATOM     15  C   UNL     1      29.548 -22.950 -16.510  0.00  0.00    +0.174 C 
ATOM     16  H   UNL     1      31.494 -22.326 -16.644  0.00  0.00    +0.145 HD
ATOM     17  H   UNL     1      30.562 -22.050 -18.045  0.00  0.00    +0.145 HD
ATOM     18  H   UNL     1      27.634 -23.474 -16.610  0.00  0.00    +0.189 HD
ENDBRANCH   6  10
ENDBRANCH   4   6
ENDBRANCH   1   3
BRANCH   1  20
ATOM     19  O   UNL     1      37.956 -22.080 -11.963  0.00  0.00    -0.248 OA
ATOM     20  C   UNL     1      37.240 -22.926 -11.437  0.00  0.00    +0.335 C 
BRANCH  20  21
ATOM     21  O   UNL     1      37.166 -23.170 -10.098  0.00  0.00    -0.443 OA
ATOM     22  C   UNL     1      36.326 -24.262  -9.711  0.00  0.00    +0.256 C 
ENDBRANCH  20  21
ENDBRANCH   1  20
BRANCH   1  23
ATOM     23  C   UNL     1      37.033 -24.391 -13.496  0.00  0.00    +0.057 C 
BRANCH  23  24
ATOM     24  C   UNL     1      36.798 -23.579 -14.750  0.00  0.00    -0.020 C 
ATOM     25  C   UNL     1      35.541 -23.575 -15.354  0.00  0.00    -0.004 C 
ATOM     26  C   UNL     1      37.839 -22.832 -15.301  0.00  0.00    -0.004 C 
ATOM     27  C   UNL     1      35.325 -22.825 -16.511  0.00  0.00    +0.008 C 
ATOM     28  C   UNL     1      37.624 -22.082 -16.457  0.00  0.00    +0.008 C 
ATOM     29  C   UNL     1      36.367 -22.079 -17.062  0.00  0.00    +0.042 C 
BRANCH  29  30
ATOM     30  C   UNL     1      36.145 -21.312 -18.247  0.00  0.00    -0.060 C 
ATOM     31  C   UNL     1      35.960 -20.666 -19.242  0.00  0.00    -0.060 C 
BRANCH  31  32
ATOM     32  C   UNL     1      35.739 -19.897 -20.429  0.00  0.00    +0.042 C 
ATOM     33  C   UNL     1      36.743 -19.058 -20.913  0.00  0.00    +0.008 C 
ATOM     34  C   UNL     1      34.520 -19.986 -21.101  0.00  0.00    +0.008 C 
ATOM     35  C   UNL     1      36.529 -18.308 -22.069  0.00  0.00    +0.001 C 
ATOM     36  C   UNL     1      34.306 -19.236 -22.258  0.00  0.00    +0.001 C 
ATOM     37  C   UNL     1      35.310 -18.397 -22.741  0.00  0.00    +0.000 C 
ENDBRANCH  31  32
ENDBRANCH  29  30
ENDBRANCH  23  24
ENDBRANCH   1  23
TORSDOF 9
ENDMDL
MODEL 8
REMARK VINA RESULT:      -8.9     10.939     16.875
REMARK  Name = 5288250
REMARK  9 active torsions:
REMARK  status: ('A' for Active; 'I' for Inactive)
REMARK    1  A    between atoms: C_1  and  N_3
REMARK    2  A    between atoms: C_1  and  C_20
REMARK    3  A    between atoms: C_1  and  C_23
REMARK    4  A    between atoms: C_4  and  C_6
REMARK    5  A    between atoms: C_6  and  C_10
REMARK    6  A    between atoms: C_20  and  O_21
REMARK    7  A    between atoms: C_23  and  C_24
REMARK    8  A    between atoms: C_29  and  C_30
REMARK    9  A    between atoms: C_31  and  C_32
REMARK                            x       y       z     vdW  Elec       q    Type
REMARK                         _______ _______ _______ _____ _____    ______ ____
ROOT
ATOM      1  C   UNL     1      33.698 -10.335 -23.744  0.00  0.00    +0.176 C 
ENDROOT
BRANCH   1   3
ATOM      2  O   UNL     1      32.265  -9.388 -21.414  0.00  0.00    -0.275 OA
ATOM      3  N   UNL     1      32.512  -9.510 -23.722  0.00  0.00    -0.297 N 
ATOM      4  C   UNL     1      31.893  -9.103 -22.549  0.00  0.00    +0.223 C 
ATOM      5  H   UNL     1      32.126  -9.221 -24.581  0.00  0.00    +0.150 HD
BRANCH   4   6
ATOM      6  C   UNL     1      30.678  -8.247 -22.839  0.00  0.00    +0.087 C 
BRANCH   6  10
ATOM      7  N   UNL     1      31.984  -4.686 -23.144  0.00  0.00    -0.282 N 
ATOM      8  N   UNL     1      30.553  -3.823 -24.697  0.00  0.00    -0.331 N 
ATOM      9  N   UNL     1      32.385  -2.541 -23.982  0.00  0.00    -0.273 NA
ATOM     10  C   UNL     1      30.901  -6.782 -22.470  0.00  0.00    +0.029 C 
ATOM     11  C   UNL     1      31.584  -6.662 -21.100  0.00  0.00    +0.004 C 
ATOM     12  C   UNL     1      31.727  -6.067 -23.549  0.00  0.00    +0.094 C 
ATOM     13  C   UNL     1      31.869  -5.201 -20.758  0.00  0.00    +0.022 C 
ATOM     14  C   UNL     1      32.668  -4.519 -21.864  0.00  0.00    +0.093 C 
ATOM     15  C   UNL     1      31.678  -3.634 -23.939  0.00  0.00    +0.174 C 
ATOM     16  H   UNL     1      30.050  -4.667 -24.631  0.00  0.00    +0.145 HD
ATOM     17  H   UNL     1      30.247  -3.114 -25.309  0.00  0.00    +0.145 HD
ATOM     18  H   UNL     1      33.188  -2.452 -23.417  0.00  0.00    +0.189 HD
ENDBRANCH   6  10
ENDBRANCH   4   6
ENDBRANCH   1   3
BRANCH   1  20
ATOM     19  O   UNL     1      35.488  -9.730 -25.249  0.00  0.00    -0.248 OA
ATOM     20  C   UNL     1      34.937  -9.559 -24.166  0.00  0.00    +0.335 C 
BRANCH  20  21
ATOM     21  O   UNL     1      35.352  -8.688 -23.203  0.00  0.00    -0.443 OA
ATOM     22  C   UNL     1      34.954  -7.326 -23.384  0.00  0.00    +0.256 C 
ENDBRANCH  20  21
ENDBRANCH   1  20
BRANCH   1  23
ATOM     23  C   UNL     1      33.487 -11.593 -24.600  0.00  0.00    +0.057 C 
BRANCH  23  24
ATOM     24  C   UNL     1      33.848 -12.892 -23.914  0.00  0.00    -0.020 C 
ATOM     25  C   UNL     1      33.841 -14.086 -24.633  0.00  0.00    -0.004 C 
ATOM     26  C   UNL     1      34.188 -12.894 -22.561  0.00  0.00    -0.004 C 
ATOM     27  C   UNL     1      34.173 -15.284 -24.000  0.00  0.00    +0.008 C 
ATOM     28  C   UNL     1      34.520 -14.091 -21.928  0.00  0.00    +0.008 C 
ATOM     29  C   UNL     1      34.513 -15.286 -22.647  0.00  0.00    +0.042 C 
BRANCH  29  30
ATOM     30  C   UNL     1      34.852 -16.513 -21.998  0.00  0.00    -0.060 C 
ATOM     31  C   UNL     1      35.139 -17.544 -21.452  0.00  0.00    -0.060 C 
BRANCH  31  32
ATOM     32  C   UNL     1      35.479 -18.772 -20.801  0.00  0.00    +0.042 C 
ATOM     33  C   UNL     1      36.804 -19.036 -20.460  0.00  0.00    +0.008 C 
ATOM     34  C   UNL     1      34.484 -19.705 -20.510  0.00  0.00    +0.008 C 
ATOM     35  C   UNL     1      37.137 -20.233 -19.825  0.00  0.00    +0.001 C 
ATOM     36  C   UNL     1      34.816 -20.903 -19.876  0.00  0.00    +0.001 C 
ATOM     37  C   UNL     1      36.143 -21.166 -19.534  0.00  0.00    +0.000 C 
ENDBRANCH  31  32
ENDBRANCH  29  30
ENDBRANCH  23  24
ENDBRANCH   1  23
TORSDOF 9
ENDMDL
MODEL 9
REMARK VINA RESULT:      -8.8      6.524     12.537
REMARK  Name = 5288250
REMARK  9 active torsions:
REMARK  status: ('A' for Active; 'I' for Inactive)
REMARK    1  A    between atoms: C_1  and  N_3
REMARK    2  A    between atoms: C_1  and  C_20
REMARK    3  A    between atoms: C_1  and  C_23
REMARK    4  A    between atoms: C_4  and  C_6
REMARK    5  A    between atoms: C_6  and  C_10
REMARK    6  A    between atoms: C_20  and  O_21
REMARK    7  A    between atoms: C_23  and  C_24
REMARK    8  A    between atoms: C_29  and  C_30
REMARK    9  A    between atoms: C_31  and  C_32
REMARK                            x       y       z     vdW  Elec       q    Type
REMARK                         _______ _______ _______ _____ _____    ______ ____
ROOT
ATOM      1  C   UNL     1      35.610 -18.195 -21.427  0.00  0.00    +0.176 C 
ENDROOT
BRANCH   1   3
ATOM      2  O   UNL     1      34.873 -15.435 -20.966  0.00  0.00    -0.275 OA
ATOM      3  N   UNL     1      35.358 -17.180 -22.423  0.00  0.00    -0.297 N 
ATOM      4  C   UNL     1      35.009 -15.875 -22.104  0.00  0.00    +0.223 C 
ATOM      5  H   UNL     1      35.439 -17.425 -23.373  0.00  0.00    +0.150 HD
BRANCH   4   6
ATOM      6  C   UNL     1      34.813 -15.040 -23.352  0.00  0.00    +0.087 C 
BRANCH   6  10
ATOM      7  N   UNL     1      33.480 -11.491 -23.032  0.00  0.00    -0.282 N 
ATOM      8  N   UNL     1      33.358 -10.867 -25.223  0.00  0.00    -0.331 N 
ATOM      9  N   UNL     1      32.940  -9.276 -23.547  0.00  0.00    -0.273 NA
ATOM     10  C   UNL     1      33.794 -13.921 -23.147  0.00  0.00    +0.029 C 
ATOM     11  C   UNL     1      33.117 -14.046 -21.774  0.00  0.00    +0.004 C 
ATOM     12  C   UNL     1      34.457 -12.545 -23.298  0.00  0.00    +0.094 C 
ATOM     13  C   UNL     1      32.146 -12.890 -21.537  0.00  0.00    +0.022 C 
ATOM     14  C   UNL     1      32.835 -11.541 -21.722  0.00  0.00    +0.093 C 
ATOM     15  C   UNL     1      33.245 -10.489 -23.911  0.00  0.00    +0.174 C 
ATOM     16  H   UNL     1      33.591 -11.796 -25.450  0.00  0.00    +0.145 HD
ATOM     17  H   UNL     1      33.205 -10.208 -25.939  0.00  0.00    +0.145 HD
ATOM     18  H   UNL     1      32.871  -9.052 -22.591  0.00  0.00    +0.189 HD
ENDBRANCH   6  10
ENDBRANCH   4   6
ENDBRANCH   1   3
BRANCH   1  20
ATOM     19  O   UNL     1      37.908 -18.681 -21.994  0.00  0.00    -0.248 OA
ATOM     20  C   UNL     1      37.094 -18.364 -21.132  0.00  0.00    +0.335 C 
BRANCH  20  21
ATOM     21  O   UNL     1      37.387 -18.140 -19.820  0.00  0.00    -0.443 OA
ATOM     22  C   UNL     1      37.589 -19.310 -19.021  0.00  0.00    +0.256 C 
ENDBRANCH  20  21
ENDBRANCH   1  20
BRANCH   1  23
ATOM     23  C   UNL     1      34.944 -19.527 -21.806  0.00  0.00    +0.057 C 
BRANCH  23  24
ATOM     24  C   UNL     1      34.336 -20.282 -20.645  0.00  0.00    -0.020 C 
ATOM     25  C   UNL     1      32.973 -20.167 -20.374  0.00  0.00    -0.004 C 
ATOM     26  C   UNL     1      35.140 -21.094 -19.845  0.00  0.00    -0.004 C 
ATOM     27  C   UNL     1      32.413 -20.863 -19.303  0.00  0.00    +0.008 C 
ATOM     28  C   UNL     1      34.580 -21.791 -18.774  0.00  0.00    +0.008 C 
ATOM     29  C   UNL     1      33.217 -21.675 -18.503  0.00  0.00    +0.042 C 
BRANCH  29  30
ATOM     30  C   UNL     1      32.643 -22.388 -17.406  0.00  0.00    -0.060 C 
ATOM     31  C   UNL     1      32.162 -22.988 -16.483  0.00  0.00    -0.060 C 
BRANCH  31  32
ATOM     32  C   UNL     1      31.588 -23.702 -15.384  0.00  0.00    +0.042 C 
ATOM     33  C   UNL     1      32.360 -23.985 -14.258  0.00  0.00    +0.008 C 
ATOM     34  C   UNL     1      30.257 -24.115 -15.439  0.00  0.00    +0.008 C 
ATOM     35  C   UNL     1      31.802 -24.681 -13.185  0.00  0.00    +0.001 C 
ATOM     36  C   UNL     1      29.698 -24.811 -14.367  0.00  0.00    +0.001 C 
ATOM     37  C   UNL     1      30.471 -25.094 -13.240  0.00  0.00    +0.000 C 
ENDBRANCH  31  32
ENDBRANCH  29  30
ENDBRANCH  23  24
ENDBRANCH   1  23
TORSDOF 9
ENDMDL
