MODEL 1
REMARK VINA RESULT:     -11.9      0.000      0.000
REMARK  Name = 204109
REMARK  5 active torsions:
REMARK  status: ('A' for Active; 'I' for Inactive)
REMARK    1  A    between atoms: C_1  and  C_20
REMARK    2  A    between atoms: C_9  and  O_11
REMARK    3  A    between atoms: O_11  and  C_12
REMARK    4  A    between atoms: C_12  and  C_14
REMARK    5  A    between atoms: C_20  and  C_25
REMARK                            x       y       z     vdW  Elec       q    Type
REMARK                         _______ _______ _______ _____ _____    ______ ____
ROOT
ATOM      1  C   UNL     1      33.783 -22.721 -17.376  0.00  0.00    -0.021 C 
ATOM      2  C   UNL     1      33.660 -21.200 -19.270  0.00  0.00    -0.000 C 
ATOM      3  C   UNL     1      33.037 -22.056 -18.349  0.00  0.00    -0.004 C 
ATOM      4  C   UNL     1      35.061 -21.015 -19.203  0.00  0.00    +0.003 C 
ATOM      5  C   UNL     1      35.161 -22.539 -17.310  0.00  0.00    -0.004 C 
ATOM      6  C   UNL     1      35.798 -21.690 -18.217  0.00  0.00    -0.000 C 
ATOM      7  C   UNL     1      35.686 -20.157 -20.124  0.00  0.00    +0.037 C 
ATOM      8  C   UNL     1      32.924 -20.523 -20.256  0.00  0.00    +0.003 C 
ATOM      9  C   UNL     1      34.938 -19.493 -21.098  0.00  0.00    +0.139 C 
ATOM     10  C   UNL     1      33.560 -19.675 -21.163  0.00  0.00    +0.037 C 
ENDROOT
BRANCH   9  11
ATOM     11  O   UNL     1      35.557 -18.664 -21.984  0.00  0.00    -0.471 OA
BRANCH  11  12
ATOM     12  C   UNL     1      35.784 -17.320 -21.566  0.00  0.00    +0.234 C 
BRANCH  12  14
ATOM     13  F   UNL     1      34.775 -14.870 -20.583  0.00  0.00    -0.204 F 
ATOM     14  C   UNL     1      35.058 -16.341 -22.425  0.00  0.00    +0.049 C 
ATOM     15  C   UNL     1      34.584 -15.148 -21.880  0.00  0.00    +0.140 C 
ATOM     16  C   UNL     1      34.854 -16.620 -23.776  0.00  0.00    +0.002 C 
ATOM     17  C   UNL     1      33.906 -14.233 -22.687  0.00  0.00    +0.029 C 
ATOM     18  C   UNL     1      34.175 -15.706 -24.583  0.00  0.00    -0.000 C 
ATOM     19  C   UNL     1      33.702 -14.513 -24.039  0.00  0.00    +0.002 C 
ENDBRANCH  12  14
ENDBRANCH  11  12
ENDBRANCH   9  11
BRANCH   1  20
ATOM     20  C   UNL     1      33.104 -23.628 -16.405  0.00  0.00    +0.047 C 
BRANCH  20  25
ATOM     21  S   UNL     1      32.751 -23.523 -13.669  0.00  0.00    -0.048 S 
ATOM     22  O   UNL     1      30.250 -22.686 -16.487  0.00  0.00    -0.274 OA
ATOM     23  O   UNL     1      30.724 -24.314 -12.192  0.00  0.00    -0.263 OA
ATOM     24  N   UNL     1      30.283 -23.511 -14.328  0.00  0.00    -0.246 N 
ATOM     25  C   UNL     1      32.358 -22.859 -15.317  0.00  0.00    +0.137 C 
ATOM     26  C   UNL     1      30.860 -22.998 -15.471  0.00  0.00    +0.239 C 
ATOM     27  C   UNL     1      31.079 -23.850 -13.266  0.00  0.00    +0.279 C 
ATOM     28  H   UNL     1      29.307 -23.632 -14.276  0.00  0.00    +0.158 HD
ENDBRANCH  20  25
ENDBRANCH   1  20
TORSDOF 5
ENDMDL
MODEL 2
REMARK VINA RESULT:     -11.9      1.305      2.168
REMARK  Name = 204109
REMARK  5 active torsions:
REMARK  status: ('A' for Active; 'I' for Inactive)
REMARK    1  A    between atoms: C_1  and  C_20
REMARK    2  A    between atoms: C_9  and  O_11
REMARK    3  A    between atoms: O_11  and  C_12
REMARK    4  A    between atoms: C_12  and  C_14
REMARK    5  A    between atoms: C_20  and  C_25
REMARK                            x       y       z     vdW  Elec       q    Type
REMARK                         _______ _______ _______ _____ _____    ______ ____
ROOT
ATOM      1  C   UNL     1      33.676 -22.242 -18.303  0.00  0.00    -0.021 C 
ATOM      2  C   UNL     1      35.314 -20.845 -19.437  0.00  0.00    -0.000 C 
ATOM      3  C   UNL     1      35.001 -21.864 -18.523  0.00  0.00    -0.004 C 
ATOM      4  C   UNL     1      34.268 -20.200 -20.138  0.00  0.00    +0.003 C 
ATOM      5  C   UNL     1      32.648 -21.607 -18.993  0.00  0.00    -0.004 C 
ATOM      6  C   UNL     1      32.940 -20.593 -19.906  0.00  0.00    -0.000 C 
ATOM      7  C   UNL     1      34.581 -19.181 -21.052  0.00  0.00    +0.037 C 
ATOM      8  C   UNL     1      36.642 -20.452 -19.670  0.00  0.00    +0.003 C 
ATOM      9  C   UNL     1      35.907 -18.803 -21.271  0.00  0.00    +0.139 C 
ATOM     10  C   UNL     1      36.935 -19.438 -20.581  0.00  0.00    +0.037 C 
ENDROOT
BRANCH   9  11
ATOM     11  O   UNL     1      36.195 -17.813 -22.161  0.00  0.00    -0.471 OA
BRANCH  11  12
ATOM     12  C   UNL     1      35.142 -17.390 -23.025  0.00  0.00    +0.234 C 
BRANCH  12  14
ATOM     13  F   UNL     1      34.169 -15.647 -25.026  0.00  0.00    -0.204 F 
ATOM     14  C   UNL     1      34.718 -15.990 -22.741  0.00  0.00    +0.049 C 
ATOM     15  C   UNL     1      34.246 -15.178 -23.773  0.00  0.00    +0.140 C 
ATOM     16  C   UNL     1      34.794 -15.491 -21.441  0.00  0.00    +0.002 C 
ATOM     17  C   UNL     1      33.849 -13.868 -23.503  0.00  0.00    +0.029 C 
ATOM     18  C   UNL     1      34.398 -14.181 -21.171  0.00  0.00    -0.000 C 
ATOM     19  C   UNL     1      33.925 -13.369 -22.202  0.00  0.00    +0.002 C 
ENDBRANCH  12  14
ENDBRANCH  11  12
ENDBRANCH   9  11
BRANCH   1  20
ATOM     20  C   UNL     1      33.362 -23.327 -17.329  0.00  0.00    +0.047 C 
BRANCH  20  25
ATOM     21  S   UNL     1      33.710 -23.592 -14.603  0.00  0.00    -0.048 S 
ATOM     22  O   UNL     1      30.519 -22.697 -16.581  0.00  0.00    -0.274 OA
ATOM     23  O   UNL     1      32.191 -24.771 -12.810  0.00  0.00    -0.263 OA
ATOM     24  N   UNL     1      31.162 -23.768 -14.636  0.00  0.00    -0.246 N 
ATOM     25  C   UNL     1      32.862 -22.781 -15.993  0.00  0.00    +0.137 C 
ATOM     26  C   UNL     1      31.389 -23.062 -15.799  0.00  0.00    +0.239 C 
ATOM     27  C   UNL     1      32.225 -24.145 -13.858  0.00  0.00    +0.279 C 
ATOM     28  H   UNL     1      30.244 -24.001 -14.367  0.00  0.00    +0.158 HD
ENDBRANCH  20  25
ENDBRANCH   1  20
TORSDOF 5
ENDMDL
MODEL 3
REMARK VINA RESULT:     -11.8      4.527      9.711
REMARK  Name = 204109
REMARK  5 active torsions:
REMARK  status: ('A' for Active; 'I' for Inactive)
REMARK    1  A    between atoms: C_1  and  C_20
REMARK    2  A    between atoms: C_9  and  O_11
REMARK    3  A    between atoms: O_11  and  C_12
REMARK    4  A    between atoms: C_12  and  C_14
REMARK    5  A    between atoms: C_20  and  C_25
REMARK                            x       y       z     vdW  Elec       q    Type
REMARK                         _______ _______ _______ _____ _____    ______ ____
ROOT
ATOM      1  C   UNL     1      35.849 -18.953 -21.145  0.00  0.00    -0.021 C 
ATOM      2  C   UNL     1      34.408 -20.444 -19.873  0.00  0.00    -0.000 C 
ATOM      3  C   UNL     1      34.576 -19.426 -20.825  0.00  0.00    -0.004 C 
ATOM      4  C   UNL     1      35.548 -20.991 -19.237  0.00  0.00    +0.003 C 
ATOM      5  C   UNL     1      36.970 -19.490 -20.519  0.00  0.00    -0.004 C 
ATOM      6  C   UNL     1      36.822 -20.504 -19.571  0.00  0.00    -0.000 C 
ATOM      7  C   UNL     1      35.381 -22.010 -18.285  0.00  0.00    +0.037 C 
ATOM      8  C   UNL     1      33.135 -20.932 -19.538  0.00  0.00    +0.003 C 
ATOM      9  C   UNL     1      34.107 -22.483 -17.964  0.00  0.00    +0.139 C 
ATOM     10  C   UNL     1      32.987 -21.945 -18.590  0.00  0.00    +0.037 C 
ENDROOT
BRANCH   9  11
ATOM     11  O   UNL     1      33.960 -23.472 -17.040  0.00  0.00    -0.471 OA
BRANCH  11  12
ATOM     12  C   UNL     1      33.912 -23.079 -15.670  0.00  0.00    +0.234 C 
BRANCH  12  14
ATOM     13  F   UNL     1      33.938 -24.559 -13.262  0.00  0.00    -0.204 F 
ATOM     14  C   UNL     1      32.668 -23.553 -14.999  0.00  0.00    +0.049 C 
ATOM     15  C   UNL     1      32.747 -24.279 -13.811  0.00  0.00    +0.140 C 
ATOM     16  C   UNL     1      31.424 -23.268 -15.561  0.00  0.00    +0.002 C 
ATOM     17  C   UNL     1      31.581 -24.721 -13.185  0.00  0.00    +0.029 C 
ATOM     18  C   UNL     1      30.258 -23.711 -14.936  0.00  0.00    -0.000 C 
ATOM     19  C   UNL     1      30.336 -24.436 -13.748  0.00  0.00    +0.002 C 
ENDBRANCH  12  14
ENDBRANCH  11  12
ENDBRANCH   9  11
BRANCH   1  20
ATOM     20  C   UNL     1      36.009 -17.870 -22.158  0.00  0.00    +0.047 C 
BRANCH  20  25
ATOM     21  S   UNL     1      34.342 -17.309 -24.287  0.00  0.00    -0.048 S 
ATOM     22  O   UNL     1      34.961 -15.272 -21.068  0.00  0.00    -0.274 OA
ATOM     23  O   UNL     1      33.928 -15.049 -25.563  0.00  0.00    -0.263 OA
ATOM     24  N   UNL     1      34.423 -14.957 -23.294  0.00  0.00    -0.246 N 
ATOM     25  C   UNL     1      34.682 -17.197 -22.503  0.00  0.00    +0.137 C 
ATOM     26  C   UNL     1      34.713 -15.719 -22.182  0.00  0.00    +0.239 C 
ATOM     27  C   UNL     1      34.193 -15.578 -24.494  0.00  0.00    +0.279 C 
ATOM     28  H   UNL     1      34.383 -13.976 -23.227  0.00  0.00    +0.158 HD
ENDBRANCH  20  25
ENDBRANCH   1  20
TORSDOF 5
ENDMDL
MODEL 4
REMARK VINA RESULT:     -11.5      3.302      3.923
REMARK  Name = 204109
REMARK  5 active torsions:
REMARK  status: ('A' for Active; 'I' for Inactive)
REMARK    1  A    between atoms: C_1  and  C_20
REMARK    2  A    between atoms: C_9  and  O_11
REMARK    3  A    between atoms: O_11  and  C_12
REMARK    4  A    between atoms: C_12  and  C_14
REMARK    5  A    between atoms: C_20  and  C_25
REMARK                            x       y       z     vdW  Elec       q    Type
REMARK                         _______ _______ _______ _____ _____    ______ ____
ROOT
ATOM      1  C   UNL     1      34.624 -23.125 -16.029  0.00  0.00    -0.021 C 
ATOM      2  C   UNL     1      35.194 -21.812 -17.996  0.00  0.00    -0.000 C 
ATOM      3  C   UNL     1      35.575 -22.482 -16.822  0.00  0.00    -0.004 C 
ATOM      4  C   UNL     1      33.830 -21.793 -18.370  0.00  0.00    +0.003 C 
ATOM      5  C   UNL     1      33.282 -23.106 -16.397  0.00  0.00    -0.004 C 
ATOM      6  C   UNL     1      32.886 -22.446 -17.561  0.00  0.00    -0.000 C 
ATOM      7  C   UNL     1      33.449 -21.124 -19.544  0.00  0.00    +0.037 C 
ATOM      8  C   UNL     1      36.138 -21.159 -18.807  0.00  0.00    +0.003 C 
ATOM      9  C   UNL     1      34.400 -20.480 -20.338  0.00  0.00    +0.139 C 
ATOM     10  C   UNL     1      35.742 -20.499 -19.970  0.00  0.00    +0.037 C 
ENDROOT
BRANCH   9  11
ATOM     11  O   UNL     1      34.016 -19.836 -21.474  0.00  0.00    -0.471 OA
BRANCH  11  12
ATOM     12  C   UNL     1      35.049 -19.410 -22.360  0.00  0.00    +0.234 C 
BRANCH  12  14
ATOM     13  F   UNL     1      35.600 -17.245 -20.629  0.00  0.00    -0.204 F 
ATOM     14  C   UNL     1      34.880 -17.985 -22.767  0.00  0.00    +0.049 C 
ATOM     15  C   UNL     1      35.169 -16.961 -21.866  0.00  0.00    +0.140 C 
ATOM     16  C   UNL     1      34.432 -17.678 -24.051  0.00  0.00    +0.002 C 
ATOM     17  C   UNL     1      35.011 -15.629 -22.250  0.00  0.00    +0.029 C 
ATOM     18  C   UNL     1      34.273 -16.346 -24.436  0.00  0.00    -0.000 C 
ATOM     19  C   UNL     1      34.563 -15.322 -23.535  0.00  0.00    +0.002 C 
ENDBRANCH  12  14
ENDBRANCH  11  12
ENDBRANCH   9  11
BRANCH   1  20
ATOM     20  C   UNL     1      35.046 -23.831 -14.785  0.00  0.00    +0.047 C 
BRANCH  20  25
ATOM     21  S   UNL     1      36.463 -26.196 -14.630  0.00  0.00    -0.048 S 
ATOM     22  O   UNL     1      37.561 -22.624 -13.666  0.00  0.00    -0.274 OA
ATOM     23  O   UNL     1      38.010 -27.120 -12.716  0.00  0.00    -0.263 OA
ATOM     24  N   UNL     1      37.927 -24.822 -13.051  0.00  0.00    -0.246 N 
ATOM     25  C   UNL     1      36.462 -24.395 -14.889  0.00  0.00    +0.137 C 
ATOM     26  C   UNL     1      37.363 -23.824 -13.818  0.00  0.00    +0.239 C 
ATOM     27  C   UNL     1      37.601 -26.129 -13.302  0.00  0.00    +0.279 C 
ATOM     28  H   UNL     1      38.558 -24.598 -12.329  0.00  0.00    +0.158 HD
ENDBRANCH  20  25
ENDBRANCH   1  20
TORSDOF 5
ENDMDL
MODEL 5
REMARK VINA RESULT:     -11.5      5.951     10.792
REMARK  Name = 204109
REMARK  5 active torsions:
REMARK  status: ('A' for Active; 'I' for Inactive)
REMARK    1  A    between atoms: C_1  and  C_20
REMARK    2  A    between atoms: C_9  and  O_11
REMARK    3  A    between atoms: O_11  and  C_12
REMARK    4  A    between atoms: C_12  and  C_14
REMARK    5  A    between atoms: C_20  and  C_25
REMARK                            x       y       z     vdW  Elec       q    Type
REMARK                         _______ _______ _______ _____ _____    ______ ____
ROOT
ATOM      1  C   UNL     1      33.831 -13.013 -23.387  0.00  0.00    -0.021 C 
ATOM      2  C   UNL     1      34.231 -15.383 -23.766  0.00  0.00    -0.000 C 
ATOM      3  C   UNL     1      33.817 -14.124 -24.231  0.00  0.00    -0.004 C 
ATOM      4  C   UNL     1      34.667 -15.516 -22.426  0.00  0.00    +0.003 C 
ATOM      5  C   UNL     1      34.259 -13.145 -22.070  0.00  0.00    -0.004 C 
ATOM      6  C   UNL     1      34.676 -14.388 -21.591  0.00  0.00    -0.000 C 
ATOM      7  C   UNL     1      35.081 -16.775 -21.961  0.00  0.00    +0.037 C 
ATOM      8  C   UNL     1      34.223 -16.512 -24.601  0.00  0.00    +0.003 C 
ATOM      9  C   UNL     1      35.066 -17.886 -22.805  0.00  0.00    +0.139 C 
ATOM     10  C   UNL     1      34.639 -17.755 -24.123  0.00  0.00    +0.037 C 
ENDROOT
BRANCH   9  11
ATOM     11  O   UNL     1      35.472 -19.100 -22.340  0.00  0.00    -0.471 OA
BRANCH  11  12
ATOM     12  C   UNL     1      35.847 -19.177 -20.967  0.00  0.00    +0.234 C 
BRANCH  12  14
ATOM     13  F   UNL     1      36.881 -21.192 -19.275  0.00  0.00    -0.204 F 
ATOM     14  C   UNL     1      34.977 -20.118 -20.204  0.00  0.00    +0.049 C 
ATOM     15  C   UNL     1      35.549 -21.092 -19.385  0.00  0.00    +0.140 C 
ATOM     16  C   UNL     1      33.590 -20.024 -20.313  0.00  0.00    +0.002 C 
ATOM     17  C   UNL     1      34.732 -21.971 -18.673  0.00  0.00    +0.029 C 
ATOM     18  C   UNL     1      32.773 -20.903 -19.601  0.00  0.00    -0.000 C 
ATOM     19  C   UNL     1      33.344 -21.876 -18.781  0.00  0.00    +0.002 C 
ENDBRANCH  12  14
ENDBRANCH  11  12
ENDBRANCH   9  11
BRANCH   1  20
ATOM     20  C   UNL     1      33.388 -11.684 -23.898  0.00  0.00    +0.047 C 
BRANCH  20  25
ATOM     21  S   UNL     1      32.045 -10.063 -22.111  0.00  0.00    -0.048 S 
ATOM     22  O   UNL     1      35.201  -9.305 -24.199  0.00  0.00    -0.274 OA
ATOM     23  O   UNL     1      31.394  -7.523 -22.289  0.00  0.00    -0.263 OA
ATOM     24  N   UNL     1      33.360  -8.229 -23.307  0.00  0.00    -0.246 N 
ATOM     25  C   UNL     1      33.615 -10.566 -22.882  0.00  0.00    +0.137 C 
ATOM     26  C   UNL     1      34.166  -9.323 -23.543  0.00  0.00    +0.239 C 
ATOM     27  C   UNL     1      32.209  -8.385 -22.581  0.00  0.00    +0.279 C 
ATOM     28  H   UNL     1      33.610  -7.343 -23.656  0.00  0.00    +0.158 HD
ENDBRANCH  20  25
ENDBRANCH   1  20
TORSDOF 5
ENDMDL
MODEL 6
REMARK VINA RESULT:     -11.5      1.484      1.532
REMARK  Name = 204109
REMARK  5 active torsions:
REMARK  status: ('A' for Active; 'I' for Inactive)
REMARK    1  A    between atoms: C_1  and  C_20
REMARK    2  A    between atoms: C_9  and  O_11
REMARK    3  A    between atoms: O_11  and  C_12
REMARK    4  A    between atoms: C_12  and  C_14
REMARK    5  A    between atoms: C_20  and  C_25
REMARK                            x       y       z     vdW  Elec       q    Type
REMARK                         _______ _______ _______ _____ _____    ______ ____
ROOT
ATOM      1  C   UNL     1      34.354 -22.579 -17.300  0.00  0.00    -0.021 C 
ATOM      2  C   UNL     1      33.864 -21.185 -19.233  0.00  0.00    -0.000 C 
ATOM      3  C   UNL     1      33.437 -22.033 -18.198  0.00  0.00    -0.004 C 
ATOM      4  C   UNL     1      35.241 -20.886 -19.358  0.00  0.00    +0.003 C 
ATOM      5  C   UNL     1      35.709 -22.285 -17.423  0.00  0.00    -0.004 C 
ATOM      6  C   UNL     1      36.151 -21.443 -18.444  0.00  0.00    -0.000 C 
ATOM      7  C   UNL     1      35.669 -20.038 -20.392  0.00  0.00    +0.037 C 
ATOM      8  C   UNL     1      32.955 -20.627 -20.146  0.00  0.00    +0.003 C 
ATOM      9  C   UNL     1      34.751 -19.492 -21.291  0.00  0.00    +0.139 C 
ATOM     10  C   UNL     1      33.397 -19.786 -21.167  0.00  0.00    +0.037 C 
ENDROOT
BRANCH   9  11
ATOM     11  O   UNL     1      35.180 -18.670 -22.288  0.00  0.00    -0.471 OA
BRANCH  11  12
ATOM     12  C   UNL     1      35.668 -17.386 -21.907  0.00  0.00    +0.234 C 
BRANCH  12  14
ATOM     13  F   UNL     1      34.838 -15.004 -20.630  0.00  0.00    -0.204 F 
ATOM     14  C   UNL     1      34.962 -16.287 -22.625  0.00  0.00    +0.049 C 
ATOM     15  C   UNL     1      34.578 -15.135 -21.939  0.00  0.00    +0.140 C 
ATOM     16  C   UNL     1      34.684 -16.413 -23.986  0.00  0.00    +0.002 C 
ATOM     17  C   UNL     1      33.917 -14.108 -22.614  0.00  0.00    +0.029 C 
ATOM     18  C   UNL     1      34.023 -15.386 -24.662  0.00  0.00    -0.000 C 
ATOM     19  C   UNL     1      33.640 -14.234 -23.976  0.00  0.00    +0.002 C 
ENDBRANCH  12  14
ENDBRANCH  11  12
ENDBRANCH   9  11
BRANCH   1  20
ATOM     20  C   UNL     1      33.882 -23.478 -16.207  0.00  0.00    +0.047 C 
BRANCH  20  25
ATOM     21  S   UNL     1      35.372 -23.588 -13.885  0.00  0.00    -0.048 S 
ATOM     22  O   UNL     1      31.645 -22.702 -14.355  0.00  0.00    -0.274 OA
ATOM     23  O   UNL     1      34.769 -24.600 -11.534  0.00  0.00    -0.263 OA
ATOM     24  N   UNL     1      33.058 -23.674 -12.806  0.00  0.00    -0.246 N 
ATOM     25  C   UNL     1      34.012 -22.833 -14.829  0.00  0.00    +0.137 C 
ATOM     26  C   UNL     1      32.765 -23.049 -14.000  0.00  0.00    +0.239 C 
ATOM     27  C   UNL     1      34.351 -24.041 -12.537  0.00  0.00    +0.279 C 
ATOM     28  H   UNL     1      32.345 -23.857 -12.152  0.00  0.00    +0.158 HD
ENDBRANCH  20  25
ENDBRANCH   1  20
TORSDOF 5
ENDMDL
MODEL 7
REMARK VINA RESULT:     -11.5      2.694      3.302
REMARK  Name = 204109
REMARK  5 active torsions:
REMARK  status: ('A' for Active; 'I' for Inactive)
REMARK    1  A    between atoms: C_1  and  C_20
REMARK    2  A    between atoms: C_9  and  O_11
REMARK    3  A    between atoms: O_11  and  C_12
REMARK    4  A    between atoms: C_12  and  C_14
REMARK    5  A    between atoms: C_20  and  C_25
REMARK                            x       y       z     vdW  Elec       q    Type
REMARK                         _______ _______ _______ _____ _____    ______ ____
ROOT
ATOM      1  C   UNL     1      34.449 -23.340 -16.115  0.00  0.00    -0.021 C 
ATOM      2  C   UNL     1      35.055 -21.948 -18.017  0.00  0.00    -0.000 C 
ATOM      3  C   UNL     1      35.419 -22.706 -16.891  0.00  0.00    -0.004 C 
ATOM      4  C   UNL     1      33.687 -21.833 -18.359  0.00  0.00    +0.003 C 
ATOM      5  C   UNL     1      33.104 -23.227 -16.452  0.00  0.00    -0.004 C 
ATOM      6  C   UNL     1      32.723 -22.479 -17.568  0.00  0.00    -0.000 C 
ATOM      7  C   UNL     1      33.322 -21.077 -19.484  0.00  0.00    +0.037 C 
ATOM      8  C   UNL     1      36.018 -21.303 -18.809  0.00  0.00    +0.003 C 
ATOM      9  C   UNL     1      34.293 -20.441 -20.260  0.00  0.00    +0.139 C 
ATOM     10  C   UNL     1      35.638 -20.555 -19.923  0.00  0.00    +0.037 C 
ENDROOT
BRANCH   9  11
ATOM     11  O   UNL     1      33.924 -19.712 -21.349  0.00  0.00    -0.471 OA
BRANCH  11  12
ATOM     12  C   UNL     1      34.950 -19.365 -22.277  0.00  0.00    +0.234 C 
BRANCH  12  14
ATOM     13  F   UNL     1      35.491 -17.165 -20.586  0.00  0.00    -0.204 F 
ATOM     14  C   UNL     1      34.835 -17.949 -22.730  0.00  0.00    +0.049 C 
ATOM     15  C   UNL     1      35.116 -16.906 -21.847  0.00  0.00    +0.140 C 
ATOM     16  C   UNL     1      34.445 -17.668 -24.039  0.00  0.00    +0.002 C 
ATOM     17  C   UNL     1      35.008 -15.582 -22.273  0.00  0.00    +0.029 C 
ATOM     18  C   UNL     1      34.336 -16.344 -24.466  0.00  0.00    -0.000 C 
ATOM     19  C   UNL     1      34.618 -15.301 -23.584  0.00  0.00    +0.002 C 
ENDBRANCH  12  14
ENDBRANCH  11  12
ENDBRANCH   9  11
BRANCH   1  20
ATOM     20  C   UNL     1      34.854 -24.141 -14.923  0.00  0.00    +0.047 C 
BRANCH  20  25
ATOM     21  S   UNL     1      36.876 -23.113 -13.349  0.00  0.00    -0.048 S 
ATOM     22  O   UNL     1      33.302 -24.173 -12.349  0.00  0.00    -0.274 OA
ATOM     23  O   UNL     1      37.692 -23.835 -10.956  0.00  0.00    -0.263 OA
ATOM     24  N   UNL     1      35.437 -24.068 -11.467  0.00  0.00    -0.246 N 
ATOM     25  C   UNL     1      35.096 -23.269 -13.693  0.00  0.00    +0.137 C 
ATOM     26  C   UNL     1      34.489 -23.884 -12.453  0.00  0.00    +0.239 C 
ATOM     27  C   UNL     1      36.741 -23.732 -11.717  0.00  0.00    +0.279 C 
ATOM     28  H   UNL     1      35.179 -24.438 -10.593  0.00  0.00    +0.158 HD
ENDBRANCH  20  25
ENDBRANCH   1  20
TORSDOF 5
ENDMDL
MODEL 8
REMARK VINA RESULT:     -11.4      4.439      9.658
REMARK  Name = 204109
REMARK  5 active torsions:
REMARK  status: ('A' for Active; 'I' for Inactive)
REMARK    1  A    between atoms: C_1  and  C_20
REMARK    2  A    between atoms: C_9  and  O_11
REMARK    3  A    between atoms: O_11  and  C_12
REMARK    4  A    between atoms: C_12  and  C_14
REMARK    5  A    between atoms: C_20  and  C_25
REMARK                            x       y       z     vdW  Elec       q    Type
REMARK                         _______ _______ _______ _____ _____    ______ ____
ROOT
ATOM      1  C   UNL     1      35.060 -20.504 -20.266  0.00  0.00    -0.021 C 
ATOM      2  C   UNL     1      35.411 -21.657 -18.152  0.00  0.00    -0.000 C 
ATOM      3  C   UNL     1      35.906 -20.911 -19.234  0.00  0.00    -0.004 C 
ATOM      4  C   UNL     1      34.037 -21.994 -18.116  0.00  0.00    +0.003 C 
ATOM      5  C   UNL     1      33.709 -20.836 -20.230  0.00  0.00    -0.004 C 
ATOM      6  C   UNL     1      33.199 -21.576 -19.162  0.00  0.00    -0.000 C 
ATOM      7  C   UNL     1      33.541 -22.739 -17.034  0.00  0.00    +0.037 C 
ATOM      8  C   UNL     1      36.248 -22.075 -17.105  0.00  0.00    +0.003 C 
ATOM      9  C   UNL     1      34.388 -23.147 -16.002  0.00  0.00    +0.139 C 
ATOM     10  C   UNL     1      35.739 -22.815 -16.038  0.00  0.00    +0.037 C 
ENDROOT
BRANCH   9  11
ATOM     11  O   UNL     1      33.893 -23.868 -14.959  0.00  0.00    -0.471 OA
BRANCH  11  12
ATOM     12  C   UNL     1      32.934 -23.226 -14.122  0.00  0.00    +0.234 C 
BRANCH  12  14
ATOM     13  F   UNL     1      31.814 -25.522 -12.914  0.00  0.00    -0.204 F 
ATOM     14  C   UNL     1      31.546 -23.694 -14.405  0.00  0.00    +0.049 C 
ATOM     15  C   UNL     1      31.051 -24.835 -13.776  0.00  0.00    +0.140 C 
ATOM     16  C   UNL     1      30.744 -22.987 -15.301  0.00  0.00    +0.002 C 
ATOM     17  C   UNL     1      29.752 -25.271 -14.042  0.00  0.00    +0.029 C 
ATOM     18  C   UNL     1      29.446 -23.423 -15.568  0.00  0.00    -0.000 C 
ATOM     19  C   UNL     1      28.950 -24.564 -14.938  0.00  0.00    +0.002 C 
ENDBRANCH  12  14
ENDBRANCH  11  12
ENDBRANCH   9  11
BRANCH   1  20
ATOM     20  C   UNL     1      35.604 -19.713 -21.407  0.00  0.00    +0.047 C 
BRANCH  20  25
ATOM     21  S   UNL     1      34.465 -18.621 -23.673  0.00  0.00    -0.048 S 
ATOM     22  O   UNL     1      35.446 -16.899 -20.361  0.00  0.00    -0.274 OA
ATOM     23  O   UNL     1      35.010 -16.377 -24.929  0.00  0.00    -0.263 OA
ATOM     24  N   UNL     1      35.278 -16.440 -22.621  0.00  0.00    -0.246 N 
ATOM     25  C   UNL     1      34.644 -18.615 -21.862  0.00  0.00    +0.137 C 
ATOM     26  C   UNL     1      35.167 -17.242 -21.504  0.00  0.00    +0.239 C 
ATOM     27  C   UNL     1      34.963 -16.953 -23.852  0.00  0.00    +0.279 C 
ATOM     28  H   UNL     1      35.583 -15.508 -22.535  0.00  0.00    +0.158 HD
ENDBRANCH  20  25
ENDBRANCH   1  20
TORSDOF 5
ENDMDL
MODEL 9
REMARK VINA RESULT:     -11.3      3.810      4.474
REMARK  Name = 204109
REMARK  5 active torsions:
REMARK  status: ('A' for Active; 'I' for Inactive)
REMARK    1  A    between atoms: C_1  and  C_20
REMARK    2  A    between atoms: C_9  and  O_11
REMARK    3  A    between atoms: O_11  and  C_12
REMARK    4  A    between atoms: C_12  and  C_14
REMARK    5  A    between atoms: C_20  and  C_25
REMARK                            x       y       z     vdW  Elec       q    Type
REMARK                         _______ _______ _______ _____ _____    ______ ____
ROOT
ATOM      1  C   UNL     1      36.198 -22.781 -14.826  0.00  0.00    -0.021 C 
ATOM      2  C   UNL     1      35.172 -22.259 -16.970  0.00  0.00    -0.000 C 
ATOM      3  C   UNL     1      35.096 -22.811 -15.680  0.00  0.00    -0.004 C 
ATOM      4  C   UNL     1      36.385 -21.668 -17.398  0.00  0.00    +0.003 C 
ATOM      5  C   UNL     1      37.390 -22.201 -15.248  0.00  0.00    -0.004 C 
ATOM      6  C   UNL     1      37.485 -21.646 -16.525  0.00  0.00    -0.000 C 
ATOM      7  C   UNL     1      36.461 -21.116 -18.687  0.00  0.00    +0.037 C 
ATOM      8  C   UNL     1      34.072 -22.280 -17.843  0.00  0.00    +0.003 C 
ATOM      9  C   UNL     1      35.358 -21.146 -19.541  0.00  0.00    +0.139 C 
ATOM     10  C   UNL     1      34.166 -21.727 -19.119  0.00  0.00    +0.037 C 
ENDROOT
BRANCH   9  11
ATOM     11  O   UNL     1      35.447 -20.606 -20.788  0.00  0.00    -0.471 OA
BRANCH  11  12
ATOM     12  C   UNL     1      35.716 -19.208 -20.872  0.00  0.00    +0.234 C 
BRANCH  12  14
ATOM     13  F   UNL     1      35.752 -16.429 -21.389  0.00  0.00    -0.204 F 
ATOM     14  C   UNL     1      35.168 -18.611 -22.124  0.00  0.00    +0.049 C 
ATOM     15  C   UNL     1      35.215 -17.231 -22.320  0.00  0.00    +0.140 C 
ATOM     16  C   UNL     1      34.607 -19.435 -23.099  0.00  0.00    +0.002 C 
ATOM     17  C   UNL     1      34.701 -16.675 -23.492  0.00  0.00    +0.029 C 
ATOM     18  C   UNL     1      34.092 -18.879 -24.271  0.00  0.00    -0.000 C 
ATOM     19  C   UNL     1      34.140 -17.499 -24.468  0.00  0.00    +0.002 C 
ENDBRANCH  12  14
ENDBRANCH  11  12
ENDBRANCH   9  11
BRANCH   1  20
ATOM     20  C   UNL     1      36.099 -23.372 -13.460  0.00  0.00    +0.047 C 
BRANCH  20  25
ATOM     21  S   UNL     1      37.010 -25.967 -13.211  0.00  0.00    -0.048 S 
ATOM     22  O   UNL     1      38.001 -22.827 -11.197  0.00  0.00    -0.274 OA
ATOM     23  O   UNL     1      37.444 -27.408 -11.056  0.00  0.00    -0.263 OA
ATOM     24  N   UNL     1      37.793 -25.114 -10.934  0.00  0.00    -0.246 N 
ATOM     25  C   UNL     1      37.339 -24.181 -13.086  0.00  0.00    +0.137 C 
ATOM     26  C   UNL     1      37.745 -23.936 -11.650  0.00  0.00    +0.239 C 
ATOM     27  C   UNL     1      37.454 -26.291 -11.549  0.00  0.00    +0.279 C 
ATOM     28  H   UNL     1      38.069 -25.110  -9.989  0.00  0.00    +0.158 HD
ENDBRANCH  20  25
ENDBRANCH   1  20
TORSDOF 5
ENDMDL
