MODEL 1
REMARK VINA RESULT:     -13.2      0.000      0.000
REMARK  Name = 5073
REMARK  4 active torsions:
REMARK  status: ('A' for Active; 'I' for Inactive)
REMARK    1  A    between atoms: N_1  and  C_18
REMARK    2  A    between atoms: C_2  and  C_11
REMARK    3  A    between atoms: C_18  and  C_19
REMARK    4  A    between atoms: C_19  and  C_23
REMARK                            x       y       z     vdW  Elec       q    Type
REMARK                         _______ _______ _______ _____ _____    ______ ____
ROOT
ATOM      1  N   UNL     1      35.853 -19.635 -19.977  0.00  0.00    +0.387 N 
ATOM      2  C   UNL     1      35.313 -18.377 -22.573  0.00  0.00    +0.039 C 
ATOM      3  C   UNL     1      34.222 -19.095 -21.760  0.00  0.00    -0.017 C 
ATOM      4  C   UNL     1      36.426 -17.886 -21.632  0.00  0.00    -0.017 C 
ATOM      5  C   UNL     1      34.821 -20.185 -20.868  0.00  0.00    -0.077 C 
ATOM      6  C   UNL     1      36.944 -19.021 -20.745  0.00  0.00    -0.077 C 
ATOM      7  H   UNL     1      35.420 -18.908 -19.407  0.00  0.00    -0.080 HD
ENDROOT
BRANCH   2  11
ATOM      8  F   UNL     1      33.435 -11.964 -23.318  0.00  0.00    -0.204 F 
ATOM      9  O   UNL     1      33.970 -16.346 -25.227  0.00  0.00    -0.354 OA
ATOM     10  N   UNL     1      34.439 -17.547 -24.712  0.00  0.00    -0.081 NA
ATOM     11  C   UNL     1      34.759 -17.276 -23.448  0.00  0.00    +0.100 A 
ATOM     12  C   UNL     1      34.524 -15.940 -23.095  0.00  0.00    +0.054 A 
ATOM     13  C   UNL     1      34.022 -15.387 -24.262  0.00  0.00    +0.179 A 
ATOM     14  C   UNL     1      34.665 -15.125 -21.962  0.00  0.00    +0.007 C 
ATOM     15  C   UNL     1      33.639 -14.057 -24.398  0.00  0.00    +0.070 C 
ATOM     16  C   UNL     1      34.287 -13.778 -22.063  0.00  0.00    +0.030 C 
ATOM     17  C   UNL     1      33.785 -13.256 -23.260  0.00  0.00    +0.143 C 
ENDBRANCH   2  11
BRANCH   1  18
ATOM     18  C   UNL     1      36.373 -20.678 -19.093  0.00  0.00    -0.076 C 
BRANCH  18  19
ATOM     19  C   UNL     1      35.504 -21.923 -19.194  0.00  0.00    -0.007 C 
BRANCH  19  23
ATOM     20  O   UNL     1      32.791 -22.428 -18.835  0.00  0.00    -0.274 OA
ATOM     21  N   UNL     1      32.954 -22.876 -16.555  0.00  0.00    -0.237 N 
ATOM     22  N   UNL     1      35.057 -22.697 -15.485  0.00  0.00    -0.399 NA
ATOM     23  C   UNL     1      34.940 -22.292 -17.853  0.00  0.00    +0.123 C 
ATOM     24  C   UNL     1      31.500 -23.040 -16.453  0.00  0.00    +0.100 C 
ATOM     25  C   UNL     1      31.027 -23.749 -15.198  0.00  0.00    +0.022 C 
ATOM     26  C   UNL     1      33.781 -22.919 -15.447  0.00  0.00    +0.165 C 
ATOM     27  C   UNL     1      31.696 -23.123 -13.993  0.00  0.00    +0.011 C 
ATOM     28  C   UNL     1      33.194 -23.318 -14.105  0.00  0.00    +0.075 C 
ATOM     29  C   UNL     1      33.464 -22.539 -17.810  0.00  0.00    +0.237 C 
ATOM     30  C   UNL     1      35.626 -22.388 -16.697  0.00  0.00    +0.096 C 
ATOM     31  C   UNL     1      37.116 -22.193 -16.611  0.00  0.00    +0.062 C 
ENDBRANCH  19  23
ENDBRANCH  18  19
ENDBRANCH   1  18
TORSDOF 4
ENDMDL
MODEL 2
REMARK VINA RESULT:     -12.5      1.118      1.900
REMARK  Name = 5073
REMARK  4 active torsions:
REMARK  status: ('A' for Active; 'I' for Inactive)
REMARK    1  A    between atoms: N_1  and  C_18
REMARK    2  A    between atoms: C_2  and  C_11
REMARK    3  A    between atoms: C_18  and  C_19
REMARK    4  A    between atoms: C_19  and  C_23
REMARK                            x       y       z     vdW  Elec       q    Type
REMARK                         _______ _______ _______ _____ _____    ______ ____
ROOT
ATOM      1  N   UNL     1      35.553 -19.392 -20.167  0.00  0.00    +0.387 N 
ATOM      2  C   UNL     1      35.439 -17.776 -22.614  0.00  0.00    +0.039 C 
ATOM      3  C   UNL     1      34.525 -18.992 -22.383  0.00  0.00    -0.017 C 
ATOM      4  C   UNL     1      35.887 -17.197 -21.262  0.00  0.00    -0.017 C 
ATOM      5  C   UNL     1      35.182 -20.010 -21.449  0.00  0.00    -0.077 C 
ATOM      6  C   UNL     1      36.493 -18.281 -20.368  0.00  0.00    -0.077 C 
ATOM      7  H   UNL     1      34.706 -19.015 -19.743  0.00  0.00    -0.080 HD
ENDROOT
BRANCH   2  11
ATOM      8  F   UNL     1      33.079 -11.542 -23.498  0.00  0.00    -0.204 F 
ATOM      9  O   UNL     1      33.972 -15.903 -25.319  0.00  0.00    -0.354 OA
ATOM     10  N   UNL     1      34.527 -17.055 -24.777  0.00  0.00    -0.081 NA
ATOM     11  C   UNL     1      34.811 -16.737 -23.515  0.00  0.00    +0.100 A 
ATOM     12  C   UNL     1      34.469 -15.417 -23.190  0.00  0.00    +0.054 A 
ATOM     13  C   UNL     1      33.939 -14.926 -24.372  0.00  0.00    +0.179 A 
ATOM     14  C   UNL     1      34.534 -14.573 -22.071  0.00  0.00    +0.007 C 
ATOM     15  C   UNL     1      33.455 -13.632 -24.537  0.00  0.00    +0.070 C 
ATOM     16  C   UNL     1      34.054 -13.262 -22.201  0.00  0.00    +0.030 C 
ATOM     17  C   UNL     1      33.526 -12.802 -23.412  0.00  0.00    +0.143 C 
ENDBRANCH   2  11
BRANCH   1  18
ATOM     18  C   UNL     1      36.126 -20.391 -19.265  0.00  0.00    -0.076 C 
BRANCH  18  19
ATOM     19  C   UNL     1      35.487 -21.749 -19.524  0.00  0.00    -0.007 C 
BRANCH  19  23
ATOM     20  O   UNL     1      36.032 -22.814 -17.012  0.00  0.00    -0.274 OA
ATOM     21  N   UNL     1      33.812 -22.851 -16.306  0.00  0.00    -0.237 N 
ATOM     22  N   UNL     1      32.111 -22.142 -17.790  0.00  0.00    -0.399 NA
ATOM     23  C   UNL     1      34.397 -22.025 -18.531  0.00  0.00    +0.123 C 
ATOM     24  C   UNL     1      34.194 -23.491 -15.043  0.00  0.00    +0.100 C 
ATOM     25  C   UNL     1      33.142 -23.420 -13.952  0.00  0.00    +0.022 C 
ATOM     26  C   UNL     1      32.492 -22.626 -16.651  0.00  0.00    +0.165 C 
ATOM     27  C   UNL     1      31.807 -23.852 -14.522  0.00  0.00    +0.011 C 
ATOM     28  C   UNL     1      31.407 -22.891 -15.622  0.00  0.00    +0.075 C 
ATOM     29  C   UNL     1      34.838 -22.594 -17.219  0.00  0.00    +0.237 C 
ATOM     30  C   UNL     1      33.076 -21.841 -18.722  0.00  0.00    +0.096 C 
ATOM     31  C   UNL     1      32.507 -21.249 -19.984  0.00  0.00    +0.062 C 
ENDBRANCH  19  23
ENDBRANCH  18  19
ENDBRANCH   1  18
TORSDOF 4
ENDMDL
MODEL 3
REMARK VINA RESULT:     -12.4      3.429     10.166
REMARK  Name = 5073
REMARK  4 active torsions:
REMARK  status: ('A' for Active; 'I' for Inactive)
REMARK    1  A    between atoms: N_1  and  C_18
REMARK    2  A    between atoms: C_2  and  C_11
REMARK    3  A    between atoms: C_18  and  C_19
REMARK    4  A    between atoms: C_19  and  C_23
REMARK                            x       y       z     vdW  Elec       q    Type
REMARK                         _______ _______ _______ _____ _____    ______ ____
ROOT
ATOM      1  N   UNL     1      34.288 -20.297 -20.123  0.00  0.00    +0.387 N 
ATOM      2  C   UNL     1      34.164 -22.405 -18.085  0.00  0.00    +0.039 C 
ATOM      3  C   UNL     1      35.467 -21.664 -18.429  0.00  0.00    -0.017 C 
ATOM      4  C   UNL     1      32.954 -21.523 -18.436  0.00  0.00    -0.017 C 
ATOM      5  C   UNL     1      35.454 -21.157 -19.873  0.00  0.00    -0.077 C 
ATOM      6  C   UNL     1      33.033 -21.021 -19.880  0.00  0.00    -0.077 C 
ATOM      7  H   UNL     1      34.331 -19.513 -19.472  0.00  0.00    -0.080 HD
ENDROOT
BRANCH   2  11
ATOM      8  F   UNL     1      30.630 -24.189 -12.650  0.00  0.00    -0.204 F 
ATOM      9  O   UNL     1      34.908 -23.579 -14.762  0.00  0.00    -0.354 OA
ATOM     10  N   UNL     1      35.280 -23.151 -16.029  0.00  0.00    -0.081 NA
ATOM     11  C   UNL     1      34.133 -22.899 -16.657  0.00  0.00    +0.100 A 
ATOM     12  C   UNL     1      33.006 -23.142 -15.860  0.00  0.00    +0.054 A 
ATOM     13  C   UNL     1      33.550 -23.574 -14.662  0.00  0.00    +0.179 A 
ATOM     14  C   UNL     1      31.611 -23.060 -15.982  0.00  0.00    +0.007 C 
ATOM     15  C   UNL     1      32.803 -23.940 -13.547  0.00  0.00    +0.070 C 
ATOM     16  C   UNL     1      30.826 -23.420 -14.877  0.00  0.00    +0.030 C 
ATOM     17  C   UNL     1      31.413 -23.852 -13.684  0.00  0.00    +0.143 C 
ENDBRANCH   2  11
BRANCH   1  18
ATOM     18  C   UNL     1      34.321 -19.775 -21.489  0.00  0.00    -0.076 C 
BRANCH  18  19
ATOM     19  C   UNL     1      35.401 -18.709 -21.610  0.00  0.00    -0.007 C 
BRANCH  19  23
ATOM     20  O   UNL     1      35.148 -16.082 -20.728  0.00  0.00    -0.274 OA
ATOM     21  N   UNL     1      34.461 -15.228 -22.784  0.00  0.00    -0.237 N 
ATOM     22  N   UNL     1      34.188 -16.699 -24.617  0.00  0.00    -0.399 NA
ATOM     23  C   UNL     1      34.963 -17.607 -22.529  0.00  0.00    +0.123 C 
ATOM     24  C   UNL     1      34.279 -13.894 -22.202  0.00  0.00    +0.100 C 
ATOM     25  C   UNL     1      34.190 -12.767 -23.213  0.00  0.00    +0.022 C 
ATOM     26  C   UNL     1      34.120 -15.516 -24.093  0.00  0.00    +0.165 C 
ATOM     27  C   UNL     1      33.199 -13.147 -24.294  0.00  0.00    +0.011 C 
ATOM     28  C   UNL     1      33.702 -14.382 -25.011  0.00  0.00    +0.075 C 
ATOM     29  C   UNL     1      34.875 -16.243 -21.917  0.00  0.00    +0.237 C 
ATOM     30  C   UNL     1      34.616 -17.736 -23.824  0.00  0.00    +0.096 C 
ATOM     31  C   UNL     1      34.689 -19.047 -24.563  0.00  0.00    +0.062 C 
ENDBRANCH  19  23
ENDBRANCH  18  19
ENDBRANCH   1  18
TORSDOF 4
ENDMDL
MODEL 4
REMARK VINA RESULT:     -12.0      6.804     13.708
REMARK  Name = 5073
REMARK  4 active torsions:
REMARK  status: ('A' for Active; 'I' for Inactive)
REMARK    1  A    between atoms: N_1  and  C_18
REMARK    2  A    between atoms: C_2  and  C_11
REMARK    3  A    between atoms: C_18  and  C_19
REMARK    4  A    between atoms: C_19  and  C_23
REMARK                            x       y       z     vdW  Elec       q    Type
REMARK                         _______ _______ _______ _____ _____    ______ ____
ROOT
ATOM      1  N   UNL     1      32.275 -10.094 -22.467  0.00  0.00    +0.387 N 
ATOM      2  C   UNL     1      33.671 -12.629 -22.954  0.00  0.00    +0.039 C 
ATOM      3  C   UNL     1      32.330 -12.555 -22.206  0.00  0.00    -0.017 C 
ATOM      4  C   UNL     1      33.816 -11.414 -23.886  0.00  0.00    -0.017 C 
ATOM      5  C   UNL     1      32.156 -11.203 -21.510  0.00  0.00    -0.077 C 
ATOM      6  C   UNL     1      33.588 -10.104 -23.128  0.00  0.00    -0.077 C 
ATOM      7  H   UNL     1      31.560 -10.219 -23.184  0.00  0.00    -0.080 HD
ENDROOT
BRANCH   2  11
ATOM      8  F   UNL     1      35.654 -19.053 -22.843  0.00  0.00    -0.204 F 
ATOM      9  O   UNL     1      33.826 -15.350 -25.309  0.00  0.00    -0.354 OA
ATOM     10  N   UNL     1      33.528 -14.041 -24.958  0.00  0.00    -0.081 NA
ATOM     11  C   UNL     1      33.866 -13.944 -23.674  0.00  0.00    +0.100 A 
ATOM     12  C   UNL     1      34.379 -15.139 -23.149  0.00  0.00    +0.054 A 
ATOM     13  C   UNL     1      34.334 -16.005 -24.229  0.00  0.00    +0.179 A 
ATOM     14  C   UNL     1      34.872 -15.606 -21.922  0.00  0.00    +0.007 C 
ATOM     15  C   UNL     1      34.748 -17.333 -24.187  0.00  0.00    +0.070 C 
ATOM     16  C   UNL     1      35.299 -16.939 -21.844  0.00  0.00    +0.030 C 
ATOM     17  C   UNL     1      35.237 -17.785 -22.956  0.00  0.00    +0.143 C 
ENDBRANCH   2  11
BRANCH   1  18
ATOM     18  C   UNL     1      32.049  -8.814 -21.797  0.00  0.00    -0.076 C 
BRANCH  18  19
ATOM     19  C   UNL     1      33.310  -7.963 -21.868  0.00  0.00    -0.007 C 
BRANCH  19  23
ATOM     20  O   UNL     1      34.157  -7.125 -24.382  0.00  0.00    -0.274 OA
ATOM     21  N   UNL     1      33.224  -4.996 -24.227  0.00  0.00    -0.237 N 
ATOM     22  N   UNL     1      32.107  -4.361 -22.240  0.00  0.00    -0.399 NA
ATOM     23  C   UNL     1      33.000  -6.590 -22.389  0.00  0.00    +0.123 C 
ATOM     24  C   UNL     1      33.787  -4.622 -25.529  0.00  0.00    +0.100 C 
ATOM     25  C   UNL     1      33.164  -3.392 -26.161  0.00  0.00    +0.022 C 
ATOM     26  C   UNL     1      32.546  -4.092 -23.429  0.00  0.00    +0.165 C 
ATOM     27  C   UNL     1      33.107  -2.281 -25.134  0.00  0.00    +0.011 C 
ATOM     28  C   UNL     1      32.222  -2.717 -23.984  0.00  0.00    +0.075 C 
ATOM     29  C   UNL     1      33.516  -6.279 -23.759  0.00  0.00    +0.237 C 
ATOM     30  C   UNL     1      32.337  -5.617 -21.732  0.00  0.00    +0.096 C 
ATOM     31  C   UNL     1      31.743  -5.813 -20.362  0.00  0.00    +0.062 C 
ENDBRANCH  19  23
ENDBRANCH  18  19
ENDBRANCH   1  18
TORSDOF 4
ENDMDL
MODEL 5
REMARK VINA RESULT:     -11.9      1.365      2.232
REMARK  Name = 5073
REMARK  4 active torsions:
REMARK  status: ('A' for Active; 'I' for Inactive)
REMARK    1  A    between atoms: N_1  and  C_18
REMARK    2  A    between atoms: C_2  and  C_11
REMARK    3  A    between atoms: C_18  and  C_19
REMARK    4  A    between atoms: C_19  and  C_23
REMARK                            x       y       z     vdW  Elec       q    Type
REMARK                         _______ _______ _______ _____ _____    ______ ____
ROOT
ATOM      1  N   UNL     1      36.163 -19.269 -20.026  0.00  0.00    +0.387 N 
ATOM      2  C   UNL     1      35.428 -18.125 -22.626  0.00  0.00    +0.039 C 
ATOM      3  C   UNL     1      34.400 -18.791 -21.696  0.00  0.00    -0.017 C 
ATOM      4  C   UNL     1      36.617 -17.605 -21.801  0.00  0.00    -0.017 C 
ATOM      5  C   UNL     1      35.059 -19.847 -20.805  0.00  0.00    -0.077 C 
ATOM      6  C   UNL     1      37.195 -18.704 -20.906  0.00  0.00    -0.077 C 
ATOM      7  H   UNL     1      35.784 -18.511 -19.458  0.00  0.00    -0.080 HD
ENDROOT
BRANCH   2  11
ATOM      8  F   UNL     1      33.218 -11.821 -23.396  0.00  0.00    -0.204 F 
ATOM      9  O   UNL     1      33.974 -16.179 -25.286  0.00  0.00    -0.354 OA
ATOM     10  N   UNL     1      34.506 -17.352 -24.766  0.00  0.00    -0.081 NA
ATOM     11  C   UNL     1      34.815 -17.058 -23.505  0.00  0.00    +0.100 A 
ATOM     12  C   UNL     1      34.512 -15.734 -23.158  0.00  0.00    +0.054 A 
ATOM     13  C   UNL     1      33.979 -15.215 -24.325  0.00  0.00    +0.179 A 
ATOM     14  C   UNL     1      34.614 -14.908 -22.029  0.00  0.00    +0.007 C 
ATOM     15  C   UNL     1      33.526 -13.906 -24.467  0.00  0.00    +0.070 C 
ATOM     16  C   UNL     1      34.166 -13.583 -22.136  0.00  0.00    +0.030 C 
ATOM     17  C   UNL     1      33.634 -13.093 -23.333  0.00  0.00    +0.143 C 
ENDBRANCH   2  11
BRANCH   1  18
ATOM     18  C   UNL     1      36.744 -20.276 -19.138  0.00  0.00    -0.076 C 
BRANCH  18  19
ATOM     19  C   UNL     1      36.023 -21.604 -19.322  0.00  0.00    -0.007 C 
BRANCH  19  23
ATOM     20  O   UNL     1      37.602 -22.059 -17.075  0.00  0.00    -0.274 OA
ATOM     21  N   UNL     1      35.840 -22.719 -15.702  0.00  0.00    -0.237 N 
ATOM     22  N   UNL     1      33.651 -22.827 -16.594  0.00  0.00    -0.399 NA
ATOM     23  C   UNL     1      35.434 -22.076 -18.025  0.00  0.00    +0.123 C 
ATOM     24  C   UNL     1      36.767 -23.009 -14.603  0.00  0.00    +0.100 C 
ATOM     25  C   UNL     1      36.115 -23.131 -13.238  0.00  0.00    +0.022 C 
ATOM     26  C   UNL     1      34.486 -22.991 -15.618  0.00  0.00    +0.165 C 
ATOM     27  C   UNL     1      34.918 -24.053 -13.340  0.00  0.00    +0.011 C 
ATOM     28  C   UNL     1      33.907 -23.445 -14.290  0.00  0.00    +0.075 C 
ATOM     29  C   UNL     1      36.402 -22.275 -16.901  0.00  0.00    +0.237 C 
ATOM     30  C   UNL     1      34.138 -22.364 -17.793  0.00  0.00    +0.096 C 
ATOM     31  C   UNL     1      33.061 -22.179 -18.830  0.00  0.00    +0.062 C 
ENDBRANCH  19  23
ENDBRANCH  18  19
ENDBRANCH   1  18
TORSDOF 4
ENDMDL
MODEL 6
REMARK VINA RESULT:     -11.9      5.804     10.056
REMARK  Name = 5073
REMARK  4 active torsions:
REMARK  status: ('A' for Active; 'I' for Inactive)
REMARK    1  A    between atoms: N_1  and  C_18
REMARK    2  A    between atoms: C_2  and  C_11
REMARK    3  A    between atoms: C_18  and  C_19
REMARK    4  A    between atoms: C_19  and  C_23
REMARK                            x       y       z     vdW  Elec       q    Type
REMARK                         _______ _______ _______ _____ _____    ______ ____
ROOT
ATOM      1  N   UNL     1      32.388 -11.344 -22.393  0.00  0.00    +0.387 N 
ATOM      2  C   UNL     1      32.661  -8.424 -22.484  0.00  0.00    +0.039 C 
ATOM      3  C   UNL     1      33.100  -9.331 -23.645  0.00  0.00    -0.017 C 
ATOM      4  C   UNL     1      31.571  -9.126 -21.657  0.00  0.00    -0.017 C 
ATOM      5  C   UNL     1      33.489 -10.724 -23.145  0.00  0.00    -0.077 C 
ATOM      6  C   UNL     1      32.015 -10.527 -21.230  0.00  0.00    -0.077 C 
ATOM      7  H   UNL     1      31.579 -11.401 -23.011  0.00  0.00    -0.080 HD
ENDROOT
BRANCH   2  11
ATOM      8  F   UNL     1      34.078  -2.772 -25.840  0.00  0.00    -0.204 F 
ATOM      9  O   UNL     1      30.982  -5.312 -23.176  0.00  0.00    -0.354 OA
ATOM     10  N   UNL     1      31.047  -6.577 -22.606  0.00  0.00    -0.081 NA
ATOM     11  C   UNL     1      32.247  -7.045 -22.945  0.00  0.00    +0.100 A 
ATOM     12  C   UNL     1      32.989  -6.144 -23.721  0.00  0.00    +0.054 A 
ATOM     13  C   UNL     1      32.141  -5.055 -23.842  0.00  0.00    +0.179 A 
ATOM     14  C   UNL     1      34.249  -6.096 -24.336  0.00  0.00    +0.007 C 
ATOM     15  C   UNL     1      32.451  -3.893 -24.542  0.00  0.00    +0.070 C 
ATOM     16  C   UNL     1      34.596  -4.939 -25.049  0.00  0.00    +0.030 C 
ATOM     17  C   UNL     1      33.712  -3.860 -25.149  0.00  0.00    +0.143 C 
ENDBRANCH   2  11
BRANCH   1  18
ATOM     18  C   UNL     1      32.754 -12.696 -21.973  0.00  0.00    -0.076 C 
BRANCH  18  19
ATOM     19  C   UNL     1      34.137 -13.046 -22.503  0.00  0.00    -0.007 C 
BRANCH  19  23
ATOM     20  O   UNL     1      34.927 -15.215 -20.949  0.00  0.00    -0.274 OA
ATOM     21  N   UNL     1      34.628 -16.804 -22.626  0.00  0.00    -0.237 N 
ATOM     22  N   UNL     1      33.929 -16.104 -24.776  0.00  0.00    -0.399 NA
ATOM     23  C   UNL     1      34.162 -14.443 -23.052  0.00  0.00    +0.123 C 
ATOM     24  C   UNL     1      35.139 -17.865 -21.752  0.00  0.00    +0.100 C 
ATOM     25  C   UNL     1      34.814 -19.275 -22.209  0.00  0.00    +0.022 C 
ATOM     26  C   UNL     1      34.303 -17.031 -23.952  0.00  0.00    +0.165 C 
ATOM     27  C   UNL     1      35.164 -19.415 -23.675  0.00  0.00    +0.011 C 
ATOM     28  C   UNL     1      34.312 -18.454 -24.479  0.00  0.00    +0.075 C 
ATOM     29  C   UNL     1      34.605 -15.510 -22.100  0.00  0.00    +0.237 C 
ATOM     30  C   UNL     1      33.858 -14.813 -24.311  0.00  0.00    +0.096 C 
ATOM     31  C   UNL     1      33.372 -13.841 -25.354  0.00  0.00    +0.062 C 
ENDBRANCH  19  23
ENDBRANCH  18  19
ENDBRANCH   1  18
TORSDOF 4
ENDMDL
MODEL 7
REMARK VINA RESULT:     -11.8      5.475     12.121
REMARK  Name = 5073
REMARK  4 active torsions:
REMARK  status: ('A' for Active; 'I' for Inactive)
REMARK    1  A    between atoms: N_1  and  C_18
REMARK    2  A    between atoms: C_2  and  C_11
REMARK    3  A    between atoms: C_18  and  C_19
REMARK    4  A    between atoms: C_19  and  C_23
REMARK                            x       y       z     vdW  Elec       q    Type
REMARK                         _______ _______ _______ _____ _____    ______ ____
ROOT
ATOM      1  N   UNL     1      33.338 -12.389 -24.265  0.00  0.00    +0.387 N 
ATOM      2  C   UNL     1      34.457 -15.096 -24.091  0.00  0.00    +0.039 C 
ATOM      3  C   UNL     1      34.098 -14.269 -22.845  0.00  0.00    -0.017 C 
ATOM      4  C   UNL     1      33.616 -14.626 -25.289  0.00  0.00    -0.017 C 
ATOM      5  C   UNL     1      34.191 -12.768 -23.129  0.00  0.00    -0.077 C 
ATOM      6  C   UNL     1      33.726 -13.112 -25.484  0.00  0.00    -0.077 C 
ATOM      7  H   UNL     1      32.378 -12.649 -24.037  0.00  0.00    -0.080 HD
ENDROOT
BRANCH   2  11
ATOM      8  F   UNL     1      35.808 -20.457 -20.263  0.00  0.00    -0.204 F 
ATOM      9  O   UNL     1      33.795 -18.635 -24.232  0.00  0.00    -0.354 OA
ATOM     10  N   UNL     1      33.710 -17.344 -24.738  0.00  0.00    -0.081 NA
ATOM     11  C   UNL     1      34.352 -16.586 -23.852  0.00  0.00    +0.100 A 
ATOM     12  C   UNL     1      34.864 -17.317 -22.771  0.00  0.00    +0.054 A 
ATOM     13  C   UNL     1      34.483 -18.617 -23.058  0.00  0.00    +0.179 A 
ATOM     14  C   UNL     1      35.589 -17.064 -21.597  0.00  0.00    +0.007 C 
ATOM     15  C   UNL     1      34.771 -19.714 -22.252  0.00  0.00    +0.070 C 
ATOM     16  C   UNL     1      35.898 -18.147 -20.762  0.00  0.00    +0.030 C 
ATOM     17  C   UNL     1      35.495 -19.447 -21.086  0.00  0.00    +0.143 C 
ENDBRANCH   2  11
BRANCH   1  18
ATOM     18  C   UNL     1      33.394 -10.944 -24.486  0.00  0.00    -0.076 C 
BRANCH  18  19
ATOM     19  C   UNL     1      33.998 -10.258 -23.270  0.00  0.00    -0.007 C 
BRANCH  19  23
ATOM     20  O   UNL     1      34.664  -7.699 -24.137  0.00  0.00    -0.274 OA
ATOM     21  N   UNL     1      32.904  -6.634 -23.045  0.00  0.00    -0.237 N 
ATOM     22  N   UNL     1      31.424  -7.911 -21.712  0.00  0.00    -0.399 NA
ATOM     23  C   UNL     1      33.189  -9.055 -22.878  0.00  0.00    +0.123 C 
ATOM     24  C   UNL     1      33.387  -5.321 -23.485  0.00  0.00    +0.100 C 
ATOM     25  C   UNL     1      32.368  -4.201 -23.377  0.00  0.00    +0.022 C 
ATOM     26  C   UNL     1      31.827  -6.776 -22.188  0.00  0.00    +0.165 C 
ATOM     27  C   UNL     1      31.739  -4.235 -22.000  0.00  0.00    +0.011 C 
ATOM     28  C   UNL     1      31.010  -5.550 -21.824  0.00  0.00    +0.075 C 
ATOM     29  C   UNL     1      33.664  -7.744 -23.422  0.00  0.00    +0.237 C 
ATOM     30  C   UNL     1      32.112  -9.046 -22.068  0.00  0.00    +0.096 C 
ATOM     31  C   UNL     1      31.519 -10.299 -21.481  0.00  0.00    +0.062 C 
ENDBRANCH  19  23
ENDBRANCH  18  19
ENDBRANCH   1  18
TORSDOF 4
ENDMDL
MODEL 8
REMARK VINA RESULT:     -11.8      3.876     10.363
REMARK  Name = 5073
REMARK  4 active torsions:
REMARK  status: ('A' for Active; 'I' for Inactive)
REMARK    1  A    between atoms: N_1  and  C_18
REMARK    2  A    between atoms: C_2  and  C_11
REMARK    3  A    between atoms: C_18  and  C_19
REMARK    4  A    between atoms: C_19  and  C_23
REMARK                            x       y       z     vdW  Elec       q    Type
REMARK                         _______ _______ _______ _____ _____    ______ ____
ROOT
ATOM      1  N   UNL     1      35.279 -15.829 -23.327  0.00  0.00    +0.387 N 
ATOM      2  C   UNL     1      34.826 -18.089 -21.511  0.00  0.00    +0.039 C 
ATOM      3  C   UNL     1      35.226 -18.280 -22.983  0.00  0.00    -0.017 C 
ATOM      4  C   UNL     1      35.304 -16.715 -21.015  0.00  0.00    -0.017 C 
ATOM      5  C   UNL     1      34.758 -17.103 -23.843  0.00  0.00    -0.077 C 
ATOM      6  C   UNL     1      34.834 -15.595 -21.946  0.00  0.00    -0.077 C 
ATOM      7  H   UNL     1      36.298 -15.885 -23.324  0.00  0.00    -0.080 HD
ENDROOT
BRANCH   2  11
ATOM      8  F   UNL     1      33.384 -23.476 -17.753  0.00  0.00    -0.204 F 
ATOM      9  O   UNL     1      36.683 -20.475 -19.552  0.00  0.00    -0.354 OA
ATOM     10  N   UNL     1      36.594 -19.361 -20.376  0.00  0.00    -0.081 NA
ATOM     11  C   UNL     1      35.294 -19.224 -20.628  0.00  0.00    +0.100 A 
ATOM     12  C   UNL     1      34.507 -20.203 -20.005  0.00  0.00    +0.054 A 
ATOM     13  C   UNL     1      35.438 -20.977 -19.332  0.00  0.00    +0.179 A 
ATOM     14  C   UNL     1      33.149 -20.543 -19.917  0.00  0.00    +0.007 C 
ATOM     15  C   UNL     1      35.121 -22.090 -18.559  0.00  0.00    +0.070 C 
ATOM     16  C   UNL     1      32.793 -21.658 -19.145  0.00  0.00    +0.030 C 
ATOM     17  C   UNL     1      33.762 -22.416 -18.480  0.00  0.00    +0.143 C 
ENDBRANCH   2  11
BRANCH   1  18
ATOM     18  C   UNL     1      34.871 -14.722 -24.191  0.00  0.00    -0.076 C 
BRANCH  18  19
ATOM     19  C   UNL     1      33.419 -14.360 -23.917  0.00  0.00    -0.007 C 
BRANCH  19  23
ATOM     20  O   UNL     1      32.397 -13.265 -21.572  0.00  0.00    -0.274 OA
ATOM     21  N   UNL     1      32.556 -11.051 -22.280  0.00  0.00    -0.237 N 
ATOM     22  N   UNL     1      33.348 -10.584 -24.460  0.00  0.00    -0.399 NA
ATOM     23  C   UNL     1      33.261 -12.878 -23.741  0.00  0.00    +0.123 C 
ATOM     24  C   UNL     1      31.931 -10.579 -21.040  0.00  0.00    +0.100 C 
ATOM     25  C   UNL     1      32.119  -9.100 -20.757  0.00  0.00    +0.022 C 
ATOM     26  C   UNL     1      32.873 -10.195 -23.320  0.00  0.00    +0.165 C 
ATOM     27  C   UNL     1      31.775  -8.309 -22.001  0.00  0.00    +0.011 C 
ATOM     28  C   UNL     1      32.728  -8.699 -23.112  0.00  0.00    +0.075 C 
ATOM     29  C   UNL     1      32.702 -12.432 -22.426  0.00  0.00    +0.237 C 
ATOM     30  C   UNL     1      33.542 -11.930 -24.657  0.00  0.00    +0.096 C 
ATOM     31  C   UNL     1      34.136 -12.246 -26.005  0.00  0.00    +0.062 C 
ENDBRANCH  19  23
ENDBRANCH  18  19
ENDBRANCH   1  18
TORSDOF 4
ENDMDL
MODEL 9
REMARK VINA RESULT:     -11.7      3.470     10.143
REMARK  Name = 5073
REMARK  4 active torsions:
REMARK  status: ('A' for Active; 'I' for Inactive)
REMARK    1  A    between atoms: N_1  and  C_18
REMARK    2  A    between atoms: C_2  and  C_11
REMARK    3  A    between atoms: C_18  and  C_19
REMARK    4  A    between atoms: C_19  and  C_23
REMARK                            x       y       z     vdW  Elec       q    Type
REMARK                         _______ _______ _______ _____ _____    ______ ____
ROOT
ATOM      1  N   UNL     1      34.274 -20.048 -20.283  0.00  0.00    +0.387 N 
ATOM      2  C   UNL     1      34.200 -22.232 -18.326  0.00  0.00    +0.039 C 
ATOM      3  C   UNL     1      35.486 -21.451 -18.643  0.00  0.00    -0.017 C 
ATOM      4  C   UNL     1      32.971 -21.363 -18.641  0.00  0.00    -0.017 C 
ATOM      5  C   UNL     1      35.459 -20.891 -20.067  0.00  0.00    -0.077 C 
ATOM      6  C   UNL     1      33.036 -20.807 -20.066  0.00  0.00    -0.077 C 
ATOM      7  H   UNL     1      34.302 -19.288 -19.604  0.00  0.00    -0.080 HD
ENDROOT
BRANCH   2  11
ATOM      8  F   UNL     1      37.413 -23.447 -12.545  0.00  0.00    -0.204 F 
ATOM      9  O   UNL     1      33.376 -23.711 -15.146  0.00  0.00    -0.354 OA
ATOM     10  N   UNL     1      33.060 -23.313 -16.438  0.00  0.00    -0.081 NA
ATOM     11  C   UNL     1      34.182 -22.779 -16.916  0.00  0.00    +0.100 A 
ATOM     12  C   UNL     1      35.239 -22.804 -15.995  0.00  0.00    +0.054 A 
ATOM     13  C   UNL     1      34.676 -23.406 -14.883  0.00  0.00    +0.179 A 
ATOM     14  C   UNL     1      36.582 -22.403 -15.945  0.00  0.00    +0.007 C 
ATOM     15  C   UNL     1      35.357 -23.649 -13.693  0.00  0.00    +0.070 C 
ATOM     16  C   UNL     1      37.299 -22.633 -14.762  0.00  0.00    +0.030 C 
ATOM     17  C   UNL     1      36.696 -23.244 -13.659  0.00  0.00    +0.143 C 
ENDBRANCH   2  11
BRANCH   1  18
ATOM     18  C   UNL     1      34.294 -19.475 -21.630  0.00  0.00    -0.076 C 
BRANCH  18  19
ATOM     19  C   UNL     1      35.332 -18.364 -21.704  0.00  0.00    -0.007 C 
BRANCH  19  23
ATOM     20  O   UNL     1      35.086 -15.723 -20.864  0.00  0.00    -0.274 OA
ATOM     21  N   UNL     1      34.380 -14.904 -22.927  0.00  0.00    -0.237 N 
ATOM     22  N   UNL     1      34.091 -16.404 -24.734  0.00  0.00    -0.399 NA
ATOM     23  C   UNL     1      34.885 -17.277 -22.638  0.00  0.00    +0.123 C 
ATOM     24  C   UNL     1      34.203 -13.560 -22.366  0.00  0.00    +0.100 C 
ATOM     25  C   UNL     1      34.104 -12.450 -23.396  0.00  0.00    +0.022 C 
ATOM     26  C   UNL     1      34.027 -15.213 -24.228  0.00  0.00    +0.165 C 
ATOM     27  C   UNL     1      33.103 -12.848 -24.460  0.00  0.00    +0.011 C 
ATOM     28  C   UNL     1      33.600 -14.095 -25.162  0.00  0.00    +0.075 C 
ATOM     29  C   UNL     1      34.802 -15.904 -22.048  0.00  0.00    +0.237 C 
ATOM     30  C   UNL     1      34.526 -17.429 -23.927  0.00  0.00    +0.096 C 
ATOM     31  C   UNL     1      34.592 -18.751 -24.645  0.00  0.00    +0.062 C 
ENDBRANCH  19  23
ENDBRANCH  18  19
ENDBRANCH   1  18
TORSDOF 4
ENDMDL
