MODEL 1
REMARK VINA RESULT:     -12.1      0.000      0.000
REMARK  Name = 24808489
REMARK  4 active torsions:
REMARK  status: ('A' for Active; 'I' for Inactive)
REMARK    1  A    between atoms: N_1  and  C_10
REMARK    2  A    between atoms: N_1  and  C_21
REMARK    3  A    between atoms: C_18  and  C_24
REMARK    4  A    between atoms: C_24  and  N_25
REMARK                            x       y       z     vdW  Elec       q    Type
REMARK                         _______ _______ _______ _____ _____    ______ ____
ROOT
ATOM      1  N   UNL     1      34.354 -22.575 -18.424  0.00  0.00    -0.311 N 
ATOM      2  H   UNL     1      34.943 -23.363 -18.444  0.00  0.00    +0.152 HD
ENDROOT
BRANCH   1  10
ATOM      3 BR   UNL     1      27.786 -22.730 -16.233  0.00  0.00    -0.049 Br
ATOM      4  O   UNL     1      35.558 -23.198 -16.278  0.00  0.00    -0.270 OA
ATOM      5  O   UNL     1      33.286 -24.047 -12.382  0.00  0.00    -0.270 OA
ATOM      6  N   UNL     1      34.384 -23.615 -14.353  0.00  0.00    -0.248 N 
ATOM      7  C   UNL     1      33.166 -23.026 -16.366  0.00  0.00    +0.068 C 
ATOM      8  C   UNL     1      31.902 -23.142 -15.605  0.00  0.00    +0.010 C 
ATOM      9  C   UNL     1      31.950 -23.491 -14.245  0.00  0.00    +0.054 C 
ATOM     10  C   UNL     1      33.241 -22.698 -17.668  0.00  0.00    +0.066 C 
ATOM     11  C   UNL     1      34.480 -23.279 -15.695  0.00  0.00    +0.253 C 
ATOM     12  C   UNL     1      30.638 -22.918 -16.178  0.00  0.00    +0.007 C 
ATOM     13  C   UNL     1      33.243 -23.743 -13.570  0.00  0.00    +0.252 C 
ATOM     14  C   UNL     1      30.773 -23.612 -13.488  0.00  0.00    +0.005 C 
ATOM     15  C   UNL     1      29.466 -23.039 -15.423  0.00  0.00    +0.035 C 
ATOM     16  C   UNL     1      29.534 -23.385 -14.080  0.00  0.00    +0.007 C 
ATOM     17  H   UNL     1      35.239 -23.786 -13.894  0.00  0.00    +0.158 HD
ENDBRANCH   1  10
BRANCH   1  21
ATOM     18  C   UNL     1      35.642 -19.286 -20.693  0.00  0.00    -0.043 C 
ATOM     19  C   UNL     1      36.574 -20.083 -20.028  0.00  0.00    -0.005 C 
ATOM     20  C   UNL     1      34.282 -19.582 -20.604  0.00  0.00    -0.005 C 
ATOM     21  C   UNL     1      34.786 -21.471 -19.185  0.00  0.00    +0.048 C 
ATOM     22  C   UNL     1      36.146 -21.175 -19.274  0.00  0.00    +0.014 C 
ATOM     23  C   UNL     1      33.854 -20.674 -19.850  0.00  0.00    +0.014 C 
BRANCH  18  24
ATOM     24  C   UNL     1      36.100 -18.118 -21.499  0.00  0.00    -0.050 C 
BRANCH  24  25
ATOM     25  N   UNL     1      35.045 -17.579 -22.345  0.00  0.00    +0.390 N 
ATOM     26  C   UNL     1      35.222 -16.153 -22.618  0.00  0.00    -0.077 C 
ATOM     27  C   UNL     1      35.005 -18.216 -23.661  0.00  0.00    -0.077 C 
ATOM     28  C   UNL     1      34.280 -15.910 -23.788  0.00  0.00    -0.025 C 
ATOM     29  C   UNL     1      34.135 -17.267 -24.471  0.00  0.00    -0.025 C 
ATOM     30  H   UNL     1      34.191 -17.756 -21.816  0.00  0.00    -0.079 HD
ENDBRANCH  24  25
ENDBRANCH  18  24
ENDBRANCH   1  21
TORSDOF 4
ENDMDL
MODEL 2
REMARK VINA RESULT:     -11.4      2.501      3.240
REMARK  Name = 24808489
REMARK  4 active torsions:
REMARK  status: ('A' for Active; 'I' for Inactive)
REMARK    1  A    between atoms: N_1  and  C_10
REMARK    2  A    between atoms: N_1  and  C_21
REMARK    3  A    between atoms: C_18  and  C_24
REMARK    4  A    between atoms: C_24  and  N_25
REMARK                            x       y       z     vdW  Elec       q    Type
REMARK                         _______ _______ _______ _____ _____    ______ ____
ROOT
ATOM      1  N   UNL     1      33.719 -22.275 -18.444  0.00  0.00    -0.311 N 
ATOM      2  H   UNL     1      32.885 -22.691 -18.760  0.00  0.00    +0.152 HD
ENDROOT
BRANCH   1  10
ATOM      3 BR   UNL     1      37.754 -24.373 -13.220  0.00  0.00    -0.049 Br
ATOM      4  O   UNL     1      31.439 -22.419 -17.336  0.00  0.00    -0.270 OA
ATOM      5  O   UNL     1      30.940 -23.803 -12.989  0.00  0.00    -0.270 OA
ATOM      6  N   UNL     1      31.234 -23.115 -15.161  0.00  0.00    -0.248 N 
ATOM      7  C   UNL     1      33.445 -23.001 -16.153  0.00  0.00    +0.068 C 
ATOM      8  C   UNL     1      34.016 -23.475 -14.873  0.00  0.00    +0.010 C 
ATOM      9  C   UNL     1      33.155 -23.747 -13.796  0.00  0.00    +0.054 C 
ATOM     10  C   UNL     1      34.170 -22.711 -17.247  0.00  0.00    +0.066 C 
ATOM     11  C   UNL     1      31.968 -22.811 -16.299  0.00  0.00    +0.253 C 
ATOM     12  C   UNL     1      35.394 -23.672 -14.673  0.00  0.00    +0.007 C 
ATOM     13  C   UNL     1      31.692 -23.564 -13.928  0.00  0.00    +0.252 C 
ATOM     14  C   UNL     1      33.658 -24.199 -12.565  0.00  0.00    +0.005 C 
ATOM     15  C   UNL     1      35.894 -24.122 -13.447  0.00  0.00    +0.035 C 
ATOM     16  C   UNL     1      35.027 -24.385 -12.394  0.00  0.00    +0.007 C 
ATOM     17  H   UNL     1      30.259 -22.996 -15.237  0.00  0.00    +0.158 HD
ENDBRANCH   1  10
BRANCH   1  21
ATOM     18  C   UNL     1      35.392 -19.392 -20.995  0.00  0.00    -0.043 C 
ATOM     19  C   UNL     1      36.218 -20.165 -20.178  0.00  0.00    -0.005 C 
ATOM     20  C   UNL     1      34.010 -19.576 -20.963  0.00  0.00    -0.005 C 
ATOM     21  C   UNL     1      34.280 -21.307 -19.299  0.00  0.00    +0.048 C 
ATOM     22  C   UNL     1      35.662 -21.122 -19.331  0.00  0.00    +0.014 C 
ATOM     23  C   UNL     1      33.454 -20.534 -20.116  0.00  0.00    +0.014 C 
BRANCH  18  24
ATOM     24  C   UNL     1      35.987 -18.368 -21.901  0.00  0.00    -0.050 C 
BRANCH  24  25
ATOM     25  N   UNL     1      34.982 -17.498 -22.493  0.00  0.00    +0.390 N 
ATOM     26  C   UNL     1      35.244 -16.083 -22.234  0.00  0.00    -0.077 C 
ATOM     27  C   UNL     1      34.931 -17.615 -23.950  0.00  0.00    -0.077 C 
ATOM     28  C   UNL     1      34.340 -15.379 -23.235  0.00  0.00    -0.025 C 
ATOM     29  C   UNL     1      34.131 -16.388 -24.361  0.00  0.00    -0.025 C 
ATOM     30  H   UNL     1      34.108 -17.802 -22.062  0.00  0.00    -0.079 HD
ENDBRANCH  24  25
ENDBRANCH  18  24
ENDBRANCH   1  21
TORSDOF 4
ENDMDL
MODEL 3
REMARK VINA RESULT:     -11.1      8.569     13.240
REMARK  Name = 24808489
REMARK  4 active torsions:
REMARK  status: ('A' for Active; 'I' for Inactive)
REMARK    1  A    between atoms: N_1  and  C_10
REMARK    2  A    between atoms: N_1  and  C_21
REMARK    3  A    between atoms: C_18  and  C_24
REMARK    4  A    between atoms: C_24  and  N_25
REMARK                            x       y       z     vdW  Elec       q    Type
REMARK                         _______ _______ _______ _____ _____    ______ ____
ROOT
ATOM      1  N   UNL     1      31.709 -11.415 -21.657  0.00  0.00    -0.311 N 
ATOM      2  H   UNL     1      30.913 -11.655 -21.131  0.00  0.00    +0.152 HD
ENDROOT
BRANCH   1  10
ATOM      3 BR   UNL     1      31.893  -5.483 -25.227  0.00  0.00    -0.049 Br
ATOM      4  O   UNL     1      32.104 -10.538 -19.308  0.00  0.00    -0.270 OA
ATOM      5  O   UNL     1      32.702  -6.067 -18.459  0.00  0.00    -0.270 OA
ATOM      6  N   UNL     1      32.398  -8.296 -18.927  0.00  0.00    -0.248 N 
ATOM      7  C   UNL     1      32.023  -9.061 -21.199  0.00  0.00    +0.068 C 
ATOM      8  C   UNL     1      32.116  -7.658 -21.660  0.00  0.00    +0.010 C 
ATOM      9  C   UNL     1      32.348  -6.641 -20.719  0.00  0.00    +0.054 C 
ATOM     10  C   UNL     1      31.806 -10.114 -22.006  0.00  0.00    +0.066 C 
ATOM     11  C   UNL     1      32.173  -9.392 -19.747  0.00  0.00    +0.253 C 
ATOM     12  C   UNL     1      31.984  -7.283 -23.008  0.00  0.00    +0.007 C 
ATOM     13  C   UNL     1      32.499  -6.956 -19.281  0.00  0.00    +0.252 C 
ATOM     14  C   UNL     1      32.443  -5.297 -21.117  0.00  0.00    +0.005 C 
ATOM     15  C   UNL     1      32.078  -5.945 -23.403  0.00  0.00    +0.035 C 
ATOM     16  C   UNL     1      32.307  -4.953 -22.459  0.00  0.00    +0.007 C 
ATOM     17  H   UNL     1      32.498  -8.493 -17.968  0.00  0.00    +0.158 HD
ENDBRANCH   1  10
BRANCH   1  21
ATOM     18  C   UNL     1      34.344 -14.569 -22.511  0.00  0.00    -0.043 C 
ATOM     19  C   UNL     1      33.901 -13.733 -23.536  0.00  0.00    -0.005 C 
ATOM     20  C   UNL     1      33.911 -14.357 -21.202  0.00  0.00    -0.005 C 
ATOM     21  C   UNL     1      32.592 -12.474 -21.943  0.00  0.00    +0.048 C 
ATOM     22  C   UNL     1      33.025 -12.685 -23.252  0.00  0.00    +0.014 C 
ATOM     23  C   UNL     1      33.036 -13.310 -20.918  0.00  0.00    +0.014 C 
BRANCH  18  24
ATOM     24  C   UNL     1      35.280 -15.689 -22.815  0.00  0.00    -0.050 C 
BRANCH  24  25
ATOM     25  N   UNL     1      34.597 -16.969 -22.924  0.00  0.00    +0.390 N 
ATOM     26  C   UNL     1      34.321 -17.339 -24.312  0.00  0.00    -0.077 C 
ATOM     27  C   UNL     1      35.391 -18.074 -22.387  0.00  0.00    -0.077 C 
ATOM     28  C   UNL     1      33.985 -18.819 -24.211  0.00  0.00    -0.025 C 
ATOM     29  C   UNL     1      34.686 -19.302 -22.945  0.00  0.00    -0.025 C 
ATOM     30  H   UNL     1      33.735 -16.835 -22.394  0.00  0.00    -0.079 HD
ENDBRANCH  24  25
ENDBRANCH  18  24
ENDBRANCH   1  21
TORSDOF 4
ENDMDL
MODEL 4
REMARK VINA RESULT:     -10.5      1.483      2.032
REMARK  Name = 24808489
REMARK  4 active torsions:
REMARK  status: ('A' for Active; 'I' for Inactive)
REMARK    1  A    between atoms: N_1  and  C_10
REMARK    2  A    between atoms: N_1  and  C_21
REMARK    3  A    between atoms: C_18  and  C_24
REMARK    4  A    between atoms: C_24  and  N_25
REMARK                            x       y       z     vdW  Elec       q    Type
REMARK                         _______ _______ _______ _____ _____    ______ ____
ROOT
ATOM      1  N   UNL     1      35.252 -21.665 -19.374  0.00  0.00    -0.311 N 
ATOM      2  H   UNL     1      35.980 -22.317 -19.483  0.00  0.00    +0.152 HD
ENDROOT
BRANCH   1  10
ATOM      3 BR   UNL     1      29.191 -23.001 -16.300  0.00  0.00    -0.049 Br
ATOM      4  O   UNL     1      36.845 -22.154 -17.459  0.00  0.00    -0.270 OA
ATOM      5  O   UNL     1      35.339 -23.514 -13.342  0.00  0.00    -0.270 OA
ATOM      6  N   UNL     1      36.051 -22.832 -15.418  0.00  0.00    -0.248 N 
ATOM      7  C   UNL     1      34.469 -22.384 -17.202  0.00  0.00    +0.068 C 
ATOM      8  C   UNL     1      33.368 -22.738 -16.280  0.00  0.00    +0.010 C 
ATOM      9  C   UNL     1      33.671 -23.123 -14.963  0.00  0.00    +0.054 C 
ATOM     10  C   UNL     1      34.298 -22.001 -18.479  0.00  0.00    +0.066 C 
ATOM     11  C   UNL     1      35.891 -22.436 -16.738  0.00  0.00    +0.253 C 
ATOM     12  C   UNL     1      32.013 -22.709 -16.656  0.00  0.00    +0.007 C 
ATOM     13  C   UNL     1      35.073 -23.178 -14.492  0.00  0.00    +0.252 C 
ATOM     14  C   UNL     1      32.654 -23.468 -14.058  0.00  0.00    +0.005 C 
ATOM     15  C   UNL     1      31.001 -23.052 -15.754  0.00  0.00    +0.035 C 
ATOM     16  C   UNL     1      31.321 -23.431 -14.456  0.00  0.00    +0.007 C 
ATOM     17  H   UNL     1      36.980 -22.874 -15.094  0.00  0.00    +0.158 HD
ENDBRANCH   1  10
BRANCH   1  21
ATOM     18  C   UNL     1      35.533 -18.216 -21.751  0.00  0.00    -0.043 C 
ATOM     19  C   UNL     1      36.607 -18.599 -20.947  0.00  0.00    -0.005 C 
ATOM     20  C   UNL     1      34.365 -18.978 -21.765  0.00  0.00    -0.005 C 
ATOM     21  C   UNL     1      35.346 -20.507 -20.171  0.00  0.00    +0.048 C 
ATOM     22  C   UNL     1      36.513 -19.745 -20.158  0.00  0.00    +0.014 C 
ATOM     23  C   UNL     1      34.271 -20.124 -20.975  0.00  0.00    +0.014 C 
BRANCH  18  24
ATOM     24  C   UNL     1      35.633 -16.990 -22.595  0.00  0.00    -0.050 C 
BRANCH  24  25
ATOM     25  N   UNL     1      34.614 -16.005 -22.266  0.00  0.00    +0.390 N 
ATOM     26  C   UNL     1      34.825 -15.400 -20.951  0.00  0.00    -0.077 C 
ATOM     27  C   UNL     1      34.600 -14.882 -23.203  0.00  0.00    -0.077 C 
ATOM     28  C   UNL     1      33.922 -14.176 -20.989  0.00  0.00    -0.025 C 
ATOM     29  C   UNL     1      33.772 -13.838 -22.469  0.00  0.00    -0.025 C 
ATOM     30  H   UNL     1      33.741 -16.532 -22.300  0.00  0.00    -0.079 HD
ENDBRANCH  24  25
ENDBRANCH  18  24
ENDBRANCH   1  21
TORSDOF 4
ENDMDL
MODEL 5
REMARK VINA RESULT:     -10.1      3.590      5.149
REMARK  Name = 24808489
REMARK  4 active torsions:
REMARK  status: ('A' for Active; 'I' for Inactive)
REMARK    1  A    between atoms: N_1  and  C_10
REMARK    2  A    between atoms: N_1  and  C_21
REMARK    3  A    between atoms: C_18  and  C_24
REMARK    4  A    between atoms: C_24  and  N_25
REMARK                            x       y       z     vdW  Elec       q    Type
REMARK                         _______ _______ _______ _____ _____    ______ ____
ROOT
ATOM      1  N   UNL     1      33.932 -23.455 -16.196  0.00  0.00    -0.311 N 
ATOM      2  H   UNL     1      33.087 -23.793 -15.822  0.00  0.00    +0.152 HD
ENDROOT
BRANCH   1  10
ATOM      3 BR   UNL     1      40.421 -25.411 -14.768  0.00  0.00    -0.049 Br
ATOM      4  O   UNL     1      32.891 -23.632 -13.887  0.00  0.00    -0.270 OA
ATOM      5  O   UNL     1      35.318 -24.976 -10.231  0.00  0.00    -0.270 OA
ATOM      6  N   UNL     1      34.140 -24.308 -12.087  0.00  0.00    -0.248 N 
ATOM      7  C   UNL     1      35.203 -24.160 -14.262  0.00  0.00    +0.068 C 
ATOM      8  C   UNL     1      36.471 -24.608 -13.645  0.00  0.00    +0.010 C 
ATOM      9  C   UNL     1      36.504 -24.885 -12.269  0.00  0.00    +0.054 C 
ATOM     10  C   UNL     1      35.054 -23.868 -15.566  0.00  0.00    +0.066 C 
ATOM     11  C   UNL     1      33.970 -24.002 -13.429  0.00  0.00    +0.253 C 
ATOM     12  C   UNL     1      37.662 -24.775 -14.374  0.00  0.00    +0.007 C 
ATOM     13  C   UNL     1      35.291 -24.733 -11.434  0.00  0.00    +0.252 C 
ATOM     14  C   UNL     1      37.688 -25.312 -11.646  0.00  0.00    +0.005 C 
ATOM     15  C   UNL     1      38.840 -25.200 -13.752  0.00  0.00    +0.035 C 
ATOM     16  C   UNL     1      38.853 -25.469 -12.390  0.00  0.00    +0.007 C 
ATOM     17  H   UNL     1      33.340 -24.209 -11.521  0.00  0.00    +0.158 HD
ENDBRANCH   1  10
BRANCH   1  21
ATOM     18  C   UNL     1      33.563 -20.928 -19.528  0.00  0.00    -0.043 C 
ATOM     19  C   UNL     1      32.428 -21.311 -18.813  0.00  0.00    -0.005 C 
ATOM     20  C   UNL     1      34.821 -21.386 -19.135  0.00  0.00    -0.005 C 
ATOM     21  C   UNL     1      33.808 -22.608 -17.314  0.00  0.00    +0.048 C 
ATOM     22  C   UNL     1      32.551 -22.151 -17.707  0.00  0.00    +0.014 C 
ATOM     23  C   UNL     1      34.944 -22.225 -18.029  0.00  0.00    +0.014 C 
BRANCH  18  24
ATOM     24  C   UNL     1      33.432 -20.031 -20.711  0.00  0.00    -0.050 C 
BRANCH  24  25
ATOM     25  N   UNL     1      34.719 -19.698 -21.302  0.00  0.00    +0.390 N 
ATOM     26  C   UNL     1      34.610 -19.341 -22.716  0.00  0.00    -0.077 C 
ATOM     27  C   UNL     1      35.342 -18.539 -20.664  0.00  0.00    -0.077 C 
ATOM     28  C   UNL     1      35.947 -18.674 -23.004  0.00  0.00    -0.025 C 
ATOM     29  C   UNL     1      36.430 -18.149 -21.655  0.00  0.00    -0.025 C 
ATOM     30  H   UNL     1      35.277 -20.542 -21.170  0.00  0.00    -0.079 HD
ENDBRANCH  24  25
ENDBRANCH  18  24
ENDBRANCH   1  21
TORSDOF 4
ENDMDL
MODEL 6
REMARK VINA RESULT:     -10.0      3.177      4.344
REMARK  Name = 24808489
REMARK  4 active torsions:
REMARK  status: ('A' for Active; 'I' for Inactive)
REMARK    1  A    between atoms: N_1  and  C_10
REMARK    2  A    between atoms: N_1  and  C_21
REMARK    3  A    between atoms: C_18  and  C_24
REMARK    4  A    between atoms: C_24  and  N_25
REMARK                            x       y       z     vdW  Elec       q    Type
REMARK                         _______ _______ _______ _____ _____    ______ ____
ROOT
ATOM      1  N   UNL     1      34.665 -22.421 -17.498  0.00  0.00    -0.311 N 
ATOM      2  H   UNL     1      33.711 -22.645 -17.408  0.00  0.00    +0.152 HD
ENDROOT
BRANCH   1  10
ATOM      3 BR   UNL     1      40.154 -25.286 -14.393  0.00  0.00    -0.049 Br
ATOM      4  O   UNL     1      32.954 -22.590 -15.630  0.00  0.00    -0.270 OA
ATOM      5  O   UNL     1      33.984 -24.442 -11.559  0.00  0.00    -0.270 OA
ATOM      6  N   UNL     1      33.510 -23.523 -13.611  0.00  0.00    -0.248 N 
ATOM      7  C   UNL     1      35.198 -23.394 -15.348  0.00  0.00    +0.068 C 
ATOM      8  C   UNL     1      36.160 -24.037 -14.427  0.00  0.00    +0.010 C 
ATOM      9  C   UNL     1      35.739 -24.393 -13.134  0.00  0.00    +0.054 C 
ATOM     10  C   UNL     1      35.489 -23.012 -16.604  0.00  0.00    +0.066 C 
ATOM     11  C   UNL     1      33.794 -23.123 -14.908  0.00  0.00    +0.253 C 
ATOM     12  C   UNL     1      37.492 -24.318 -14.780  0.00  0.00    +0.007 C 
ATOM     13  C   UNL     1      34.353 -24.131 -12.688  0.00  0.00    +0.252 C 
ATOM     14  C   UNL     1      36.622 -25.006 -12.230  0.00  0.00    +0.005 C 
ATOM     15  C   UNL     1      38.370 -24.928 -13.878  0.00  0.00    +0.035 C 
ATOM     16  C   UNL     1      37.936 -25.272 -12.605  0.00  0.00    +0.007 C 
ATOM     17  H   UNL     1      32.591 -23.352 -13.302  0.00  0.00    +0.158 HD
ENDBRANCH   1  10
BRANCH   1  21
ATOM     18  C   UNL     1      35.623 -19.761 -20.600  0.00  0.00    -0.043 C 
ATOM     19  C   UNL     1      34.290 -20.085 -20.346  0.00  0.00    -0.005 C 
ATOM     20  C   UNL     1      36.638 -20.321 -19.824  0.00  0.00    -0.005 C 
ATOM     21  C   UNL     1      34.987 -21.529 -18.539  0.00  0.00    +0.048 C 
ATOM     22  C   UNL     1      33.973 -20.970 -19.315  0.00  0.00    +0.014 C 
ATOM     23  C   UNL     1      36.320 -21.205 -18.793  0.00  0.00    +0.014 C 
BRANCH  18  24
ATOM     24  C   UNL     1      35.963 -18.816 -21.703  0.00  0.00    -0.050 C 
BRANCH  24  25
ATOM     25  N   UNL     1      34.805 -18.471 -22.515  0.00  0.00    +0.390 N 
ATOM     26  C   UNL     1      34.942 -17.163 -23.154  0.00  0.00    -0.077 C 
ATOM     27  C   UNL     1      34.594 -19.412 -23.614  0.00  0.00    -0.077 C 
ATOM     28  C   UNL     1      33.854 -17.187 -24.217  0.00  0.00    -0.025 C 
ATOM     29  C   UNL     1      33.623 -18.666 -24.518  0.00  0.00    -0.025 C 
ATOM     30  H   UNL     1      34.028 -18.486 -21.854  0.00  0.00    -0.079 HD
ENDBRANCH  24  25
ENDBRANCH  18  24
ENDBRANCH   1  21
TORSDOF 4
ENDMDL
MODEL 7
REMARK VINA RESULT:      -9.9      2.903      3.913
REMARK  Name = 24808489
REMARK  4 active torsions:
REMARK  status: ('A' for Active; 'I' for Inactive)
REMARK    1  A    between atoms: N_1  and  C_10
REMARK    2  A    between atoms: N_1  and  C_21
REMARK    3  A    between atoms: C_18  and  C_24
REMARK    4  A    between atoms: C_24  and  N_25
REMARK                            x       y       z     vdW  Elec       q    Type
REMARK                         _______ _______ _______ _____ _____    ______ ____
ROOT
ATOM      1  N   UNL     1      35.120 -21.459 -20.211  0.00  0.00    -0.311 N 
ATOM      2  H   UNL     1      34.896 -22.172 -20.851  0.00  0.00    +0.152 HD
ENDROOT
BRANCH   1  10
ATOM      3 BR   UNL     1      37.793 -23.252 -14.078  0.00  0.00    -0.049 Br
ATOM      4  O   UNL     1      32.645 -21.739 -19.722  0.00  0.00    -0.270 OA
ATOM      5  O   UNL     1      31.127 -23.115 -15.615  0.00  0.00    -0.270 OA
ATOM      6  N   UNL     1      31.929 -22.429 -17.655  0.00  0.00    -0.248 N 
ATOM      7  C   UNL     1      34.310 -22.182 -18.050  0.00  0.00    +0.068 C 
ATOM      8  C   UNL     1      34.560 -22.608 -16.655  0.00  0.00    +0.010 C 
ATOM      9  C   UNL     1      33.469 -22.925 -15.829  0.00  0.00    +0.054 C 
ATOM     10  C   UNL     1      35.274 -21.855 -18.929  0.00  0.00    +0.066 C 
ATOM     11  C   UNL     1      32.911 -22.088 -18.574  0.00  0.00    +0.253 C 
ATOM     12  C   UNL     1      35.849 -22.715 -16.104  0.00  0.00    +0.007 C 
ATOM     13  C   UNL     1      32.081 -22.838 -16.336  0.00  0.00    +0.252 C 
ATOM     14  C   UNL     1      33.664 -23.334 -14.499  0.00  0.00    +0.005 C 
ATOM     15  C   UNL     1      36.042 -23.121 -14.780  0.00  0.00    +0.035 C 
ATOM     16  C   UNL     1      34.951 -23.431 -13.979  0.00  0.00    +0.007 C 
ATOM     17  H   UNL     1      31.002 -22.372 -17.981  0.00  0.00    +0.158 HD
ENDBRANCH   1  10
BRANCH   1  21
ATOM     18  C   UNL     1      35.477 -17.604 -21.834  0.00  0.00    -0.043 C 
ATOM     19  C   UNL     1      36.324 -18.007 -20.800  0.00  0.00    -0.005 C 
ATOM     20  C   UNL     1      34.513 -18.482 -22.328  0.00  0.00    -0.005 C 
ATOM     21  C   UNL     1      35.240 -20.166 -20.755  0.00  0.00    +0.048 C 
ATOM     22  C   UNL     1      36.204 -19.288 -20.261  0.00  0.00    +0.014 C 
ATOM     23  C   UNL     1      34.393 -19.763 -21.789  0.00  0.00    +0.014 C 
BRANCH  18  24
ATOM     24  C   UNL     1      35.605 -16.235 -22.410  0.00  0.00    -0.050 C 
BRANCH  24  25
ATOM     25  N   UNL     1      34.422 -15.420 -22.171  0.00  0.00    +0.390 N 
ATOM     26  C   UNL     1      34.506 -14.667 -20.920  0.00  0.00    -0.077 C 
ATOM     27  C   UNL     1      34.221 -14.410 -23.210  0.00  0.00    -0.077 C 
ATOM     28  C   UNL     1      33.400 -13.633 -21.070  0.00  0.00    -0.025 C 
ATOM     29  C   UNL     1      33.211 -13.466 -22.575  0.00  0.00    -0.025 C 
ATOM     30  H   UNL     1      33.658 -16.095 -22.152  0.00  0.00    -0.079 HD
ENDBRANCH  24  25
ENDBRANCH  18  24
ENDBRANCH   1  21
TORSDOF 4
ENDMDL
MODEL 8
REMARK VINA RESULT:      -9.8      1.937      3.224
REMARK  Name = 24808489
REMARK  4 active torsions:
REMARK  status: ('A' for Active; 'I' for Inactive)
REMARK    1  A    between atoms: N_1  and  C_10
REMARK    2  A    between atoms: N_1  and  C_21
REMARK    3  A    between atoms: C_18  and  C_24
REMARK    4  A    between atoms: C_24  and  N_25
REMARK                            x       y       z     vdW  Elec       q    Type
REMARK                         _______ _______ _______ _____ _____    ______ ____
ROOT
ATOM      1  N   UNL     1      35.020 -20.966 -20.611  0.00  0.00    -0.311 N 
ATOM      2  H   UNL     1      35.602 -21.629 -21.047  0.00  0.00    +0.152 HD
ENDROOT
BRANCH   1  10
ATOM      3 BR   UNL     1      29.877 -22.983 -16.433  0.00  0.00    -0.049 Br
ATOM      4  O   UNL     1      37.013 -21.349 -19.087  0.00  0.00    -0.270 OA
ATOM      5  O   UNL     1      36.526 -22.967 -14.820  0.00  0.00    -0.270 OA
ATOM      6  N   UNL     1      36.726 -22.159 -16.961  0.00  0.00    -0.248 N 
ATOM      7  C   UNL     1      34.774 -21.820 -18.361  0.00  0.00    +0.068 C 
ATOM      8  C   UNL     1      33.925 -22.308 -17.253  0.00  0.00    +0.010 C 
ATOM      9  C   UNL     1      34.529 -22.698 -16.046  0.00  0.00    +0.054 C 
ATOM     10  C   UNL     1      34.307 -21.421 -19.557  0.00  0.00    +0.066 C 
ATOM     11  C   UNL     1      36.260 -21.744 -18.200  0.00  0.00    +0.253 C 
ATOM     12  C   UNL     1      32.525 -22.403 -17.343  0.00  0.00    +0.007 C 
ATOM     13  C   UNL     1      35.997 -22.627 -15.874  0.00  0.00    +0.252 C 
ATOM     14  C   UNL     1      33.758 -23.167 -14.970  0.00  0.00    +0.005 C 
ATOM     15  C   UNL     1      31.758 -22.870 -16.271  0.00  0.00    +0.035 C 
ATOM     16  C   UNL     1      32.373 -23.252 -15.086  0.00  0.00    +0.007 C 
ATOM     17  H   UNL     1      37.702 -22.118 -16.836  0.00  0.00    +0.158 HD
ENDBRANCH   1  10
BRANCH   1  21
ATOM     18  C   UNL     1      35.092 -17.112 -22.274  0.00  0.00    -0.043 C 
ATOM     19  C   UNL     1      35.611 -17.332 -20.997  0.00  0.00    -0.005 C 
ATOM     20  C   UNL     1      34.549 -18.173 -22.997  0.00  0.00    -0.005 C 
ATOM     21  C   UNL     1      35.043 -19.673 -21.169  0.00  0.00    +0.048 C 
ATOM     22  C   UNL     1      35.587 -18.612 -20.445  0.00  0.00    +0.014 C 
ATOM     23  C   UNL     1      34.524 -19.454 -22.445  0.00  0.00    +0.014 C 
BRANCH  18  24
ATOM     24  C   UNL     1      35.118 -15.743 -22.863  0.00  0.00    -0.050 C 
BRANCH  24  25
ATOM     25  N   UNL     1      33.985 -14.934 -22.438  0.00  0.00    +0.390 N 
ATOM     26  C   UNL     1      34.220 -14.277 -21.152  0.00  0.00    -0.077 C 
ATOM     27  C   UNL     1      33.693 -13.847 -23.372  0.00  0.00    -0.077 C 
ATOM     28  C   UNL     1      33.126 -13.221 -21.104  0.00  0.00    -0.025 C 
ATOM     29  C   UNL     1      32.778 -12.940 -22.563  0.00  0.00    -0.025 C 
ATOM     30  H   UNL     1      33.214 -15.599 -22.383  0.00  0.00    -0.079 HD
ENDBRANCH  24  25
ENDBRANCH  18  24
ENDBRANCH   1  21
TORSDOF 4
ENDMDL
MODEL 9
REMARK VINA RESULT:      -9.6      4.100      9.800
REMARK  Name = 24808489
REMARK  4 active torsions:
REMARK  status: ('A' for Active; 'I' for Inactive)
REMARK    1  A    between atoms: N_1  and  C_10
REMARK    2  A    between atoms: N_1  and  C_21
REMARK    3  A    between atoms: C_18  and  C_24
REMARK    4  A    between atoms: C_24  and  N_25
REMARK                            x       y       z     vdW  Elec       q    Type
REMARK                         _______ _______ _______ _____ _____    ______ ____
ROOT
ATOM      1  N   UNL     1      35.777 -18.325 -20.852  0.00  0.00    -0.311 N 
ATOM      2  H   UNL     1      36.673 -18.397 -21.251  0.00  0.00    +0.152 HD
ENDROOT
BRANCH   1  10
ATOM      3 BR   UNL     1      32.724 -12.227 -19.647  0.00  0.00    -0.049 Br
ATOM      4  O   UNL     1      35.739 -18.352 -23.391  0.00  0.00    -0.270 OA
ATOM      5  O   UNL     1      33.941 -14.902 -25.825  0.00  0.00    -0.270 OA
ATOM      6  N   UNL     1      34.831 -16.607 -24.569  0.00  0.00    -0.248 N 
ATOM      7  C   UNL     1      34.833 -16.511 -22.145  0.00  0.00    +0.068 C 
ATOM      8  C   UNL     1      34.167 -15.193 -22.221  0.00  0.00    +0.010 C 
ATOM      9  C   UNL     1      33.864 -14.649 -23.481  0.00  0.00    +0.054 C 
ATOM     10  C   UNL     1      35.169 -17.128 -20.998  0.00  0.00    +0.066 C 
ATOM     11  C   UNL     1      35.184 -17.256 -23.394  0.00  0.00    +0.253 C 
ATOM     12  C   UNL     1      33.812 -14.445 -21.085  0.00  0.00    +0.007 C 
ATOM     13  C   UNL     1      34.205 -15.376 -24.724  0.00  0.00    +0.252 C 
ATOM     14  C   UNL     1      33.232 -13.400 -23.596  0.00  0.00    +0.005 C 
ATOM     15  C   UNL     1      33.182 -13.201 -21.201  0.00  0.00    +0.035 C 
ATOM     16  C   UNL     1      32.892 -12.680 -22.455  0.00  0.00    +0.007 C 
ATOM     17  H   UNL     1      35.055 -17.081 -25.402  0.00  0.00    +0.158 HD
ENDBRANCH   1  10
BRANCH   1  21
ATOM     18  C   UNL     1      34.360 -21.779 -18.932  0.00  0.00    -0.043 C 
ATOM     19  C   UNL     1      35.723 -21.483 -18.920  0.00  0.00    -0.005 C 
ATOM     20  C   UNL     1      33.467 -20.927 -19.582  0.00  0.00    -0.005 C 
ATOM     21  C   UNL     1      35.301 -19.484 -20.209  0.00  0.00    +0.048 C 
ATOM     22  C   UNL     1      36.194 -20.336 -19.559  0.00  0.00    +0.014 C 
ATOM     23  C   UNL     1      33.938 -19.780 -20.221  0.00  0.00    +0.014 C 
BRANCH  18  24
ATOM     24  C   UNL     1      33.857 -23.006 -18.250  0.00  0.00    -0.050 C 
BRANCH  24  25
ATOM     25  N   UNL     1      33.438 -22.748 -16.881  0.00  0.00    +0.390 N 
ATOM     26  C   UNL     1      32.047 -23.131 -16.641  0.00  0.00    -0.077 C 
ATOM     27  C   UNL     1      34.216 -23.510 -15.905  0.00  0.00    -0.077 C 
ATOM     28  C   UNL     1      31.954 -23.148 -15.122  0.00  0.00    -0.025 C 
ATOM     29  C   UNL     1      33.380 -23.394 -14.639  0.00  0.00    -0.025 C 
ATOM     30  H   UNL     1      33.574 -21.743 -16.766  0.00  0.00    -0.079 HD
ENDBRANCH  24  25
ENDBRANCH  18  24
ENDBRANCH   1  21
TORSDOF 4
ENDMDL
