MODEL 1
REMARK VINA RESULT:     -12.2      0.000      0.000
REMARK  Name = 448407
REMARK  4 active torsions:
REMARK  status: ('A' for Active; 'I' for Inactive)
REMARK    1  A    between atoms: C_1  and  N_8
REMARK    2  A    between atoms: C_2  and  C_23
REMARK    3  A    between atoms: N_22  and  C_25
REMARK    4  A    between atoms: C_25  and  C_28
REMARK                            x       y       z     vdW  Elec       q    Type
REMARK                         _______ _______ _______ _____ _____    ______ ____
ROOT
ATOM      1  C   UNL     1      35.687 -18.406 -21.253  0.00  0.00    +0.090 C 
ATOM      2  C   UNL     1      34.671 -20.242 -20.020  0.00  0.00    +0.055 C 
ATOM      3  C   UNL     1      34.547 -19.086 -20.790  0.00  0.00    +0.023 C 
ATOM      4  C   UNL     1      36.954 -18.918 -20.924  0.00  0.00    +0.018 C 
ATOM      5  C   UNL     1      35.935 -20.737 -19.702  0.00  0.00    +0.005 C 
ATOM      6  C   UNL     1      37.077 -20.074 -20.155  0.00  0.00    +0.002 C 
ENDROOT
BRANCH   1   8
ATOM      7  O   UNL     1      34.072 -13.469 -21.131  0.00  0.00    -0.207 OA
ATOM      8  N   UNL     1      35.564 -17.254 -22.022  0.00  0.00    -0.137 N 
ATOM      9  N   UNL     1      35.244 -17.235 -23.343  0.00  0.00    -0.215 N 
ATOM     10  N   UNL     1      35.182 -16.073 -21.389  0.00  0.00    -0.143 NA
ATOM     11  N   UNL     1      34.141 -15.463 -24.644  0.00  0.00    -0.309 NA
ATOM     12  N   UNL     1      33.550 -13.488 -23.389  0.00  0.00    -0.251 NA
ATOM     13  N   UNL     1      33.076 -13.618 -25.649  0.00  0.00    -0.283 N 
ATOM     14  C   UNL     1      34.645 -16.051 -23.623  0.00  0.00    +0.243 C 
ATOM     15  C   UNL     1      34.640 -15.358 -22.325  0.00  0.00    +0.241 C 
ATOM     16  C   UNL     1      34.060 -14.012 -22.225  0.00  0.00    +0.239 C 
ATOM     17  C   UNL     1      33.598 -14.184 -24.508  0.00  0.00    +0.208 C 
ATOM     18  H   UNL     1      35.417 -17.959 -23.988  0.00  0.00    +0.175 HD
ATOM     19  H   UNL     1      33.097 -14.114 -26.500  0.00  0.00    +0.156 HD
ATOM     20  H   UNL     1      32.679 -12.718 -25.615  0.00  0.00    +0.156 HD
ENDBRANCH   1   8
BRANCH   2  23
ATOM     21  O   UNL     1      32.416 -20.861 -20.189  0.00  0.00    -0.270 OA
ATOM     22  N   UNL     1      33.606 -21.688 -18.378  0.00  0.00    -0.297 N 
ATOM     23  C   UNL     1      33.481 -20.934 -19.550  0.00  0.00    +0.246 C 
ATOM     24  H   UNL     1      34.478 -21.701 -17.923  0.00  0.00    +0.150 HD
BRANCH  22  25
ATOM     25  C   UNL     1      32.522 -22.449 -17.799  0.00  0.00    +0.117 C 
BRANCH  25  28
ATOM     26 CL   UNL     1      30.960 -24.025 -13.096  0.00  0.00    -0.082 Cl
ATOM     27 CL   UNL     1      36.177 -24.075 -14.477  0.00  0.00    -0.082 Cl
ATOM     28  C   UNL     1      32.876 -22.990 -16.443  0.00  0.00    -0.001 C 
ATOM     29  C   UNL     1      34.206 -23.249 -16.132  0.00  0.00    +0.009 C 
ATOM     30  C   UNL     1      31.870 -23.226 -15.514  0.00  0.00    +0.009 C 
ATOM     31  C   UNL     1      32.198 -23.729 -14.255  0.00  0.00    +0.058 C 
ATOM     32  C   UNL     1      34.534 -23.751 -14.873  0.00  0.00    +0.058 C 
ATOM     33  C   UNL     1      33.530 -23.992 -13.934  0.00  0.00    +0.023 C 
ENDBRANCH  25  28
ENDBRANCH  22  25
ENDBRANCH   2  23
TORSDOF 4
ENDMDL
MODEL 2
REMARK VINA RESULT:     -12.1      4.218      9.825
REMARK  Name = 448407
REMARK  4 active torsions:
REMARK  status: ('A' for Active; 'I' for Inactive)
REMARK    1  A    between atoms: C_1  and  N_8
REMARK    2  A    between atoms: C_2  and  C_23
REMARK    3  A    between atoms: N_22  and  C_25
REMARK    4  A    between atoms: C_25  and  C_28
REMARK                            x       y       z     vdW  Elec       q    Type
REMARK                         _______ _______ _______ _____ _____    ______ ____
ROOT
ATOM      1  C   UNL     1      34.446 -21.869 -18.350  0.00  0.00    +0.090 C 
ATOM      2  C   UNL     1      34.851 -20.451 -20.287  0.00  0.00    +0.055 C 
ATOM      3  C   UNL     1      33.986 -21.223 -19.511  0.00  0.00    +0.023 C 
ATOM      4  C   UNL     1      35.797 -21.719 -17.989  0.00  0.00    +0.018 C 
ATOM      5  C   UNL     1      36.188 -20.313 -19.914  0.00  0.00    +0.005 C 
ATOM      6  C   UNL     1      36.660 -20.947 -18.765  0.00  0.00    +0.002 C 
ENDROOT
BRANCH   1   8
ATOM      7  O   UNL     1      29.502 -22.316 -16.818  0.00  0.00    -0.207 OA
ATOM      8  N   UNL     1      33.585 -22.637 -17.575  0.00  0.00    -0.137 N 
ATOM      9  N   UNL     1      33.915 -23.209 -16.387  0.00  0.00    -0.215 N 
ATOM     10  N   UNL     1      32.218 -22.383 -17.656  0.00  0.00    -0.143 NA
ATOM     11  N   UNL     1      32.456 -23.804 -14.498  0.00  0.00    -0.309 NA
ATOM     12  N   UNL     1      30.118 -23.295 -14.809  0.00  0.00    -0.251 NA
ATOM     13  N   UNL     1      30.846 -24.272 -12.844  0.00  0.00    -0.283 N 
ATOM     14  C   UNL     1      32.784 -23.351 -15.651  0.00  0.00    +0.243 C 
ATOM     15  C   UNL     1      31.737 -22.802 -16.527  0.00  0.00    +0.241 C 
ATOM     16  C   UNL     1      30.343 -22.782 -16.064  0.00  0.00    +0.239 C 
ATOM     17  C   UNL     1      31.119 -23.767 -14.094  0.00  0.00    +0.208 C 
ATOM     18  H   UNL     1      34.820 -23.475 -16.107  0.00  0.00    +0.175 HD
ATOM     19  H   UNL     1      31.574 -24.631 -12.286  0.00  0.00    +0.156 HD
ATOM     20  H   UNL     1      29.921 -24.273 -12.505  0.00  0.00    +0.156 HD
ENDBRANCH   1   8
BRANCH   2  23
ATOM     21  O   UNL     1      33.142 -19.784 -21.748  0.00  0.00    -0.270 OA
ATOM     22  N   UNL     1      35.306 -19.149 -22.292  0.00  0.00    -0.297 N 
ATOM     23  C   UNL     1      34.358 -19.788 -21.484  0.00  0.00    +0.246 C 
ATOM     24  H   UNL     1      36.251 -19.192 -22.024  0.00  0.00    +0.150 HD
BRANCH  22  25
ATOM     25  C   UNL     1      34.969 -18.430 -23.499  0.00  0.00    +0.117 C 
BRANCH  25  28
ATOM     26 CL   UNL     1      34.643 -14.526 -20.080  0.00  0.00    -0.082 Cl
ATOM     27 CL   UNL     1      33.525 -13.773 -25.305  0.00  0.00    -0.082 Cl
ATOM     28  C   UNL     1      34.670 -16.983 -23.227  0.00  0.00    -0.001 C 
ATOM     29  C   UNL     1      34.283 -16.152 -24.272  0.00  0.00    +0.009 C 
ATOM     30  C   UNL     1      34.783 -16.490 -21.933  0.00  0.00    +0.009 C 
ATOM     31  C   UNL     1      34.505 -15.147 -21.679  0.00  0.00    +0.058 C 
ATOM     32  C   UNL     1      34.005 -14.810 -24.020  0.00  0.00    +0.058 C 
ATOM     33  C   UNL     1      34.116 -14.306 -22.723  0.00  0.00    +0.023 C 
ENDBRANCH  25  28
ENDBRANCH  22  25
ENDBRANCH   2  23
TORSDOF 4
ENDMDL
MODEL 3
REMARK VINA RESULT:     -11.8      4.704     10.286
REMARK  Name = 448407
REMARK  4 active torsions:
REMARK  status: ('A' for Active; 'I' for Inactive)
REMARK    1  A    between atoms: C_1  and  N_8
REMARK    2  A    between atoms: C_2  and  C_23
REMARK    3  A    between atoms: N_22  and  C_25
REMARK    4  A    between atoms: C_25  and  C_28
REMARK                            x       y       z     vdW  Elec       q    Type
REMARK                         _______ _______ _______ _____ _____    ______ ____
ROOT
ATOM      1  C   UNL     1      34.739 -21.736 -18.319  0.00  0.00    +0.090 C 
ATOM      2  C   UNL     1      34.776 -20.192 -20.200  0.00  0.00    +0.055 C 
ATOM      3  C   UNL     1      35.440 -20.878 -19.184  0.00  0.00    +0.023 C 
ATOM      4  C   UNL     1      33.353 -21.887 -18.501  0.00  0.00    +0.018 C 
ATOM      5  C   UNL     1      33.401 -20.353 -20.367  0.00  0.00    +0.005 C 
ATOM      6  C   UNL     1      32.690 -21.201 -19.518  0.00  0.00    +0.002 C 
ENDROOT
BRANCH   1   8
ATOM      7  O   UNL     1      33.994 -24.691 -14.111  0.00  0.00    -0.207 OA
ATOM      8  N   UNL     1      35.401 -22.421 -17.307  0.00  0.00    -0.137 N 
ATOM      9  N   UNL     1      36.540 -21.994 -16.699  0.00  0.00    -0.215 N 
ATOM     10  N   UNL     1      34.656 -23.247 -16.468  0.00  0.00    -0.143 NA
ATOM     11  N   UNL     1      37.366 -22.488 -14.436  0.00  0.00    -0.309 NA
ATOM     12  N   UNL     1      35.950 -23.935 -13.122  0.00  0.00    -0.251 NA
ATOM     13  N   UNL     1      37.924 -23.119 -12.236  0.00  0.00    -0.283 N 
ATOM     14  C   UNL     1      36.582 -22.519 -15.449  0.00  0.00    +0.243 C 
ATOM     15  C   UNL     1      35.345 -23.311 -15.371  0.00  0.00    +0.241 C 
ATOM     16  C   UNL     1      35.032 -24.046 -14.139  0.00  0.00    +0.239 C 
ATOM     17  C   UNL     1      37.033 -23.201 -13.281  0.00  0.00    +0.208 C 
ATOM     18  H   UNL     1      37.218 -21.402 -17.098  0.00  0.00    +0.175 HD
ATOM     19  H   UNL     1      38.742 -22.578 -12.326  0.00  0.00    +0.156 HD
ATOM     20  H   UNL     1      37.743 -23.601 -11.396  0.00  0.00    +0.156 HD
ENDBRANCH   1   8
BRANCH   2  23
ATOM     21  O   UNL     1      36.712 -19.049 -20.864  0.00  0.00    -0.270 OA
ATOM     22  N   UNL     1      34.830 -18.800 -22.196  0.00  0.00    -0.297 N 
ATOM     23  C   UNL     1      35.517 -19.310 -21.088  0.00  0.00    +0.246 C 
ATOM     24  H   UNL     1      33.885 -19.047 -22.311  0.00  0.00    +0.150 HD
BRANCH  22  25
ATOM     25  C   UNL     1      35.435 -17.931 -23.179  0.00  0.00    +0.117 C 
BRANCH  25  28
ATOM     26 CL   UNL     1      34.338 -13.781 -20.244  0.00  0.00    -0.082 Cl
ATOM     27 CL   UNL     1      33.428 -13.768 -25.563  0.00  0.00    -0.082 Cl
ATOM     28  C   UNL     1      34.911 -16.526 -23.086  0.00  0.00    -0.001 C 
ATOM     29  C   UNL     1      34.467 -15.880 -24.234  0.00  0.00    +0.009 C 
ATOM     30  C   UNL     1      34.874 -15.887 -21.852  0.00  0.00    +0.009 C 
ATOM     31  C   UNL     1      34.387 -14.582 -21.766  0.00  0.00    +0.058 C 
ATOM     32  C   UNL     1      33.980 -14.577 -24.148  0.00  0.00    +0.058 C 
ATOM     33  C   UNL     1      33.940 -13.927 -22.913  0.00  0.00    +0.023 C 
ENDBRANCH  25  28
ENDBRANCH  22  25
ENDBRANCH   2  23
TORSDOF 4
ENDMDL
MODEL 4
REMARK VINA RESULT:     -11.8      3.930      7.049
REMARK  Name = 448407
REMARK  4 active torsions:
REMARK  status: ('A' for Active; 'I' for Inactive)
REMARK    1  A    between atoms: C_1  and  N_8
REMARK    2  A    between atoms: C_2  and  C_23
REMARK    3  A    between atoms: N_22  and  C_25
REMARK    4  A    between atoms: C_25  and  C_28
REMARK                            x       y       z     vdW  Elec       q    Type
REMARK                         _______ _______ _______ _____ _____    ______ ____
ROOT
ATOM      1  C   UNL     1      32.594 -22.886 -16.473  0.00  0.00    +0.090 C 
ATOM      2  C   UNL     1      32.958 -23.575 -14.167  0.00  0.00    +0.055 C 
ATOM      3  C   UNL     1      33.462 -23.207 -15.415  0.00  0.00    +0.023 C 
ATOM      4  C   UNL     1      31.208 -22.943 -16.245  0.00  0.00    +0.018 C 
ATOM      5  C   UNL     1      31.581 -23.627 -13.958  0.00  0.00    +0.005 C 
ATOM      6  C   UNL     1      30.705 -23.311 -14.998  0.00  0.00    +0.002 C 
ENDROOT
BRANCH   1   8
ATOM      7  O   UNL     1      36.923 -21.444 -18.958  0.00  0.00    -0.207 OA
ATOM      8  N   UNL     1      33.095 -22.517 -17.716  0.00  0.00    -0.137 N 
ATOM      9  N   UNL     1      32.423 -21.768 -18.630  0.00  0.00    -0.215 N 
ATOM     10  N   UNL     1      34.473 -22.382 -17.861  0.00  0.00    -0.143 NA
ATOM     11  N   UNL     1      33.321 -20.302 -20.390  0.00  0.00    -0.309 NA
ATOM     12  N   UNL     1      35.729 -20.186 -20.497  0.00  0.00    -0.251 NA
ATOM     13  N   UNL     1      34.437 -18.972 -21.982  0.00  0.00    -0.283 N 
ATOM     14  C   UNL     1      33.330 -21.119 -19.402  0.00  0.00    +0.243 C 
ATOM     15  C   UNL     1      34.622 -21.560 -18.853  0.00  0.00    +0.241 C 
ATOM     16  C   UNL     1      35.869 -21.057 -19.443  0.00  0.00    +0.239 C 
ATOM     17  C   UNL     1      34.529 -19.846 -20.923  0.00  0.00    +0.208 C 
ATOM     18  H   UNL     1      31.445 -21.706 -18.718  0.00  0.00    +0.175 HD
ATOM     19  H   UNL     1      33.554 -18.700 -22.322  0.00  0.00    +0.156 HD
ATOM     20  H   UNL     1      35.255 -18.617 -22.399  0.00  0.00    +0.156 HD
ENDBRANCH   1   8
BRANCH   2  23
ATOM     21  O   UNL     1      33.504 -24.643 -12.153  0.00  0.00    -0.270 OA
ATOM     22  N   UNL     1      35.162 -23.368 -13.155  0.00  0.00    -0.297 N 
ATOM     23  C   UNL     1      33.870 -23.903 -13.083  0.00  0.00    +0.246 C 
ATOM     24  H   UNL     1      35.384 -22.789 -13.919  0.00  0.00    +0.150 HD
BRANCH  22  25
ATOM     25  C   UNL     1      36.187 -23.620 -12.168  0.00  0.00    +0.117 C 
BRANCH  25  28
ATOM     26 CL   UNL     1      37.592 -28.622 -11.942  0.00  0.00    -0.082 Cl
ATOM     27 CL   UNL     1      40.338 -25.074 -14.941  0.00  0.00    -0.082 Cl
ATOM     28  C   UNL     1      37.126 -24.711 -12.598  0.00  0.00    -0.001 C 
ATOM     29  C   UNL     1      38.170 -24.416 -13.467  0.00  0.00    +0.009 C 
ATOM     30  C   UNL     1      36.941 -26.004 -12.124  0.00  0.00    +0.009 C 
ATOM     31  C   UNL     1      37.812 -27.017 -12.523  0.00  0.00    +0.058 C 
ATOM     32  C   UNL     1      39.042 -25.428 -13.867  0.00  0.00    +0.058 C 
ATOM     33  C   UNL     1      38.863 -26.730 -13.395  0.00  0.00    +0.023 C 
ENDBRANCH  25  28
ENDBRANCH  22  25
ENDBRANCH   2  23
TORSDOF 4
ENDMDL
MODEL 5
REMARK VINA RESULT:     -11.8      3.933      7.181
REMARK  Name = 448407
REMARK  4 active torsions:
REMARK  status: ('A' for Active; 'I' for Inactive)
REMARK    1  A    between atoms: C_1  and  N_8
REMARK    2  A    between atoms: C_2  and  C_23
REMARK    3  A    between atoms: N_22  and  C_25
REMARK    4  A    between atoms: C_25  and  C_28
REMARK                            x       y       z     vdW  Elec       q    Type
REMARK                         _______ _______ _______ _____ _____    ______ ____
ROOT
ATOM      1  C   UNL     1      32.599 -22.891 -16.469  0.00  0.00    +0.090 C 
ATOM      2  C   UNL     1      32.962 -23.584 -14.164  0.00  0.00    +0.055 C 
ATOM      3  C   UNL     1      33.466 -23.212 -15.410  0.00  0.00    +0.023 C 
ATOM      4  C   UNL     1      31.213 -22.952 -16.243  0.00  0.00    +0.018 C 
ATOM      5  C   UNL     1      31.584 -23.639 -13.956  0.00  0.00    +0.005 C 
ATOM      6  C   UNL     1      30.709 -23.323 -14.996  0.00  0.00    +0.002 C 
ENDROOT
BRANCH   1   8
ATOM      7  O   UNL     1      36.933 -21.465 -18.953  0.00  0.00    -0.207 OA
ATOM      8  N   UNL     1      33.100 -22.520 -17.711  0.00  0.00    -0.137 N 
ATOM      9  N   UNL     1      32.433 -21.762 -18.620  0.00  0.00    -0.215 N 
ATOM     10  N   UNL     1      34.480 -22.393 -17.857  0.00  0.00    -0.143 NA
ATOM     11  N   UNL     1      33.337 -20.293 -20.373  0.00  0.00    -0.309 NA
ATOM     12  N   UNL     1      35.746 -20.192 -20.483  0.00  0.00    -0.251 NA
ATOM     13  N   UNL     1      34.460 -18.962 -21.960  0.00  0.00    -0.283 N 
ATOM     14  C   UNL     1      33.343 -21.114 -19.390  0.00  0.00    +0.243 C 
ATOM     15  C   UNL     1      34.632 -21.566 -18.845  0.00  0.00    +0.241 C 
ATOM     16  C   UNL     1      35.882 -21.069 -19.434  0.00  0.00    +0.239 C 
ATOM     17  C   UNL     1      34.547 -19.842 -20.906  0.00  0.00    +0.208 C 
ATOM     18  H   UNL     1      31.454 -21.693 -18.706  0.00  0.00    +0.175 HD
ATOM     19  H   UNL     1      33.577 -18.682 -22.297  0.00  0.00    +0.156 HD
ATOM     20  H   UNL     1      35.279 -18.610 -22.377  0.00  0.00    +0.156 HD
ENDBRANCH   1   8
BRANCH   2  23
ATOM     21  O   UNL     1      33.508 -24.655 -12.151  0.00  0.00    -0.270 OA
ATOM     22  N   UNL     1      35.164 -23.374 -13.149  0.00  0.00    -0.297 N 
ATOM     23  C   UNL     1      33.874 -23.911 -13.079  0.00  0.00    +0.246 C 
ATOM     24  H   UNL     1      35.385 -22.793 -13.911  0.00  0.00    +0.150 HD
BRANCH  22  25
ATOM     25  C   UNL     1      36.188 -23.626 -12.161  0.00  0.00    +0.117 C 
BRANCH  25  28
ATOM     26 CL   UNL     1      40.354 -25.064 -14.921  0.00  0.00    -0.082 Cl
ATOM     27 CL   UNL     1      37.595 -28.627 -11.951  0.00  0.00    -0.082 Cl
ATOM     28  C   UNL     1      37.129 -24.714 -12.592  0.00  0.00    -0.001 C 
ATOM     29  C   UNL     1      36.943 -26.010 -12.124  0.00  0.00    +0.009 C 
ATOM     30  C   UNL     1      38.177 -24.414 -13.454  0.00  0.00    +0.009 C 
ATOM     31  C   UNL     1      39.052 -25.424 -13.854  0.00  0.00    +0.058 C 
ATOM     32  C   UNL     1      37.817 -27.020 -12.524  0.00  0.00    +0.058 C 
ATOM     33  C   UNL     1      38.872 -26.728 -13.389  0.00  0.00    +0.023 C 
ENDBRANCH  25  28
ENDBRANCH  22  25
ENDBRANCH   2  23
TORSDOF 4
ENDMDL
MODEL 6
REMARK VINA RESULT:     -11.4      5.748     10.800
REMARK  Name = 448407
REMARK  4 active torsions:
REMARK  status: ('A' for Active; 'I' for Inactive)
REMARK    1  A    between atoms: C_1  and  N_8
REMARK    2  A    between atoms: C_2  and  C_23
REMARK    3  A    between atoms: N_22  and  C_25
REMARK    4  A    between atoms: C_25  and  C_28
REMARK                            x       y       z     vdW  Elec       q    Type
REMARK                         _______ _______ _______ _____ _____    ______ ____
ROOT
ATOM      1  C   UNL     1      32.713 -24.427 -13.677  0.00  0.00    +0.090 C 
ATOM      2  C   UNL     1      31.272 -23.423 -15.363  0.00  0.00    +0.055 C 
ATOM      3  C   UNL     1      32.544 -23.654 -14.839  0.00  0.00    +0.023 C 
ATOM      4  C   UNL     1      31.571 -24.963 -13.056  0.00  0.00    +0.018 C 
ATOM      5  C   UNL     1      30.150 -23.962 -14.734  0.00  0.00    +0.005 C 
ATOM      6  C   UNL     1      30.300 -24.733 -13.580  0.00  0.00    +0.002 C 
ENDROOT
BRANCH   1   8
ATOM      7  O   UNL     1      35.375 -24.859  -9.237  0.00  0.00    -0.207 OA
ATOM      8  N   UNL     1      33.981 -24.659 -13.156  0.00  0.00    -0.137 N 
ATOM      9  N   UNL     1      35.138 -24.205 -13.706  0.00  0.00    -0.215 N 
ATOM     10  N   UNL     1      34.108 -24.843 -11.781  0.00  0.00    -0.143 NA
ATOM     11  N   UNL     1      37.283 -23.710 -12.608  0.00  0.00    -0.309 NA
ATOM     12  N   UNL     1      37.325 -24.086 -10.225  0.00  0.00    -0.251 NA
ATOM     13  N   UNL     1      39.213 -23.315 -11.316  0.00  0.00    -0.283 N 
ATOM     14  C   UNL     1      36.060 -24.076 -12.719  0.00  0.00    +0.243 C 
ATOM     15  C   UNL     1      35.330 -24.503 -11.514  0.00  0.00    +0.241 C 
ATOM     16  C   UNL     1      36.014 -24.500 -10.215  0.00  0.00    +0.239 C 
ATOM     17  C   UNL     1      37.898 -23.721 -11.354  0.00  0.00    +0.208 C 
ATOM     18  H   UNL     1      35.283 -24.004 -14.658  0.00  0.00    +0.175 HD
ATOM     19  H   UNL     1      39.667 -23.036 -12.144  0.00  0.00    +0.156 HD
ATOM     20  H   UNL     1      39.699 -23.302 -10.460  0.00  0.00    +0.156 HD
ENDBRANCH   1   8
BRANCH   2  23
ATOM     21  O   UNL     1      30.032 -22.063 -16.815  0.00  0.00    -0.270 OA
ATOM     22  N   UNL     1      32.234 -22.500 -17.399  0.00  0.00    -0.297 N 
ATOM     23  C   UNL     1      31.115 -22.622 -16.566  0.00  0.00    +0.246 C 
ATOM     24  H   UNL     1      33.059 -22.970 -17.141  0.00  0.00    +0.150 HD
BRANCH  22  25
ATOM     25  C   UNL     1      32.242 -21.721 -18.616  0.00  0.00    +0.117 C 
BRANCH  25  28
ATOM     26 CL   UNL     1      35.346 -19.098 -21.860  0.00  0.00    -0.082 Cl
ATOM     27 CL   UNL     1      37.354 -21.843 -17.671  0.00  0.00    -0.082 Cl
ATOM     28  C   UNL     1      33.630 -21.299 -19.004  0.00  0.00    -0.001 C 
ATOM     29  C   UNL     1      34.715 -21.719 -18.244  0.00  0.00    +0.009 C 
ATOM     30  C   UNL     1      33.816 -20.491 -20.120  0.00  0.00    +0.009 C 
ATOM     31  C   UNL     1      35.104 -20.098 -20.481  0.00  0.00    +0.058 C 
ATOM     32  C   UNL     1      36.004 -21.328 -18.604  0.00  0.00    +0.058 C 
ATOM     33  C   UNL     1      36.199 -20.516 -19.723  0.00  0.00    +0.023 C 
ENDBRANCH  25  28
ENDBRANCH  22  25
ENDBRANCH   2  23
TORSDOF 4
ENDMDL
MODEL 7
REMARK VINA RESULT:     -11.3      5.783     10.486
REMARK  Name = 448407
REMARK  4 active torsions:
REMARK  status: ('A' for Active; 'I' for Inactive)
REMARK    1  A    between atoms: C_1  and  N_8
REMARK    2  A    between atoms: C_2  and  C_23
REMARK    3  A    between atoms: N_22  and  C_25
REMARK    4  A    between atoms: C_25  and  C_28
REMARK                            x       y       z     vdW  Elec       q    Type
REMARK                         _______ _______ _______ _____ _____    ______ ____
ROOT
ATOM      1  C   UNL     1      32.971 -24.323 -13.510  0.00  0.00    +0.090 C 
ATOM      2  C   UNL     1      31.469 -23.335 -15.151  0.00  0.00    +0.055 C 
ATOM      3  C   UNL     1      32.755 -23.698 -14.750  0.00  0.00    +0.023 C 
ATOM      4  C   UNL     1      31.862 -24.576 -12.684  0.00  0.00    +0.018 C 
ATOM      5  C   UNL     1      30.380 -23.593 -14.320  0.00  0.00    +0.005 C 
ATOM      6  C   UNL     1      30.576 -24.214 -13.086  0.00  0.00    +0.002 C 
ENDROOT
BRANCH   1   8
ATOM      7  O   UNL     1      37.125 -22.686 -10.854  0.00  0.00    -0.207 OA
ATOM      8  N   UNL     1      34.252 -24.686 -13.111  0.00  0.00    -0.137 N 
ATOM      9  N   UNL     1      35.125 -25.402 -13.867  0.00  0.00    -0.215 N 
ATOM     10  N   UNL     1      34.918 -23.868 -12.201  0.00  0.00    -0.143 NA
ATOM     11  N   UNL     1      37.583 -25.408 -13.805  0.00  0.00    -0.309 NA
ATOM     12  N   UNL     1      38.571 -23.932 -12.170  0.00  0.00    -0.251 NA
ATOM     13  N   UNL     1      39.917 -25.222 -13.539  0.00  0.00    -0.283 N 
ATOM     14  C   UNL     1      36.386 -25.082 -13.485  0.00  0.00    +0.243 C 
ATOM     15  C   UNL     1      36.177 -24.095 -12.414  0.00  0.00    +0.241 C 
ATOM     16  C   UNL     1      37.339 -23.504 -11.737  0.00  0.00    +0.239 C 
ATOM     17  C   UNL     1      38.662 -24.822 -13.139  0.00  0.00    +0.208 C 
ATOM     18  H   UNL     1      34.883 -26.044 -14.574  0.00  0.00    +0.175 HD
ATOM     19  H   UNL     1      40.016 -25.886 -14.260  0.00  0.00    +0.156 HD
ATOM     20  H   UNL     1      40.716 -24.844 -13.105  0.00  0.00    +0.156 HD
ENDBRANCH   1   8
BRANCH   2  23
ATOM     21  O   UNL     1      30.121 -22.359 -16.803  0.00  0.00    -0.270 OA
ATOM     22  N   UNL     1      32.401 -22.446 -17.216  0.00  0.00    -0.297 N 
ATOM     23  C   UNL     1      31.263 -22.690 -16.438  0.00  0.00    +0.246 C 
ATOM     24  H   UNL     1      33.274 -22.735 -16.867  0.00  0.00    +0.150 HD
BRANCH  22  25
ATOM     25  C   UNL     1      32.362 -21.794 -18.505  0.00  0.00    +0.117 C 
BRANCH  25  28
ATOM     26 CL   UNL     1      37.508 -21.796 -17.755  0.00  0.00    -0.082 Cl
ATOM     27 CL   UNL     1      35.280 -19.118 -21.876  0.00  0.00    -0.082 Cl
ATOM     28  C   UNL     1      33.724 -21.342 -18.948  0.00  0.00    -0.001 C 
ATOM     29  C   UNL     1      33.849 -20.536 -20.074  0.00  0.00    +0.009 C 
ATOM     30  C   UNL     1      34.846 -21.734 -18.228  0.00  0.00    +0.009 C 
ATOM     31  C   UNL     1      36.112 -21.315 -18.639  0.00  0.00    +0.058 C 
ATOM     32  C   UNL     1      35.114 -20.116 -20.485  0.00  0.00    +0.058 C 
ATOM     33  C   UNL     1      36.246 -20.506 -19.768  0.00  0.00    +0.023 C 
ENDBRANCH  25  28
ENDBRANCH  22  25
ENDBRANCH   2  23
TORSDOF 4
ENDMDL
MODEL 8
REMARK VINA RESULT:     -11.2      3.319      5.887
REMARK  Name = 448407
REMARK  4 active torsions:
REMARK  status: ('A' for Active; 'I' for Inactive)
REMARK    1  A    between atoms: C_1  and  N_8
REMARK    2  A    between atoms: C_2  and  C_23
REMARK    3  A    between atoms: N_22  and  C_25
REMARK    4  A    between atoms: C_25  and  C_28
REMARK                            x       y       z     vdW  Elec       q    Type
REMARK                         _______ _______ _______ _____ _____    ______ ____
ROOT
ATOM      1  C   UNL     1      34.087 -13.870 -23.136  0.00  0.00    +0.090 C 
ATOM      2  C   UNL     1      34.937 -16.082 -22.575  0.00  0.00    +0.055 C 
ATOM      3  C   UNL     1      34.708 -14.750 -22.231  0.00  0.00    +0.023 C 
ATOM      4  C   UNL     1      33.700 -14.365 -24.394  0.00  0.00    +0.018 C 
ATOM      5  C   UNL     1      34.547 -16.556 -23.828  0.00  0.00    +0.005 C 
ATOM      6  C   UNL     1      33.929 -15.697 -24.737  0.00  0.00    +0.002 C 
ENDROOT
BRANCH   1   8
ATOM      7  O   UNL     1      30.690 -10.693 -20.821  0.00  0.00    -0.207 OA
ATOM      8  N   UNL     1      33.858 -12.543 -22.793  0.00  0.00    -0.137 N 
ATOM      9  N   UNL     1      34.204 -11.475 -23.559  0.00  0.00    -0.215 N 
ATOM     10  N   UNL     1      32.773 -12.249 -21.970  0.00  0.00    -0.143 NA
ATOM     11  N   UNL     1      33.190  -9.236 -23.641  0.00  0.00    -0.309 NA
ATOM     12  N   UNL     1      31.323  -8.901 -22.150  0.00  0.00    -0.251 NA
ATOM     13  N   UNL     1      32.040  -7.183 -23.522  0.00  0.00    -0.283 N 
ATOM     14  C   UNL     1      33.365 -10.449 -23.269  0.00  0.00    +0.243 C 
ATOM     15  C   UNL     1      32.476 -11.017 -22.243  0.00  0.00    +0.241 C 
ATOM     16  C   UNL     1      31.410 -10.186 -21.669  0.00  0.00    +0.239 C 
ATOM     17  C   UNL     1      32.164  -8.478 -23.072  0.00  0.00    +0.208 C 
ATOM     18  H   UNL     1      34.939 -11.450 -24.214  0.00  0.00    +0.175 HD
ATOM     19  H   UNL     1      32.654  -6.839 -24.211  0.00  0.00    +0.156 HD
ATOM     20  H   UNL     1      31.335  -6.601 -23.157  0.00  0.00    +0.156 HD
ENDBRANCH   1   8
BRANCH   2  23
ATOM     21  O   UNL     1      35.361 -16.868 -20.408  0.00  0.00    -0.270 OA
ATOM     22  N   UNL     1      36.421 -17.965 -22.155  0.00  0.00    -0.297 N 
ATOM     23  C   UNL     1      35.579 -16.978 -21.627  0.00  0.00    +0.246 C 
ATOM     24  H   UNL     1      36.549 -17.993 -23.130  0.00  0.00    +0.150 HD
BRANCH  22  25
ATOM     25  C   UNL     1      37.111 -18.941 -21.345  0.00  0.00    +0.117 C 
BRANCH  25  28
ATOM     26 CL   UNL     1      36.346 -22.173 -17.343  0.00  0.00    -0.082 Cl
ATOM     27 CL   UNL     1      32.250 -20.564 -20.466  0.00  0.00    -0.082 Cl
ATOM     28  C   UNL     1      36.160 -19.761 -20.521  0.00  0.00    -0.001 C 
ATOM     29  C   UNL     1      34.808 -19.776 -20.842  0.00  0.00    +0.009 C 
ATOM     30  C   UNL     1      36.643 -20.497 -19.445  0.00  0.00    +0.009 C 
ATOM     31  C   UNL     1      35.760 -21.259 -18.678  0.00  0.00    +0.058 C 
ATOM     32  C   UNL     1      33.925 -20.537 -20.077  0.00  0.00    +0.058 C 
ATOM     33  C   UNL     1      34.401 -21.279 -18.994  0.00  0.00    +0.023 C 
ENDBRANCH  25  28
ENDBRANCH  22  25
ENDBRANCH   2  23
TORSDOF 4
ENDMDL
MODEL 9
REMARK VINA RESULT:     -11.0      4.922     10.617
REMARK  Name = 448407
REMARK  4 active torsions:
REMARK  status: ('A' for Active; 'I' for Inactive)
REMARK    1  A    between atoms: C_1  and  N_8
REMARK    2  A    between atoms: C_2  and  C_23
REMARK    3  A    between atoms: N_22  and  C_25
REMARK    4  A    between atoms: C_25  and  C_28
REMARK                            x       y       z     vdW  Elec       q    Type
REMARK                         _______ _______ _______ _____ _____    ______ ____
ROOT
ATOM      1  C   UNL     1      34.432 -22.618 -16.919  0.00  0.00    +0.090 C 
ATOM      2  C   UNL     1      34.839 -21.332 -18.946  0.00  0.00    +0.055 C 
ATOM      3  C   UNL     1      35.311 -21.944 -17.785  0.00  0.00    +0.023 C 
ATOM      4  C   UNL     1      33.067 -22.662 -17.251  0.00  0.00    +0.018 C 
ATOM      5  C   UNL     1      33.481 -21.386 -19.260  0.00  0.00    +0.005 C 
ATOM      6  C   UNL     1      32.595 -22.051 -18.412  0.00  0.00    +0.002 C 
ENDROOT
BRANCH   1   8
ATOM      7  O   UNL     1      32.943 -24.592 -12.350  0.00  0.00    -0.207 OA
ATOM      8  N   UNL     1      34.903 -23.228 -15.763  0.00  0.00    -0.137 N 
ATOM      9  N   UNL     1      36.078 -22.926 -15.151  0.00  0.00    -0.215 N 
ATOM     10  N   UNL     1      33.974 -23.737 -14.858  0.00  0.00    -0.143 NA
ATOM     11  N   UNL     1      36.698 -23.165 -12.783  0.00  0.00    -0.309 NA
ATOM     12  N   UNL     1      34.969 -24.061 -11.357  0.00  0.00    -0.251 NA
ATOM     13  N   UNL     1      37.030 -23.495 -10.474  0.00  0.00    -0.283 N 
ATOM     14  C   UNL     1      35.965 -23.223 -13.833  0.00  0.00    +0.243 C 
ATOM     15  C   UNL     1      34.592 -23.738 -13.717  0.00  0.00    +0.241 C 
ATOM     16  C   UNL     1      34.089 -24.172 -12.407  0.00  0.00    +0.239 C 
ATOM     17  C   UNL     1      36.183 -23.587 -11.555  0.00  0.00    +0.208 C 
ATOM     18  H   UNL     1      36.877 -22.554 -15.591  0.00  0.00    +0.175 HD
ATOM     19  H   UNL     1      37.943 -23.144 -10.592  0.00  0.00    +0.156 HD
ATOM     20  H   UNL     1      36.723 -23.778  -9.583  0.00  0.00    +0.156 HD
ENDBRANCH   1   8
BRANCH   2  23
ATOM     21  O   UNL     1      36.830 -21.178 -20.174  0.00  0.00    -0.270 OA
ATOM     22  N   UNL     1      35.379 -19.372 -20.284  0.00  0.00    -0.297 N 
ATOM     23  C   UNL     1      35.762 -20.640 -19.831  0.00  0.00    +0.246 C 
ATOM     24  H   UNL     1      34.521 -19.007 -19.972  0.00  0.00    +0.150 HD
BRANCH  22  25
ATOM     25  C   UNL     1      36.177 -18.572 -21.184  0.00  0.00    +0.117 C 
BRANCH  25  28
ATOM     26 CL   UNL     1      32.768 -19.010 -25.086  0.00  0.00    -0.082 Cl
ATOM     27 CL   UNL     1      34.622 -14.191 -23.515  0.00  0.00    -0.082 Cl
ATOM     28  C   UNL     1      35.339 -17.905 -22.237  0.00  0.00    -0.001 C 
ATOM     29  C   UNL     1      35.369 -16.522 -22.367  0.00  0.00    +0.009 C 
ATOM     30  C   UNL     1      34.540 -18.679 -23.071  0.00  0.00    +0.009 C 
ATOM     31  C   UNL     1      33.761 -18.061 -24.049  0.00  0.00    +0.058 C 
ATOM     32  C   UNL     1      34.591 -15.903 -23.345  0.00  0.00    +0.058 C 
ATOM     33  C   UNL     1      33.786 -16.673 -24.186  0.00  0.00    +0.023 C 
ENDBRANCH  25  28
ENDBRANCH  22  25
ENDBRANCH   2  23
TORSDOF 4
ENDMDL
