MODEL 1
REMARK VINA RESULT:     -13.0      0.000      0.000
REMARK  Name = 25145656
REMARK  4 active torsions:
REMARK  status: ('A' for Active; 'I' for Inactive)
REMARK    1  A    between atoms: C_5  and  C_22
REMARK    2  A    between atoms: C_8  and  C_11
REMARK    3  A    between atoms: C_14  and  C_19
REMARK    4  A    between atoms: C_22  and  C_24
REMARK                            x       y       z     vdW  Elec       q    Type
REMARK                         _______ _______ _______ _____ _____    ______ ____
ROOT
ATOM      1  N   UNL     1      34.540 -16.866 -22.963  0.00  0.00    -0.134 N 
ATOM      2  N   UNL     1      34.692 -17.585 -21.829  0.00  0.00    -0.168 NA
ATOM      3  N   UNL     1      34.206 -16.384 -25.103  0.00  0.00    -0.178 NA
ATOM      4  N   UNL     1      34.260 -18.709 -24.430  0.00  0.00    -0.200 NA
ATOM      5  C   UNL     1      34.567 -15.500 -23.054  0.00  0.00    +0.086 C 
ATOM      6  C   UNL     1      34.320 -17.369 -24.230  0.00  0.00    +0.114 C 
ATOM      7  C   UNL     1      34.359 -15.228 -24.383  0.00  0.00    +0.124 C 
ATOM      8  C   UNL     1      34.615 -18.871 -21.996  0.00  0.00    +0.103 C 
ATOM      9  C   UNL     1      34.405 -19.444 -23.377  0.00  0.00    +0.184 C 
ENDROOT
BRANCH   8  11
ATOM     10  F   UNL     1      32.613 -21.532 -18.466  0.00  0.00    -0.204 F 
ATOM     11  C   UNL     1      34.742 -19.781 -20.835  0.00  0.00    +0.019 C 
ATOM     12  C   UNL     1      33.599 -20.240 -20.180  0.00  0.00    +0.031 C 
ATOM     13  C   UNL     1      36.005 -20.181 -20.397  0.00  0.00    +0.002 C 
ATOM     14  C   UNL     1      34.981 -21.497 -18.648  0.00  0.00    +0.081 C 
ATOM     15  C   UNL     1      33.719 -21.097 -19.087  0.00  0.00    +0.144 C 
ATOM     16  C   UNL     1      36.124 -21.038 -19.304  0.00  0.00    +0.007 C 
BRANCH  14  19
ATOM     17  O   UNL     1      34.306 -23.326 -17.345  0.00  0.00    -0.270 OA
ATOM     18  N   UNL     1      36.183 -22.162 -16.640  0.00  0.00    -0.299 N 
ATOM     19  C   UNL     1      35.111 -22.392 -17.510  0.00  0.00    +0.248 C 
ATOM     20  C   UNL     1      36.460 -22.977 -15.479  0.00  0.00    +0.111 C 
ATOM     21  H   UNL     1      36.782 -21.404 -16.829  0.00  0.00    +0.150 HD
ENDBRANCH  14  19
ENDBRANCH   8  11
BRANCH   5  22
ATOM     22  C   UNL     1      34.790 -14.588 -21.865  0.00  0.00    +0.068 C 
BRANCH  22  24
ATOM     23  N   UNL     1      31.223 -10.201 -21.627  0.00  0.00    -0.248 NA
ATOM     24  C   UNL     1      33.855 -13.427 -21.810  0.00  0.00    -0.038 C 
ATOM     25  C   UNL     1      34.041 -12.338 -22.656  0.00  0.00    +0.050 C 
ATOM     26  C   UNL     1      33.163 -11.243 -22.608  0.00  0.00    -0.004 C 
ATOM     27  C   UNL     1      32.793 -13.426 -20.913  0.00  0.00    -0.028 C 
ATOM     28  C   UNL     1      32.082 -11.234 -21.700  0.00  0.00    +0.060 C 
ATOM     29  C   UNL     1      31.920 -12.337 -20.865  0.00  0.00    +0.071 C 
ATOM     30  C   UNL     1      33.326 -10.134 -23.449  0.00  0.00    -0.001 C 
ATOM     31  C   UNL     1      32.441  -9.066 -23.376  0.00  0.00    +0.020 C 
ATOM     32  C   UNL     1      31.416  -9.149 -22.457  0.00  0.00    +0.098 C 
ENDBRANCH  22  24
ENDBRANCH   5  22
TORSDOF 4
ENDMDL
MODEL 2
REMARK VINA RESULT:     -12.6      3.874      9.987
REMARK  Name = 25145656
REMARK  4 active torsions:
REMARK  status: ('A' for Active; 'I' for Inactive)
REMARK    1  A    between atoms: C_5  and  C_22
REMARK    2  A    between atoms: C_8  and  C_11
REMARK    3  A    between atoms: C_14  and  C_19
REMARK    4  A    between atoms: C_22  and  C_24
REMARK                            x       y       z     vdW  Elec       q    Type
REMARK                         _______ _______ _______ _____ _____    ______ ____
ROOT
ATOM      1  N   UNL     1      34.343 -15.208 -23.361  0.00  0.00    -0.134 N 
ATOM      2  N   UNL     1      34.030 -14.067 -22.708  0.00  0.00    -0.168 NA
ATOM      3  N   UNL     1      34.581 -16.673 -25.009  0.00  0.00    -0.178 NA
ATOM      4  N   UNL     1      33.576 -14.526 -25.500  0.00  0.00    -0.200 NA
ATOM      5  C   UNL     1      34.919 -16.317 -22.804  0.00  0.00    +0.086 C 
ATOM      6  C   UNL     1      34.149 -15.462 -24.705  0.00  0.00    +0.114 C 
ATOM      7  C   UNL     1      35.056 -17.206 -23.840  0.00  0.00    +0.124 C 
ATOM      8  C   UNL     1      33.500 -13.148 -23.458  0.00  0.00    +0.103 C 
ATOM      9  C   UNL     1      33.252 -13.416 -24.923  0.00  0.00    +0.184 C 
ENDROOT
BRANCH   8  11
ATOM     10  F   UNL     1      30.973 -10.493 -20.278  0.00  0.00    -0.204 F 
ATOM     11  C   UNL     1      33.127 -11.837 -22.879  0.00  0.00    +0.019 C 
ATOM     12  C   UNL     1      32.208 -11.775 -21.831  0.00  0.00    +0.031 C 
ATOM     13  C   UNL     1      33.695 -10.666 -23.380  0.00  0.00    +0.002 C 
ATOM     14  C   UNL     1      32.423  -9.369 -21.786  0.00  0.00    +0.081 C 
ATOM     15  C   UNL     1      31.857 -10.541 -21.285  0.00  0.00    +0.144 C 
ATOM     16  C   UNL     1      33.343  -9.432 -22.833  0.00  0.00    +0.007 C 
BRANCH  14  19
ATOM     17  O   UNL     1      32.348  -7.805 -20.041  0.00  0.00    -0.270 OA
ATOM     18  N   UNL     1      31.404  -7.177 -22.063  0.00  0.00    -0.299 N 
ATOM     19  C   UNL     1      32.061  -8.080 -21.219  0.00  0.00    +0.248 C 
ATOM     20  C   UNL     1      31.001  -5.850 -21.655  0.00  0.00    +0.111 C 
ATOM     21  H   UNL     1      31.206  -7.460 -22.985  0.00  0.00    +0.150 HD
ENDBRANCH  14  19
ENDBRANCH   8  11
BRANCH   5  22
ATOM     22  C   UNL     1      35.284 -16.420 -21.336  0.00  0.00    +0.068 C 
BRANCH  22  24
ATOM     23  N   UNL     1      35.791 -21.734 -19.457  0.00  0.00    -0.248 NA
ATOM     24  C   UNL     1      35.407 -17.821 -20.841  0.00  0.00    -0.038 C 
ATOM     25  C   UNL     1      34.267 -18.568 -20.562  0.00  0.00    +0.050 C 
ATOM     26  C   UNL     1      34.378 -19.888 -20.096  0.00  0.00    -0.004 C 
ATOM     27  C   UNL     1      36.662 -18.389 -20.654  0.00  0.00    -0.028 C 
ATOM     28  C   UNL     1      35.649 -20.472 -19.903  0.00  0.00    +0.060 C 
ATOM     29  C   UNL     1      36.773 -19.702 -20.190  0.00  0.00    +0.071 C 
ATOM     30  C   UNL     1      33.247 -20.664 -19.809  0.00  0.00    -0.001 C 
ATOM     31  C   UNL     1      33.391 -21.965 -19.348  0.00  0.00    +0.020 C 
ATOM     32  C   UNL     1      34.673 -22.448 -19.191  0.00  0.00    +0.098 C 
ENDBRANCH  22  24
ENDBRANCH   5  22
TORSDOF 4
ENDMDL
MODEL 3
REMARK VINA RESULT:     -12.0      1.378      2.052
REMARK  Name = 25145656
REMARK  4 active torsions:
REMARK  status: ('A' for Active; 'I' for Inactive)
REMARK    1  A    between atoms: C_5  and  C_22
REMARK    2  A    between atoms: C_8  and  C_11
REMARK    3  A    between atoms: C_14  and  C_19
REMARK    4  A    between atoms: C_22  and  C_24
REMARK                            x       y       z     vdW  Elec       q    Type
REMARK                         _______ _______ _______ _____ _____    ______ ____
ROOT
ATOM      1  N   UNL     1      34.673 -17.310 -22.772  0.00  0.00    -0.134 N 
ATOM      2  N   UNL     1      34.594 -17.996 -21.611  0.00  0.00    -0.168 NA
ATOM      3  N   UNL     1      34.746 -16.890 -24.949  0.00  0.00    -0.178 NA
ATOM      4  N   UNL     1      34.601 -19.191 -24.216  0.00  0.00    -0.200 NA
ATOM      5  C   UNL     1      34.761 -15.950 -22.894  0.00  0.00    +0.086 C 
ATOM      6  C   UNL     1      34.668 -17.848 -24.044  0.00  0.00    +0.114 C 
ATOM      7  C   UNL     1      34.805 -15.715 -24.246  0.00  0.00    +0.124 C 
ATOM      8  C   UNL     1      34.505 -19.284 -21.755  0.00  0.00    +0.103 C 
ATOM      9  C   UNL     1      34.529 -19.896 -23.134  0.00  0.00    +0.184 C 
ENDROOT
BRANCH   8  11
ATOM     10  F   UNL     1      36.548 -21.917 -18.227  0.00  0.00    -0.204 F 
ATOM     11  C   UNL     1      34.391 -20.160 -20.566  0.00  0.00    +0.019 C 
ATOM     12  C   UNL     1      35.542 -20.638 -19.940  0.00  0.00    +0.031 C 
ATOM     13  C   UNL     1      33.133 -20.505 -20.072  0.00  0.00    +0.002 C 
ATOM     14  C   UNL     1      34.178 -21.809 -18.326  0.00  0.00    +0.081 C 
ATOM     15  C   UNL     1      35.435 -21.463 -18.820  0.00  0.00    +0.144 C 
ATOM     16  C   UNL     1      33.027 -21.330 -18.952  0.00  0.00    +0.007 C 
BRANCH  14  19
ATOM     17  O   UNL     1      35.071 -23.194 -16.658  0.00  0.00    -0.270 OA
ATOM     18  N   UNL     1      32.779 -22.845 -16.626  0.00  0.00    -0.299 N 
ATOM     19  C   UNL     1      34.061 -22.667 -17.158  0.00  0.00    +0.248 C 
ATOM     20  C   UNL     1      32.504 -23.647 -15.455  0.00  0.00    +0.111 C 
ATOM     21  H   UNL     1      32.023 -22.399 -17.072  0.00  0.00    +0.150 HD
ENDBRANCH  14  19
ENDBRANCH   8  11
BRANCH   5  22
ATOM     22  C   UNL     1      34.796 -15.006 -21.709  0.00  0.00    +0.068 C 
BRANCH  22  24
ATOM     23  N   UNL     1      32.129 -10.101 -22.633  0.00  0.00    -0.248 NA
ATOM     24  C   UNL     1      34.088 -13.714 -21.943  0.00  0.00    -0.038 C 
ATOM     25  C   UNL     1      33.172 -13.239 -21.010  0.00  0.00    +0.050 C 
ATOM     26  C   UNL     1      32.503 -12.023 -21.227  0.00  0.00    -0.004 C 
ATOM     27  C   UNL     1      34.339 -12.979 -23.095  0.00  0.00    -0.028 C 
ATOM     28  C   UNL     1      32.752 -11.270 -22.394  0.00  0.00    +0.060 C 
ATOM     29  C   UNL     1      33.674 -11.769 -23.311  0.00  0.00    +0.071 C 
ATOM     30  C   UNL     1      31.577 -11.520 -20.304  0.00  0.00    -0.001 C 
ATOM     31  C   UNL     1      30.932 -10.315 -20.547  0.00  0.00    +0.020 C 
ATOM     32  C   UNL     1      31.241  -9.651 -21.716  0.00  0.00    +0.098 C 
ENDBRANCH  22  24
ENDBRANCH   5  22
TORSDOF 4
ENDMDL
MODEL 4
REMARK VINA RESULT:     -11.6      6.673     12.679
REMARK  Name = 25145656
REMARK  4 active torsions:
REMARK  status: ('A' for Active; 'I' for Inactive)
REMARK    1  A    between atoms: C_5  and  C_22
REMARK    2  A    between atoms: C_8  and  C_11
REMARK    3  A    between atoms: C_14  and  C_19
REMARK    4  A    between atoms: C_22  and  C_24
REMARK                            x       y       z     vdW  Elec       q    Type
REMARK                         _______ _______ _______ _____ _____    ______ ____
ROOT
ATOM      1  N   UNL     1      32.174  -8.929 -20.653  0.00  0.00    -0.134 N 
ATOM      2  N   UNL     1      32.444  -8.302 -21.819  0.00  0.00    -0.168 NA
ATOM      3  N   UNL     1      31.936  -9.279 -18.475  0.00  0.00    -0.178 NA
ATOM      4  N   UNL     1      32.748  -7.125 -19.223  0.00  0.00    -0.200 NA
ATOM      5  C   UNL     1      31.716 -10.212 -20.522  0.00  0.00    +0.086 C 
ATOM      6  C   UNL     1      32.297  -8.393 -19.386  0.00  0.00    +0.114 C 
ATOM      7  C   UNL     1      31.577 -10.404 -19.170  0.00  0.00    +0.124 C 
ATOM      8  C   UNL     1      32.856  -7.077 -21.685  0.00  0.00    +0.103 C 
ATOM      9  C   UNL     1      33.028  -6.481 -20.309  0.00  0.00    +0.184 C 
ENDROOT
BRANCH   8  11
ATOM     10  F   UNL     1      31.508  -3.973 -25.163  0.00  0.00    -0.204 F 
ATOM     11  C   UNL     1      33.170  -6.262 -22.881  0.00  0.00    +0.019 C 
ATOM     12  C   UNL     1      32.176  -5.484 -23.475  0.00  0.00    +0.031 C 
ATOM     13  C   UNL     1      34.459  -6.272 -23.413  0.00  0.00    +0.002 C 
ATOM     14  C   UNL     1      33.760  -4.727 -25.134  0.00  0.00    +0.081 C 
ATOM     15  C   UNL     1      32.472  -4.717 -24.601  0.00  0.00    +0.144 C 
ATOM     16  C   UNL     1      34.754  -5.504 -24.540  0.00  0.00    +0.007 C 
BRANCH  14  19
ATOM     17  O   UNL     1      34.754  -2.892 -26.204  0.00  0.00    -0.270 OA
ATOM     18  N   UNL     1      33.594  -4.391 -27.538  0.00  0.00    -0.299 N 
ATOM     19  C   UNL     1      34.073  -3.927 -26.308  0.00  0.00    +0.248 C 
ATOM     20  C   UNL     1      33.840  -3.722 -28.796  0.00  0.00    +0.111 C 
ATOM     21  H   UNL     1      33.060  -5.218 -27.549  0.00  0.00    +0.150 HD
ENDBRANCH  14  19
ENDBRANCH   8  11
BRANCH   5  22
ATOM     22  C   UNL     1      31.456 -11.130 -21.699  0.00  0.00    +0.068 C 
BRANCH  22  24
ATOM     23  N   UNL     1      34.871 -15.639 -21.853  0.00  0.00    -0.248 NA
ATOM     24  C   UNL     1      32.355 -12.319 -21.750  0.00  0.00    -0.038 C 
ATOM     25  C   UNL     1      32.658 -12.916 -22.970  0.00  0.00    +0.050 C 
ATOM     26  C   UNL     1      33.504 -14.035 -23.022  0.00  0.00    -0.004 C 
ATOM     27  C   UNL     1      32.896 -12.837 -20.580  0.00  0.00    -0.028 C 
ATOM     28  C   UNL     1      34.057 -14.568 -21.838  0.00  0.00    +0.060 C 
ATOM     29  C   UNL     1      33.737 -13.950 -20.632  0.00  0.00    +0.071 C 
ATOM     30  C   UNL     1      33.827 -14.656 -24.237  0.00  0.00    -0.001 C 
ATOM     31  C   UNL     1      34.666 -15.761 -24.255  0.00  0.00    +0.020 C 
ATOM     32  C   UNL     1      35.157 -16.209 -23.047  0.00  0.00    +0.098 C 
ENDBRANCH  22  24
ENDBRANCH   5  22
TORSDOF 4
ENDMDL
MODEL 5
REMARK VINA RESULT:     -11.5      6.095     10.310
REMARK  Name = 25145656
REMARK  4 active torsions:
REMARK  status: ('A' for Active; 'I' for Inactive)
REMARK    1  A    between atoms: C_5  and  C_22
REMARK    2  A    between atoms: C_8  and  C_11
REMARK    3  A    between atoms: C_14  and  C_19
REMARK    4  A    between atoms: C_22  and  C_24
REMARK                            x       y       z     vdW  Elec       q    Type
REMARK                         _______ _______ _______ _____ _____    ______ ____
ROOT
ATOM      1  N   UNL     1      33.831 -23.902 -14.718  0.00  0.00    -0.134 N 
ATOM      2  N   UNL     1      34.906 -24.628 -15.097  0.00  0.00    -0.168 NA
ATOM      3  N   UNL     1      32.392 -22.821 -13.420  0.00  0.00    -0.178 NA
ATOM      4  N   UNL     1      34.277 -23.934 -12.388  0.00  0.00    -0.200 NA
ATOM      5  C   UNL     1      32.878 -23.386 -15.554  0.00  0.00    +0.086 C 
ATOM      6  C   UNL     1      33.501 -23.539 -13.426  0.00  0.00    +0.114 C 
ATOM      7  C   UNL     1      32.003 -22.724 -14.730  0.00  0.00    +0.124 C 
ATOM      8  C   UNL     1      35.676 -24.996 -14.117  0.00  0.00    +0.103 C 
ATOM      9  C   UNL     1      35.318 -24.637 -12.695  0.00  0.00    +0.184 C 
ENDROOT
BRANCH   8  11
ATOM     10  F   UNL     1      40.462 -25.656 -13.664  0.00  0.00    -0.204 F 
ATOM     11  C   UNL     1      36.903 -25.780 -14.389  0.00  0.00    +0.019 C 
ATOM     12  C   UNL     1      38.131 -25.345 -13.892  0.00  0.00    +0.031 C 
ATOM     13  C   UNL     1      36.829 -26.953 -15.140  0.00  0.00    +0.002 C 
ATOM     14  C   UNL     1      39.214 -27.256 -14.899  0.00  0.00    +0.081 C 
ATOM     15  C   UNL     1      39.287 -26.083 -14.147  0.00  0.00    +0.144 C 
ATOM     16  C   UNL     1      37.985 -27.690 -15.395  0.00  0.00    +0.007 C 
BRANCH  14  19
ATOM     17  O   UNL     1      41.145 -27.749 -16.135  0.00  0.00    -0.270 OA
ATOM     18  N   UNL     1      40.714 -29.069 -14.279  0.00  0.00    -0.299 N 
ATOM     19  C   UNL     1      40.416 -28.029 -15.167  0.00  0.00    +0.248 C 
ATOM     20  C   UNL     1      41.883 -29.910 -14.396  0.00  0.00    +0.111 C 
ATOM     21  H   UNL     1      40.093 -29.237 -13.533  0.00  0.00    +0.150 HD
ENDBRANCH  14  19
ENDBRANCH   8  11
BRANCH   5  22
ATOM     22  C   UNL     1      32.897 -23.575 -17.057  0.00  0.00    +0.068 C 
BRANCH  22  24
ATOM     23  N   UNL     1      36.363 -20.007 -19.755  0.00  0.00    -0.248 NA
ATOM     24  C   UNL     1      33.802 -22.632 -17.774  0.00  0.00    -0.038 C 
ATOM     25  C   UNL     1      33.318 -21.859 -18.826  0.00  0.00    +0.050 C 
ATOM     26  C   UNL     1      34.167 -20.970 -19.504  0.00  0.00    -0.004 C 
ATOM     27  C   UNL     1      35.135 -22.519 -17.397  0.00  0.00    -0.028 C 
ATOM     28  C   UNL     1      35.522 -20.849 -19.127  0.00  0.00    +0.060 C 
ATOM     29  C   UNL     1      35.979 -21.634 -18.071  0.00  0.00    +0.071 C 
ATOM     30  C   UNL     1      33.706 -20.179 -20.565  0.00  0.00    -0.001 C 
ATOM     31  C   UNL     1      34.571 -19.310 -21.215  0.00  0.00    +0.020 C 
ATOM     32  C   UNL     1      35.877 -19.261 -20.775  0.00  0.00    +0.098 C 
ENDBRANCH  22  24
ENDBRANCH   5  22
TORSDOF 4
ENDMDL
MODEL 6
REMARK VINA RESULT:     -11.5      5.711     11.991
REMARK  Name = 25145656
REMARK  4 active torsions:
REMARK  status: ('A' for Active; 'I' for Inactive)
REMARK    1  A    between atoms: C_5  and  C_22
REMARK    2  A    between atoms: C_8  and  C_11
REMARK    3  A    between atoms: C_14  and  C_19
REMARK    4  A    between atoms: C_22  and  C_24
REMARK                            x       y       z     vdW  Elec       q    Type
REMARK                         _______ _______ _______ _____ _____    ______ ____
ROOT
ATOM      1  N   UNL     1      32.667 -11.267 -21.920  0.00  0.00    -0.134 N 
ATOM      2  N   UNL     1      33.046 -10.207 -22.668  0.00  0.00    -0.168 NA
ATOM      3  N   UNL     1      31.693 -12.451 -20.316  0.00  0.00    -0.178 NA
ATOM      4  N   UNL     1      31.413 -10.047 -20.318  0.00  0.00    -0.200 NA
ATOM      5  C   UNL     1      32.998 -12.574 -22.158  0.00  0.00    +0.086 C 
ATOM      6  C   UNL     1      31.874 -11.231 -20.790  0.00  0.00    +0.114 C 
ATOM      7  C   UNL     1      32.385 -13.284 -21.156  0.00  0.00    +0.124 C 
ATOM      8  C   UNL     1      32.595  -9.065 -22.245  0.00  0.00    +0.103 C 
ATOM      9  C   UNL     1      31.751  -8.998 -20.995  0.00  0.00    +0.184 C 
ENDROOT
BRANCH   8  11
ATOM     10  F   UNL     1      31.203  -5.219 -24.857  0.00  0.00    -0.204 F 
ATOM     11  C   UNL     1      32.914  -7.820 -22.981  0.00  0.00    +0.019 C 
ATOM     12  C   UNL     1      31.893  -7.087 -23.587  0.00  0.00    +0.031 C 
ATOM     13  C   UNL     1      34.234  -7.380 -23.069  0.00  0.00    +0.002 C 
ATOM     14  C   UNL     1      33.513  -5.475 -24.368  0.00  0.00    +0.081 C 
ATOM     15  C   UNL     1      32.193  -5.915 -24.280  0.00  0.00    +0.144 C 
ATOM     16  C   UNL     1      34.534  -6.207 -23.762  0.00  0.00    +0.007 C 
BRANCH  14  19
ATOM     17  O   UNL     1      33.256  -3.186 -24.807  0.00  0.00    -0.270 OA
ATOM     18  N   UNL     1      34.815  -4.337 -26.080  0.00  0.00    -0.299 N 
ATOM     19  C   UNL     1      33.830  -4.252 -25.089  0.00  0.00    +0.248 C 
ATOM     20  C   UNL     1      35.257  -3.207 -26.866  0.00  0.00    +0.111 C 
ATOM     21  H   UNL     1      35.229  -5.213 -26.253  0.00  0.00    +0.150 HD
ENDBRANCH  14  19
ENDBRANCH   8  11
BRANCH   5  22
ATOM     22  C   UNL     1      33.865 -13.017 -23.319  0.00  0.00    +0.068 C 
BRANCH  22  24
ATOM     23  N   UNL     1      35.059 -18.548 -23.338  0.00  0.00    -0.248 NA
ATOM     24  C   UNL     1      34.183 -14.474 -23.314  0.00  0.00    -0.038 C 
ATOM     25  C   UNL     1      34.693 -15.076 -22.167  0.00  0.00    +0.050 C 
ATOM     26  C   UNL     1      34.994 -16.448 -22.158  0.00  0.00    -0.004 C 
ATOM     27  C   UNL     1      33.972 -15.240 -24.454  0.00  0.00    -0.028 C 
ATOM     28  C   UNL     1      34.782 -17.232 -23.312  0.00  0.00    +0.060 C 
ATOM     29  C   UNL     1      34.271 -16.604 -24.445  0.00  0.00    +0.071 C 
ATOM     30  C   UNL     1      35.507 -17.079 -21.018  0.00  0.00    -0.001 C 
ATOM     31  C   UNL     1      35.794 -18.437 -21.041  0.00  0.00    +0.020 C 
ATOM     32  C   UNL     1      35.554 -19.120 -22.215  0.00  0.00    +0.098 C 
ENDBRANCH  22  24
ENDBRANCH   5  22
TORSDOF 4
ENDMDL
MODEL 7
REMARK VINA RESULT:     -11.4      5.169     10.013
REMARK  Name = 25145656
REMARK  4 active torsions:
REMARK  status: ('A' for Active; 'I' for Inactive)
REMARK    1  A    between atoms: C_5  and  C_22
REMARK    2  A    between atoms: C_8  and  C_11
REMARK    3  A    between atoms: C_14  and  C_19
REMARK    4  A    between atoms: C_22  and  C_24
REMARK                            x       y       z     vdW  Elec       q    Type
REMARK                         _______ _______ _______ _____ _____    ______ ____
ROOT
ATOM      1  N   UNL     1      31.660  -6.896 -21.995  0.00  0.00    -0.134 N 
ATOM      2  N   UNL     1      31.956  -8.069 -22.597  0.00  0.00    -0.168 NA
ATOM      3  N   UNL     1      31.334  -5.392 -20.397  0.00  0.00    -0.178 NA
ATOM      4  N   UNL     1      31.950  -7.645 -19.762  0.00  0.00    -0.200 NA
ATOM      5  C   UNL     1      31.318  -5.733 -22.631  0.00  0.00    +0.086 C 
ATOM      6  C   UNL     1      31.657  -6.650 -20.636  0.00  0.00    +0.114 C 
ATOM      7  C   UNL     1      31.122  -4.821 -21.625  0.00  0.00    +0.124 C 
ATOM      8  C   UNL     1      32.262  -9.029 -21.777  0.00  0.00    +0.103 C 
ATOM      9  C   UNL     1      32.236  -8.791 -20.287  0.00  0.00    +0.184 C 
ENDROOT
BRANCH   8  11
ATOM     10  F   UNL     1      34.425 -11.823 -25.103  0.00  0.00    -0.204 F 
ATOM     11  C   UNL     1      32.629 -10.365 -22.300  0.00  0.00    +0.019 C 
ATOM     12  C   UNL     1      33.368 -10.473 -23.478  0.00  0.00    +0.031 C 
ATOM     13  C   UNL     1      32.236 -11.515 -21.615  0.00  0.00    +0.002 C 
ATOM     14  C   UNL     1      33.321 -12.881 -23.286  0.00  0.00    +0.081 C 
ATOM     15  C   UNL     1      33.714 -11.732 -23.970  0.00  0.00    +0.144 C 
ATOM     16  C   UNL     1      32.582 -12.773 -22.108  0.00  0.00    +0.007 C 
BRANCH  14  19
ATOM     17  O   UNL     1      33.348 -14.540 -24.943  0.00  0.00    -0.270 OA
ATOM     18  N   UNL     1      34.426 -15.023 -22.948  0.00  0.00    -0.299 N 
ATOM     19  C   UNL     1      33.681 -14.195 -23.795  0.00  0.00    +0.248 C 
ATOM     20  C   UNL     1      34.879 -16.344 -23.318  0.00  0.00    +0.111 C 
ATOM     21  H   UNL     1      34.655 -14.687 -22.051  0.00  0.00    +0.150 HD
ENDBRANCH  14  19
ENDBRANCH   8  11
BRANCH   5  22
ATOM     22  C   UNL     1      31.212  -5.606 -24.137  0.00  0.00    +0.068 C 
BRANCH  22  24
ATOM     23  N   UNL     1      36.117  -4.321 -26.649  0.00  0.00    -0.248 NA
ATOM     24  C   UNL     1      32.499  -5.264 -24.807  0.00  0.00    -0.038 C 
ATOM     25  C   UNL     1      32.498  -4.694 -26.077  0.00  0.00    +0.050 C 
ATOM     26  C   UNL     1      33.708  -4.370 -26.712  0.00  0.00    -0.004 C 
ATOM     27  C   UNL     1      33.708  -5.512 -24.168  0.00  0.00    -0.028 C 
ATOM     28  C   UNL     1      34.940  -4.619 -26.070  0.00  0.00    +0.060 C 
ATOM     29  C   UNL     1      34.912  -5.190 -24.800  0.00  0.00    +0.071 C 
ATOM     30  C   UNL     1      33.736  -3.795 -27.990  0.00  0.00    -0.001 C 
ATOM     31  C   UNL     1      34.949  -3.486 -28.590  0.00  0.00    +0.020 C 
ATOM     32  C   UNL     1      36.100  -3.767 -27.884  0.00  0.00    +0.098 C 
ENDBRANCH  22  24
ENDBRANCH   5  22
TORSDOF 4
ENDMDL
MODEL 8
REMARK VINA RESULT:     -11.4      5.130     12.945
REMARK  Name = 25145656
REMARK  4 active torsions:
REMARK  status: ('A' for Active; 'I' for Inactive)
REMARK    1  A    between atoms: C_5  and  C_22
REMARK    2  A    between atoms: C_8  and  C_11
REMARK    3  A    between atoms: C_14  and  C_19
REMARK    4  A    between atoms: C_22  and  C_24
REMARK                            x       y       z     vdW  Elec       q    Type
REMARK                         _______ _______ _______ _____ _____    ______ ____
ROOT
ATOM      1  N   UNL     1      33.546 -23.598 -15.148  0.00  0.00    -0.134 N 
ATOM      2  N   UNL     1      34.071 -22.891 -16.173  0.00  0.00    -0.168 NA
ATOM      3  N   UNL     1      32.054 -24.623 -13.864  0.00  0.00    -0.178 NA
ATOM      4  N   UNL     1      31.283 -23.473 -15.849  0.00  0.00    -0.200 NA
ATOM      5  C   UNL     1      34.250 -24.146 -14.110  0.00  0.00    +0.086 C 
ATOM      6  C   UNL     1      32.212 -23.908 -14.964  0.00  0.00    +0.114 C 
ATOM      7  C   UNL     1      33.308 -24.772 -13.332  0.00  0.00    +0.124 C 
ATOM      8  C   UNL     1      33.198 -22.485 -17.045  0.00  0.00    +0.103 C 
ATOM      9  C   UNL     1      31.732 -22.786 -16.848  0.00  0.00    +0.184 C 
ENDROOT
BRANCH   8  11
ATOM     10  F   UNL     1      36.708 -20.846 -19.968  0.00  0.00    -0.204 F 
ATOM     11  C   UNL     1      33.635 -21.716 -18.233  0.00  0.00    +0.019 C 
ATOM     12  C   UNL     1      34.991 -21.638 -18.552  0.00  0.00    +0.031 C 
ATOM     13  C   UNL     1      32.692 -21.070 -19.033  0.00  0.00    +0.002 C 
ATOM     14  C   UNL     1      34.460 -20.267 -20.470  0.00  0.00    +0.081 C 
ATOM     15  C   UNL     1      35.403 -20.914 -19.671  0.00  0.00    +0.144 C 
ATOM     16  C   UNL     1      33.105 -20.346 -20.151  0.00  0.00    +0.007 C 
BRANCH  14  19
ATOM     17  O   UNL     1      36.017 -18.998 -21.680  0.00  0.00    -0.270 OA
ATOM     18  N   UNL     1      33.977 -19.418 -22.698  0.00  0.00    -0.299 N 
ATOM     19  C   UNL     1      34.885 -19.512 -21.638  0.00  0.00    +0.248 C 
ATOM     20  C   UNL     1      34.261 -18.724 -23.934  0.00  0.00    +0.111 C 
ATOM     21  H   UNL     1      33.097 -19.848 -22.599  0.00  0.00    +0.150 HD
ENDBRANCH  14  19
ENDBRANCH   8  11
BRANCH   5  22
ATOM     22  C   UNL     1      35.753 -24.018 -13.961  0.00  0.00    +0.068 C 
BRANCH  22  24
ATOM     23  N   UNL     1      38.410 -28.942 -13.121  0.00  0.00    -0.248 NA
ATOM     24  C   UNL     1      36.452 -25.317 -13.750  0.00  0.00    -0.038 C 
ATOM     25  C   UNL     1      36.666 -26.180 -14.821  0.00  0.00    +0.050 C 
ATOM     26  C   UNL     1      37.324 -27.405 -14.627  0.00  0.00    -0.004 C 
ATOM     27  C   UNL     1      36.895 -25.675 -12.482  0.00  0.00    -0.028 C 
ATOM     28  C   UNL     1      37.777 -27.776 -13.342  0.00  0.00    +0.060 C 
ATOM     29  C   UNL     1      37.550 -26.894 -12.289  0.00  0.00    +0.071 C 
ATOM     30  C   UNL     1      37.553 -28.292 -15.687  0.00  0.00    -0.001 C 
ATOM     31  C   UNL     1      38.207 -29.496 -15.462  0.00  0.00    +0.020 C 
ATOM     32  C   UNL     1      38.612 -29.770 -14.173  0.00  0.00    +0.098 C 
ENDBRANCH  22  24
ENDBRANCH   5  22
TORSDOF 4
ENDMDL
MODEL 9
REMARK VINA RESULT:     -11.4      5.614     12.071
REMARK  Name = 25145656
REMARK  4 active torsions:
REMARK  status: ('A' for Active; 'I' for Inactive)
REMARK    1  A    between atoms: C_5  and  C_22
REMARK    2  A    between atoms: C_8  and  C_11
REMARK    3  A    between atoms: C_14  and  C_19
REMARK    4  A    between atoms: C_22  and  C_24
REMARK                            x       y       z     vdW  Elec       q    Type
REMARK                         _______ _______ _______ _____ _____    ______ ____
ROOT
ATOM      1  N   UNL     1      32.580 -11.297 -21.865  0.00  0.00    -0.134 N 
ATOM      2  N   UNL     1      32.812 -10.244 -22.679  0.00  0.00    -0.168 NA
ATOM      3  N   UNL     1      31.858 -12.479 -20.131  0.00  0.00    -0.178 NA
ATOM      4  N   UNL     1      31.439 -10.095 -20.167  0.00  0.00    -0.200 NA
ATOM      5  C   UNL     1      32.958 -12.591 -22.102  0.00  0.00    +0.086 C 
ATOM      6  C   UNL     1      31.915 -11.267 -20.655  0.00  0.00    +0.114 C 
ATOM      7  C   UNL     1      32.501 -13.300 -21.020  0.00  0.00    +0.124 C 
ATOM      8  C   UNL     1      32.343  -9.114 -22.239  0.00  0.00    +0.103 C 
ATOM      9  C   UNL     1      31.639  -9.053 -20.905  0.00  0.00    +0.184 C 
ENDROOT
BRANCH   8  11
ATOM     10  F   UNL     1      35.144  -5.608 -24.085  0.00  0.00    -0.204 F 
ATOM     11  C   UNL     1      32.507  -7.879 -23.040  0.00  0.00    +0.019 C 
ATOM     12  C   UNL     1      33.770  -7.309 -23.192  0.00  0.00    +0.031 C 
ATOM     13  C   UNL     1      31.397  -7.286 -23.642  0.00  0.00    +0.002 C 
ATOM     14  C   UNL     1      32.815  -5.552 -24.548  0.00  0.00    +0.081 C 
ATOM     15  C   UNL     1      33.925  -6.146 -23.946  0.00  0.00    +0.144 C 
ATOM     16  C   UNL     1      31.552  -6.123 -24.396  0.00  0.00    +0.007 C 
BRANCH  14  19
ATOM     17  O   UNL     1      33.134  -4.403 -26.567  0.00  0.00    -0.270 OA
ATOM     18  N   UNL     1      32.907  -3.123 -24.648  0.00  0.00    -0.299 N 
ATOM     19  C   UNL     1      32.972  -4.340 -25.336  0.00  0.00    +0.248 C 
ATOM     20  C   UNL     1      33.021  -1.834 -25.292  0.00  0.00    +0.111 C 
ATOM     21  H   UNL     1      32.778  -3.145 -23.672  0.00  0.00    +0.150 HD
ENDBRANCH  14  19
ENDBRANCH   8  11
BRANCH   5  22
ATOM     22  C   UNL     1      33.718 -13.024 -23.340  0.00  0.00    +0.068 C 
BRANCH  22  24
ATOM     23  N   UNL     1      35.148 -18.499 -23.385  0.00  0.00    -0.248 NA
ATOM     24  C   UNL     1      34.098 -14.466 -23.342  0.00  0.00    -0.038 C 
ATOM     25  C   UNL     1      34.640 -15.049 -22.200  0.00  0.00    +0.050 C 
ATOM     26  C   UNL     1      34.999 -16.407 -22.198  0.00  0.00    -0.004 C 
ATOM     27  C   UNL     1      33.913 -15.237 -24.483  0.00  0.00    -0.028 C 
ATOM     28  C   UNL     1      34.814 -17.196 -23.353  0.00  0.00    +0.060 C 
ATOM     29  C   UNL     1      34.270 -16.587 -24.481  0.00  0.00    +0.071 C 
ATOM     30  C   UNL     1      35.546 -17.019 -21.062  0.00  0.00    -0.001 C 
ATOM     31  C   UNL     1      35.892 -18.364 -21.092  0.00  0.00    +0.020 C 
ATOM     32  C   UNL     1      35.674 -19.052 -22.267  0.00  0.00    +0.098 C 
ENDBRANCH  22  24
ENDBRANCH   5  22
TORSDOF 4
ENDMDL
