MODEL 1
REMARK VINA RESULT:     -12.6      0.000      0.000
REMARK  Name = 446399
REMARK  4 active torsions:
REMARK  status: ('A' for Active; 'I' for Inactive)
REMARK    1  A    between atoms: N_3  and  S_21
REMARK    2  A    between atoms: C_4  and  C_10
REMARK    3  A    between atoms: N_9  and  C_16
REMARK    4  A    between atoms: S_21  and  C_25
REMARK                            x       y       z     vdW  Elec       q    Type
REMARK                         _______ _______ _______ _____ _____    ______ ____
ROOT
ATOM      1  O   UNL     1      33.386 -13.560 -25.466  0.00  0.00    -0.275 OA
ATOM      2  N   UNL     1      33.772 -14.908 -23.614  0.00  0.00    -0.277 N 
ATOM      3  N   UNL     1      35.043 -17.280 -22.688  0.00  0.00    -0.152 NA
ATOM      4  C   UNL     1      33.601 -13.683 -24.257  0.00  0.00    +0.225 C 
ATOM      5  C   UNL     1      34.029 -15.089 -22.180  0.00  0.00    +0.113 C 
ATOM      6  C   UNL     1      33.631 -16.156 -24.365  0.00  0.00    +0.113 C 
ATOM      7  C   UNL     1      35.240 -15.991 -21.958  0.00  0.00    +0.117 C 
ATOM      8  C   UNL     1      34.840 -17.059 -24.152  0.00  0.00    +0.117 C 
ENDROOT
BRANCH   4  10
ATOM      9  N   UNL     1      32.688  -9.872 -22.572  0.00  0.00    -0.307 N 
ATOM     10  C   UNL     1      33.693 -12.450 -23.394  0.00  0.00    +0.080 C 
ATOM     11  C   UNL     1      32.424 -12.320 -22.555  0.00  0.00    +0.031 C 
ATOM     12  C   UNL     1      33.870 -11.211 -24.268  0.00  0.00    +0.031 C 
ATOM     13  C   UNL     1      32.432 -11.039 -21.721  0.00  0.00    +0.091 C 
ATOM     14  C   UNL     1      33.882  -9.936 -23.428  0.00  0.00    +0.091 C 
BRANCH   9  16
ATOM     15  N   UNL     1      31.419  -6.054 -21.294  0.00  0.00    -0.242 NA
ATOM     16  C   UNL     1      32.267  -8.605 -22.148  0.00  0.00    +0.051 C 
ATOM     17  C   UNL     1      31.524  -7.769 -22.995  0.00  0.00    +0.035 C 
ATOM     18  C   UNL     1      32.577  -8.133 -20.863  0.00  0.00    +0.035 C 
ATOM     19  C   UNL     1      31.131  -6.524 -22.528  0.00  0.00    +0.100 C 
ATOM     20  C   UNL     1      32.136  -6.873 -20.492  0.00  0.00    +0.100 C 
ENDBRANCH   9  16
ENDBRANCH   4  10
BRANCH   3  21
ATOM     21  S   UNL     1      36.141 -18.529 -22.281  0.00  0.00    +0.063 S 
ATOM     22  O   UNL     1      37.233 -17.968 -21.517  0.00  0.00    -0.153 OA
ATOM     23  O   UNL     1      36.390 -19.335 -23.457  0.00  0.00    -0.153 OA
BRANCH  21  25
ATOM     24 CL   UNL     1      32.383 -23.411 -16.473  0.00  0.00    -0.082 Cl
ATOM     25  C   UNL     1      35.137 -19.473 -21.178  0.00  0.00    +0.122 C 
ATOM     26  C   UNL     1      35.744 -20.234 -20.193  0.00  0.00    +0.020 C 
ATOM     27  C   UNL     1      33.762 -19.436 -21.316  0.00  0.00    +0.020 C 
ATOM     28  C   UNL     1      34.959 -20.991 -19.307  0.00  0.00    +0.001 C 
ATOM     29  C   UNL     1      33.550 -20.963 -19.434  0.00  0.00    +0.001 C 
ATOM     30  C   UNL     1      32.968 -20.181 -20.444  0.00  0.00    +0.001 C 
ATOM     31  C   UNL     1      35.543 -21.774 -18.297  0.00  0.00    +0.001 C 
ATOM     32  C   UNL     1      32.765 -21.719 -18.548  0.00  0.00    +0.011 C 
ATOM     33  C   UNL     1      34.747 -22.519 -17.425  0.00  0.00    +0.011 C 
ATOM     34  C   UNL     1      33.361 -22.492 -17.551  0.00  0.00    +0.058 C 
ENDBRANCH  21  25
ENDBRANCH   3  21
TORSDOF 4
ENDMDL
MODEL 2
REMARK VINA RESULT:     -11.5      4.505     11.489
REMARK  Name = 446399
REMARK  4 active torsions:
REMARK  status: ('A' for Active; 'I' for Inactive)
REMARK    1  A    between atoms: N_3  and  S_21
REMARK    2  A    between atoms: C_4  and  C_10
REMARK    3  A    between atoms: N_9  and  C_16
REMARK    4  A    between atoms: S_21  and  C_25
REMARK                            x       y       z     vdW  Elec       q    Type
REMARK                         _______ _______ _______ _____ _____    ______ ____
ROOT
ATOM      1  O   UNL     1      34.175 -16.140 -25.140  0.00  0.00    -0.275 OA
ATOM      2  N   UNL     1      34.311 -14.614 -23.394  0.00  0.00    -0.277 N 
ATOM      3  N   UNL     1      33.003 -12.451 -22.089  0.00  0.00    -0.152 NA
ATOM      4  C   UNL     1      34.500 -15.864 -23.982  0.00  0.00    +0.225 C 
ATOM      5  C   UNL     1      34.685 -14.254 -22.021  0.00  0.00    +0.113 C 
ATOM      6  C   UNL     1      33.759 -13.511 -24.180  0.00  0.00    +0.113 C 
ATOM      7  C   UNL     1      33.509 -13.610 -21.293  0.00  0.00    +0.117 C 
ATOM      8  C   UNL     1      32.579 -12.867 -23.461  0.00  0.00    +0.117 C 
ENDROOT
BRANCH   4  10
ATOM      9  N   UNL     1      34.941 -19.057 -21.188  0.00  0.00    -0.307 N 
ATOM     10  C   UNL     1      35.140 -16.924 -23.123  0.00  0.00    +0.080 C 
ATOM     11  C   UNL     1      34.580 -18.293 -23.501  0.00  0.00    +0.031 C 
ATOM     12  C   UNL     1      34.870 -16.638 -21.648  0.00  0.00    +0.031 C 
ATOM     13  C   UNL     1      35.138 -19.395 -22.601  0.00  0.00    +0.091 C 
ATOM     14  C   UNL     1      35.434 -17.742 -20.755  0.00  0.00    +0.091 C 
BRANCH   9  16
ATOM     15  N   UNL     1      34.859 -22.143 -18.308  0.00  0.00    -0.242 NA
ATOM     16  C   UNL     1      34.914 -20.080 -20.232  0.00  0.00    +0.051 C 
ATOM     17  C   UNL     1      36.101 -20.595 -19.690  0.00  0.00    +0.035 C 
ATOM     18  C   UNL     1      33.698 -20.624 -19.788  0.00  0.00    +0.035 C 
ATOM     19  C   UNL     1      36.021 -21.608 -18.747  0.00  0.00    +0.100 C 
ATOM     20  C   UNL     1      33.725 -21.635 -18.841  0.00  0.00    +0.100 C 
ENDBRANCH   9  16
ENDBRANCH   4  10
BRANCH   3  21
ATOM     21  S   UNL     1      31.911 -11.417 -21.268  0.00  0.00    +0.063 S 
ATOM     22  O   UNL     1      32.280 -11.356 -19.871  0.00  0.00    -0.153 OA
ATOM     23  O   UNL     1      30.561 -11.748 -21.670  0.00  0.00    -0.153 OA
BRANCH  21  25
ATOM     24 CL   UNL     1      32.949  -3.564 -24.257  0.00  0.00    -0.082 Cl
ATOM     25  C   UNL     1      32.335  -9.872 -22.008  0.00  0.00    +0.122 C 
ATOM     26  C   UNL     1      31.533  -8.767 -21.778  0.00  0.00    +0.020 C 
ATOM     27  C   UNL     1      33.463  -9.792 -22.805  0.00  0.00    +0.020 C 
ATOM     28  C   UNL     1      31.857  -7.530 -22.360  0.00  0.00    +0.001 C 
ATOM     29  C   UNL     1      33.008  -7.431 -23.178  0.00  0.00    +0.001 C 
ATOM     30  C   UNL     1      33.800  -8.571 -23.390  0.00  0.00    +0.001 C 
ATOM     31  C   UNL     1      31.065  -6.391 -22.147  0.00  0.00    +0.001 C 
ATOM     32  C   UNL     1      33.333  -6.194 -23.759  0.00  0.00    +0.011 C 
ATOM     33  C   UNL     1      31.402  -5.170 -22.733  0.00  0.00    +0.011 C 
ATOM     34  C   UNL     1      32.534  -5.072 -23.538  0.00  0.00    +0.058 C 
ENDBRANCH  21  25
ENDBRANCH   3  21
TORSDOF 4
ENDMDL
MODEL 3
REMARK VINA RESULT:     -11.0      7.667     11.635
REMARK  Name = 446399
REMARK  4 active torsions:
REMARK  status: ('A' for Active; 'I' for Inactive)
REMARK    1  A    between atoms: N_3  and  S_21
REMARK    2  A    between atoms: C_4  and  C_10
REMARK    3  A    between atoms: N_9  and  C_16
REMARK    4  A    between atoms: S_21  and  C_25
REMARK                            x       y       z     vdW  Elec       q    Type
REMARK                         _______ _______ _______ _____ _____    ______ ____
ROOT
ATOM      1  O   UNL     1      32.295 -23.527 -15.863  0.00  0.00    -0.275 OA
ATOM      2  N   UNL     1      34.321 -23.057 -14.830  0.00  0.00    -0.277 N 
ATOM      3  N   UNL     1      36.090 -23.806 -12.731  0.00  0.00    -0.152 NA
ATOM      4  C   UNL     1      33.476 -23.177 -15.932  0.00  0.00    +0.225 C 
ATOM      5  C   UNL     1      35.729 -22.644 -14.877  0.00  0.00    +0.113 C 
ATOM      6  C   UNL     1      33.802 -23.285 -13.480  0.00  0.00    +0.113 C 
ATOM      7  C   UNL     1      36.608 -23.638 -14.122  0.00  0.00    +0.117 C 
ATOM      8  C   UNL     1      34.673 -24.281 -12.724  0.00  0.00    +0.117 C 
ENDROOT
BRANCH   4  10
ATOM      9  N   UNL     1      34.975 -20.939 -19.239  0.00  0.00    -0.307 N 
ATOM     10  C   UNL     1      34.073 -22.855 -17.278  0.00  0.00    +0.080 C 
ATOM     11  C   UNL     1      35.367 -22.068 -17.086  0.00  0.00    +0.031 C 
ATOM     12  C   UNL     1      33.085 -22.042 -18.109  0.00  0.00    +0.031 C 
ATOM     13  C   UNL     1      35.970 -21.646 -18.425  0.00  0.00    +0.091 C 
ATOM     14  C   UNL     1      33.693 -21.627 -19.447  0.00  0.00    +0.091 C 
BRANCH   9  16
ATOM     15  N   UNL     1      36.270 -18.292 -22.262  0.00  0.00    -0.242 NA
ATOM     16  C   UNL     1      35.404 -20.061 -20.242  0.00  0.00    +0.051 C 
ATOM     17  C   UNL     1      34.562 -19.713 -21.309  0.00  0.00    +0.035 C 
ATOM     18  C   UNL     1      36.692 -19.502 -20.211  0.00  0.00    +0.035 C 
ATOM     19  C   UNL     1      35.034 -18.840 -22.276  0.00  0.00    +0.100 C 
ATOM     20  C   UNL     1      37.068 -18.638 -21.227  0.00  0.00    +0.100 C 
ENDBRANCH   9  16
ENDBRANCH   4  10
BRANCH   3  21
ATOM     21  S   UNL     1      37.141 -24.621 -11.651  0.00  0.00    +0.063 S 
ATOM     22  O   UNL     1      36.368 -25.536 -10.841  0.00  0.00    -0.153 OA
ATOM     23  O   UNL     1      38.029 -23.654 -11.043  0.00  0.00    -0.153 OA
BRANCH  21  25
ATOM     24 CL   UNL     1      40.652 -29.910 -17.253  0.00  0.00    -0.082 Cl
ATOM     25  C   UNL     1      38.081 -25.576 -12.799  0.00  0.00    +0.122 C 
ATOM     26  C   UNL     1      37.504 -26.690 -13.387  0.00  0.00    +0.020 C 
ATOM     27  C   UNL     1      39.378 -25.196 -13.092  0.00  0.00    +0.020 C 
ATOM     28  C   UNL     1      38.239 -27.461 -14.303  0.00  0.00    +0.001 C 
ATOM     29  C   UNL     1      39.568 -27.085 -14.614  0.00  0.00    +0.001 C 
ATOM     30  C   UNL     1      40.122 -25.951 -14.000  0.00  0.00    +0.001 C 
ATOM     31  C   UNL     1      37.684 -28.595 -14.917  0.00  0.00    +0.001 C 
ATOM     32  C   UNL     1      40.303 -27.855 -15.531  0.00  0.00    +0.011 C 
ATOM     33  C   UNL     1      38.429 -29.349 -15.825  0.00  0.00    +0.011 C 
ATOM     34  C   UNL     1      39.736 -28.980 -16.131  0.00  0.00    +0.058 C 
ENDBRANCH  21  25
ENDBRANCH   3  21
TORSDOF 4
ENDMDL
MODEL 4
REMARK VINA RESULT:     -10.5      6.881     13.540
REMARK  Name = 446399
REMARK  4 active torsions:
REMARK  status: ('A' for Active; 'I' for Inactive)
REMARK    1  A    between atoms: N_3  and  S_21
REMARK    2  A    between atoms: C_4  and  C_10
REMARK    3  A    between atoms: N_9  and  C_16
REMARK    4  A    between atoms: S_21  and  C_25
REMARK                            x       y       z     vdW  Elec       q    Type
REMARK                         _______ _______ _______ _____ _____    ______ ____
ROOT
ATOM      1  O   UNL     1      32.678  -8.231 -20.059  0.00  0.00    -0.275 OA
ATOM      2  N   UNL     1      31.510  -7.108 -21.723  0.00  0.00    -0.277 N 
ATOM      3  N   UNL     1      31.224  -4.632 -23.095  0.00  0.00    -0.152 NA
ATOM      4  C   UNL     1      32.123  -8.227 -21.161  0.00  0.00    +0.225 C 
ATOM      5  C   UNL     1      30.843  -7.068 -23.029  0.00  0.00    +0.113 C 
ATOM      6  C   UNL     1      31.438  -5.856 -20.968  0.00  0.00    +0.113 C 
ATOM      7  C   UNL     1      31.363  -5.904 -23.867  0.00  0.00    +0.117 C 
ATOM      8  C   UNL     1      31.963  -4.690 -21.798  0.00  0.00    +0.117 C 
ENDROOT
BRANCH   4  10
ATOM      9  N   UNL     1      33.148 -12.101 -22.621  0.00  0.00    -0.307 N 
ATOM     10  C   UNL     1      32.090  -9.495 -21.976  0.00  0.00    +0.080 C 
ATOM     11  C   UNL     1      31.882 -10.690 -21.049  0.00  0.00    +0.031 C 
ATOM     12  C   UNL     1      33.395  -9.654 -22.750  0.00  0.00    +0.031 C 
ATOM     13  C   UNL     1      31.922 -12.010 -21.820  0.00  0.00    +0.091 C 
ATOM     14  C   UNL     1      33.427 -10.973 -23.520  0.00  0.00    +0.091 C 
BRANCH   9  16
ATOM     15  N   UNL     1      34.602 -15.897 -23.762  0.00  0.00    -0.242 NA
ATOM     16  C   UNL     1      33.630 -13.361 -22.999  0.00  0.00    +0.051 C 
ATOM     17  C   UNL     1      34.337 -14.166 -22.094  0.00  0.00    +0.035 C 
ATOM     18  C   UNL     1      33.421 -13.855 -24.297  0.00  0.00    +0.035 C 
ATOM     19  C   UNL     1      34.794 -15.405 -22.517  0.00  0.00    +0.100 C 
ATOM     20  C   UNL     1      33.919 -15.107 -24.621  0.00  0.00    +0.100 C 
ENDBRANCH   9  16
ENDBRANCH   4  10
BRANCH   3  21
ATOM     21  S   UNL     1      31.447  -3.196 -24.002  0.00  0.00    +0.063 S 
ATOM     22  O   UNL     1      31.895  -2.144 -23.116  0.00  0.00    -0.153 OA
ATOM     23  O   UNL     1      30.303  -3.006 -24.867  0.00  0.00    -0.153 OA
BRANCH  21  25
ATOM     24 CL   UNL     1      37.444  -4.899 -29.730  0.00  0.00    -0.082 Cl
ATOM     25  C   UNL     1      32.816  -3.676 -25.007  0.00  0.00    +0.122 C 
ATOM     26  C   UNL     1      32.846  -3.295 -26.338  0.00  0.00    +0.020 C 
ATOM     27  C   UNL     1      33.835  -4.424 -24.448  0.00  0.00    +0.020 C 
ATOM     28  C   UNL     1      33.929  -3.669 -27.151  0.00  0.00    +0.001 C 
ATOM     29  C   UNL     1      34.980  -4.435 -26.594  0.00  0.00    +0.001 C 
ATOM     30  C   UNL     1      34.918  -4.804 -25.241  0.00  0.00    +0.001 C 
ATOM     31  C   UNL     1      33.990  -3.299 -28.505  0.00  0.00    +0.001 C 
ATOM     32  C   UNL     1      36.063  -4.808 -27.407  0.00  0.00    +0.011 C 
ATOM     33  C   UNL     1      35.074  -3.680 -29.298  0.00  0.00    +0.011 C 
ATOM     34  C   UNL     1      36.108  -4.433 -28.750  0.00  0.00    +0.058 C 
ENDBRANCH  21  25
ENDBRANCH   3  21
TORSDOF 4
ENDMDL
MODEL 5
REMARK VINA RESULT:     -10.2      4.656     11.445
REMARK  Name = 446399
REMARK  4 active torsions:
REMARK  status: ('A' for Active; 'I' for Inactive)
REMARK    1  A    between atoms: N_3  and  S_21
REMARK    2  A    between atoms: C_4  and  C_10
REMARK    3  A    between atoms: N_9  and  C_16
REMARK    4  A    between atoms: S_21  and  C_25
REMARK                            x       y       z     vdW  Elec       q    Type
REMARK                         _______ _______ _______ _____ _____    ______ ____
ROOT
ATOM      1  O   UNL     1      34.055 -15.201 -25.175  0.00  0.00    -0.275 OA
ATOM      2  N   UNL     1      34.134 -13.826 -23.305  0.00  0.00    -0.277 N 
ATOM      3  N   UNL     1      32.801 -11.751 -21.886  0.00  0.00    -0.152 NA
ATOM      4  C   UNL     1      34.330 -15.027 -23.985  0.00  0.00    +0.225 C 
ATOM      5  C   UNL     1      34.449 -13.586 -21.891  0.00  0.00    +0.113 C 
ATOM      6  C   UNL     1      33.636 -12.651 -24.022  0.00  0.00    +0.113 C 
ATOM      7  C   UNL     1      33.251 -12.981 -21.166  0.00  0.00    +0.117 C 
ATOM      8  C   UNL     1      32.435 -12.046 -23.305  0.00  0.00    +0.117 C 
ENDROOT
BRANCH   4  10
ATOM      9  N   UNL     1      34.587 -18.471 -21.481  0.00  0.00    -0.307 N 
ATOM     10  C   UNL     1      34.913 -16.166 -23.188  0.00  0.00    +0.080 C 
ATOM     11  C   UNL     1      34.383 -17.491 -23.731  0.00  0.00    +0.031 C 
ATOM     12  C   UNL     1      34.542 -16.020 -21.715  0.00  0.00    +0.031 C 
ATOM     13  C   UNL     1      34.882 -18.675 -22.904  0.00  0.00    +0.091 C 
ATOM     14  C   UNL     1      35.047 -17.205 -20.894  0.00  0.00    +0.091 C 
BRANCH   9  16
ATOM     15  N   UNL     1      34.317 -21.814 -18.917  0.00  0.00    -0.242 NA
ATOM     16  C   UNL     1      34.498 -19.580 -20.631  0.00  0.00    +0.051 C 
ATOM     17  C   UNL     1      33.256 -20.151 -20.315  0.00  0.00    +0.035 C 
ATOM     18  C   UNL     1      35.648 -20.154 -20.067  0.00  0.00    +0.035 C 
ATOM     19  C   UNL     1      33.220 -21.248 -19.468  0.00  0.00    +0.100 C 
ATOM     20  C   UNL     1      35.506 -21.251 -19.232  0.00  0.00    +0.100 C 
ENDBRANCH   9  16
ENDBRANCH   4  10
BRANCH   3  21
ATOM     21  S   UNL     1      31.689 -10.767 -21.032  0.00  0.00    +0.063 S 
ATOM     22  O   UNL     1      32.190 -10.540 -19.695  0.00  0.00    -0.153 OA
ATOM     23  O   UNL     1      30.351 -11.273 -21.253  0.00  0.00    -0.153 OA
BRANCH  21  25
ATOM     24 CL   UNL     1      33.701  -3.685 -25.214  0.00  0.00    -0.082 Cl
ATOM     25  C   UNL     1      31.856  -9.260 -21.936  0.00  0.00    +0.122 C 
ATOM     26  C   UNL     1      33.121  -8.749 -22.173  0.00  0.00    +0.020 C 
ATOM     27  C   UNL     1      30.721  -8.617 -22.393  0.00  0.00    +0.020 C 
ATOM     28  C   UNL     1      33.271  -7.550 -22.891  0.00  0.00    +0.001 C 
ATOM     29  C   UNL     1      32.119  -6.880 -23.366  0.00  0.00    +0.001 C 
ATOM     30  C   UNL     1      30.852  -7.426 -23.108  0.00  0.00    +0.001 C 
ATOM     31  C   UNL     1      34.540  -7.005 -23.148  0.00  0.00    +0.001 C 
ATOM     32  C   UNL     1      32.269  -5.682 -24.084  0.00  0.00    +0.011 C 
ATOM     33  C   UNL     1      34.670  -5.813 -23.863  0.00  0.00    +0.011 C 
ATOM     34  C   UNL     1      33.537  -5.153 -24.330  0.00  0.00    +0.058 C 
ENDBRANCH  21  25
ENDBRANCH   3  21
TORSDOF 4
ENDMDL
MODEL 6
REMARK VINA RESULT:     -10.2      2.007      3.059
REMARK  Name = 446399
REMARK  4 active torsions:
REMARK  status: ('A' for Active; 'I' for Inactive)
REMARK    1  A    between atoms: N_3  and  S_21
REMARK    2  A    between atoms: C_4  and  C_10
REMARK    3  A    between atoms: N_9  and  C_16
REMARK    4  A    between atoms: S_21  and  C_25
REMARK                            x       y       z     vdW  Elec       q    Type
REMARK                         _______ _______ _______ _____ _____    ______ ____
ROOT
ATOM      1  O   UNL     1      32.687 -12.245 -20.109  0.00  0.00    -0.275 OA
ATOM      2  N   UNL     1      33.677 -13.150 -22.004  0.00  0.00    -0.277 N 
ATOM      3  N   UNL     1      34.385 -15.567 -23.329  0.00  0.00    -0.152 NA
ATOM      4  C   UNL     1      32.903 -12.212 -21.323  0.00  0.00    +0.225 C 
ATOM      5  C   UNL     1      33.954 -13.141 -23.446  0.00  0.00    +0.113 C 
ATOM      6  C   UNL     1      34.349 -14.221 -21.266  0.00  0.00    +0.113 C 
ATOM      7  C   UNL     1      33.641 -14.500 -24.065  0.00  0.00    +0.117 C 
ATOM      8  C   UNL     1      34.035 -15.582 -21.876  0.00  0.00    +0.117 C 
ENDROOT
BRANCH   4  10
ATOM      9  N   UNL     1      31.857  -8.295 -22.646  0.00  0.00    -0.307 N 
ATOM     10  C   UNL     1      32.306 -11.102 -22.150  0.00  0.00    +0.080 C 
ATOM     11  C   UNL     1      33.421 -10.197 -22.667  0.00  0.00    +0.031 C 
ATOM     12  C   UNL     1      31.323 -10.292 -21.308  0.00  0.00    +0.031 C 
ATOM     13  C   UNL     1      32.860  -9.007 -23.445  0.00  0.00    +0.091 C 
ATOM     14  C   UNL     1      30.764  -9.108 -22.094  0.00  0.00    +0.091 C 
BRANCH   9  16
ATOM     15  N   UNL     1      31.026  -4.243 -23.492  0.00  0.00    -0.242 NA
ATOM     16  C   UNL     1      31.581  -6.950 -22.927  0.00  0.00    +0.051 C 
ATOM     17  C   UNL     1      31.446  -6.500 -24.249  0.00  0.00    +0.035 C 
ATOM     18  C   UNL     1      31.432  -6.012 -21.894  0.00  0.00    +0.035 C 
ATOM     19  C   UNL     1      31.173  -5.160 -24.474  0.00  0.00    +0.100 C 
ATOM     20  C   UNL     1      31.159  -4.694 -22.224  0.00  0.00    +0.100 C 
ENDBRANCH   9  16
ENDBRANCH   4  10
BRANCH   3  21
ATOM     21  S   UNL     1      34.414 -17.100 -24.092  0.00  0.00    +0.063 S 
ATOM     22  O   UNL     1      35.447 -17.105 -25.104  0.00  0.00    -0.153 OA
ATOM     23  O   UNL     1      33.057 -17.491 -24.408  0.00  0.00    -0.153 OA
BRANCH  21  25
ATOM     24 CL   UNL     1      35.908 -22.269 -17.554  0.00  0.00    -0.082 Cl
ATOM     25  C   UNL     1      34.969 -18.101 -22.748  0.00  0.00    +0.122 C 
ATOM     26  C   UNL     1      34.057 -18.895 -22.072  0.00  0.00    +0.020 C 
ATOM     27  C   UNL     1      36.305 -18.076 -22.393  0.00  0.00    +0.020 C 
ATOM     28  C   UNL     1      34.483 -19.698 -21.001  0.00  0.00    +0.001 C 
ATOM     29  C   UNL     1      35.847 -19.683 -20.625  0.00  0.00    +0.001 C 
ATOM     30  C   UNL     1      36.745 -18.867 -21.331  0.00  0.00    +0.001 C 
ATOM     31  C   UNL     1      33.584 -20.514 -20.295  0.00  0.00    +0.001 C 
ATOM     32  C   UNL     1      36.273 -20.486 -19.554  0.00  0.00    +0.011 C 
ATOM     33  C   UNL     1      34.025 -21.305 -19.232  0.00  0.00    +0.011 C 
ATOM     34  C   UNL     1      35.367 -21.290 -18.863  0.00  0.00    +0.058 C 
ENDBRANCH  21  25
ENDBRANCH   3  21
TORSDOF 4
ENDMDL
MODEL 7
REMARK VINA RESULT:      -9.8      4.542     11.214
REMARK  Name = 446399
REMARK  4 active torsions:
REMARK  status: ('A' for Active; 'I' for Inactive)
REMARK    1  A    between atoms: N_3  and  S_21
REMARK    2  A    between atoms: C_4  and  C_10
REMARK    3  A    between atoms: N_9  and  C_16
REMARK    4  A    between atoms: S_21  and  C_25
REMARK                            x       y       z     vdW  Elec       q    Type
REMARK                         _______ _______ _______ _____ _____    ______ ____
ROOT
ATOM      1  O   UNL     1      37.035 -21.272 -19.310  0.00  0.00    -0.275 OA
ATOM      2  N   UNL     1      35.338 -19.997 -20.253  0.00  0.00    -0.277 N 
ATOM      3  N   UNL     1      34.565 -18.473 -22.528  0.00  0.00    -0.152 NA
ATOM      4  C   UNL     1      35.834 -21.059 -19.499  0.00  0.00    +0.225 C 
ATOM      5  C   UNL     1      33.919 -19.715 -20.498  0.00  0.00    +0.113 C 
ATOM      6  C   UNL     1      36.257 -19.009 -20.820  0.00  0.00    +0.113 C 
ATOM      7  C   UNL     1      33.654 -19.527 -21.989  0.00  0.00    +0.117 C 
ATOM      8  C   UNL     1      36.002 -18.822 -22.311  0.00  0.00    +0.117 C 
ENDROOT
BRANCH   4  10
ATOM      9  N   UNL     1      32.881 -22.614 -16.842  0.00  0.00    -0.307 N 
ATOM     10  C   UNL     1      34.815 -21.989 -18.892  0.00  0.00    +0.080 C 
ATOM     11  C   UNL     1      33.458 -21.292 -18.839  0.00  0.00    +0.031 C 
ATOM     12  C   UNL     1      35.248 -22.398 -17.487  0.00  0.00    +0.031 C 
ATOM     13  C   UNL     1      32.406 -22.165 -18.156  0.00  0.00    +0.091 C 
ATOM     14  C   UNL     1      34.194 -23.273 -16.813  0.00  0.00    +0.091 C 
BRANCH   9  16
ATOM     15  N   UNL     1      30.077 -23.739 -13.894  0.00  0.00    -0.242 NA
ATOM     16  C   UNL     1      31.951 -22.987 -15.864  0.00  0.00    +0.051 C 
ATOM     17  C   UNL     1      32.369 -23.482 -14.620  0.00  0.00    +0.035 C 
ATOM     18  C   UNL     1      30.571 -22.878 -16.100  0.00  0.00    +0.035 C 
ATOM     19  C   UNL     1      31.409 -23.838 -13.685  0.00  0.00    +0.100 C 
ATOM     20  C   UNL     1      29.692 -23.260 -15.099  0.00  0.00    +0.100 C 
ENDBRANCH   9  16
ENDBRANCH   4  10
BRANCH   3  21
ATOM     21  S   UNL     1      34.179 -17.902 -24.097  0.00  0.00    +0.063 S 
ATOM     22  O   UNL     1      32.831 -18.307 -24.428  0.00  0.00    -0.153 OA
ATOM     23  O   UNL     1      35.284 -18.190 -24.985  0.00  0.00    -0.153 OA
BRANCH  21  25
ATOM     24 CL   UNL     1      33.721  -9.452 -23.811  0.00  0.00    -0.082 Cl
ATOM     25  C   UNL     1      34.163 -16.163 -23.795  0.00  0.00    +0.122 C 
ATOM     26  C   UNL     1      33.784 -15.302 -24.811  0.00  0.00    +0.020 C 
ATOM     27  C   UNL     1      34.528 -15.690 -22.548  0.00  0.00    +0.020 C 
ATOM     28  C   UNL     1      33.766 -13.915 -24.587  0.00  0.00    +0.001 C 
ATOM     29  C   UNL     1      34.137 -13.415 -23.316  0.00  0.00    +0.001 C 
ATOM     30  C   UNL     1      34.515 -14.315 -22.308  0.00  0.00    +0.001 C 
ATOM     31  C   UNL     1      33.387 -13.015 -25.596  0.00  0.00    +0.001 C 
ATOM     32  C   UNL     1      34.118 -12.028 -23.092  0.00  0.00    +0.011 C 
ATOM     33  C   UNL     1      33.374 -11.640 -25.356  0.00  0.00    +0.011 C 
ATOM     34  C   UNL     1      33.740 -11.148 -24.106  0.00  0.00    +0.058 C 
ENDBRANCH  21  25
ENDBRANCH   3  21
TORSDOF 4
ENDMDL
MODEL 8
REMARK VINA RESULT:      -9.7      5.343     12.372
REMARK  Name = 446399
REMARK  4 active torsions:
REMARK  status: ('A' for Active; 'I' for Inactive)
REMARK    1  A    between atoms: N_3  and  S_21
REMARK    2  A    between atoms: C_4  and  C_10
REMARK    3  A    between atoms: N_9  and  C_16
REMARK    4  A    between atoms: S_21  and  C_25
REMARK                            x       y       z     vdW  Elec       q    Type
REMARK                         _______ _______ _______ _____ _____    ______ ____
ROOT
ATOM      1  O   UNL     1      33.819 -13.758 -25.784  0.00  0.00    -0.275 OA
ATOM      2  N   UNL     1      33.877 -12.388 -23.909  0.00  0.00    -0.277 N 
ATOM      3  N   UNL     1      33.040  -9.894 -22.825  0.00  0.00    -0.152 NA
ATOM      4  C   UNL     1      33.808 -13.620 -24.558  0.00  0.00    +0.225 C 
ATOM      5  C   UNL     1      33.866 -12.189 -22.455  0.00  0.00    +0.113 C 
ATOM      6  C   UNL     1      34.041 -11.159 -24.687  0.00  0.00    +0.113 C 
ATOM      7  C   UNL     1      32.814 -11.157 -22.059  0.00  0.00    +0.117 C 
ATOM      8  C   UNL     1      32.988 -10.127 -24.300  0.00  0.00    +0.117 C 
ENDROOT
BRANCH   4  10
ATOM      9  N   UNL     1      34.955 -17.011 -22.238  0.00  0.00    -0.307 N 
ATOM     10  C   UNL     1      33.711 -14.841 -23.679  0.00  0.00    +0.080 C 
ATOM     11  C   UNL     1      34.484 -14.598 -22.385  0.00  0.00    +0.031 C 
ATOM     12  C   UNL     1      34.279 -16.057 -24.406  0.00  0.00    +0.031 C 
ATOM     13  C   UNL     1      34.485 -15.838 -21.491  0.00  0.00    +0.091 C 
ATOM     14  C   UNL     1      34.273 -17.293 -23.509  0.00  0.00    +0.091 C 
BRANCH   9  16
ATOM     15  N   UNL     1      36.584 -20.291 -20.139  0.00  0.00    -0.242 NA
ATOM     16  C   UNL     1      35.495 -18.099 -21.541  0.00  0.00    +0.051 C 
ATOM     17  C   UNL     1      36.872 -18.179 -21.279  0.00  0.00    +0.035 C 
ATOM     18  C   UNL     1      34.677 -19.144 -21.085  0.00  0.00    +0.035 C 
ATOM     19  C   UNL     1      37.357 -19.277 -20.586  0.00  0.00    +0.100 C 
ATOM     20  C   UNL     1      35.260 -20.198 -20.400  0.00  0.00    +0.100 C 
ENDBRANCH   9  16
ENDBRANCH   4  10
BRANCH   3  21
ATOM     21  S   UNL     1      32.166  -8.531 -22.267  0.00  0.00    +0.063 S 
ATOM     22  O   UNL     1      32.491  -8.298 -20.877  0.00  0.00    -0.153 OA
ATOM     23  O   UNL     1      30.791  -8.646 -22.703  0.00  0.00    -0.153 OA
BRANCH  21  25
ATOM     24 CL   UNL     1      34.711  -2.115 -27.171  0.00  0.00    -0.082 Cl
ATOM     25  C   UNL     1      32.934  -7.261 -23.223  0.00  0.00    +0.122 C 
ATOM     26  C   UNL     1      32.143  -6.392 -23.956  0.00  0.00    +0.020 C 
ATOM     27  C   UNL     1      34.313  -7.155 -23.222  0.00  0.00    +0.020 C 
ATOM     28  C   UNL     1      32.739  -5.376 -24.722  0.00  0.00    +0.001 C 
ATOM     29  C   UNL     1      34.149  -5.254 -24.731  0.00  0.00    +0.001 C 
ATOM     30  C   UNL     1      34.921  -6.151 -23.977  0.00  0.00    +0.001 C 
ATOM     31  C   UNL     1      31.966  -4.479 -25.476  0.00  0.00    +0.001 C 
ATOM     32  C   UNL     1      34.745  -4.238 -25.496  0.00  0.00    +0.011 C 
ATOM     33  C   UNL     1      32.576  -3.475 -26.231  0.00  0.00    +0.011 C 
ATOM     34  C   UNL     1      33.963  -3.356 -26.241  0.00  0.00    +0.058 C 
ENDBRANCH  21  25
ENDBRANCH   3  21
TORSDOF 4
ENDMDL
