MODEL 1
REMARK VINA RESULT:     -12.7      0.000      0.000
REMARK  Name = 11560856
REMARK  5 active torsions:
REMARK  status: ('A' for Active; 'I' for Inactive)
REMARK    1  A    between atoms: C_2  and  O_24
REMARK    2  A    between atoms: C_3  and  N_10
REMARK    3  A    between atoms: C_12  and  C_16
REMARK    4  A    between atoms: C_16  and  C_18
REMARK    5  A    between atoms: O_24  and  C_28
REMARK                            x       y       z     vdW  Elec       q    Type
REMARK                         _______ _______ _______ _____ _____    ______ ____
ROOT
ATOM      1  F   UNL     1      31.317 -11.725 -20.617  0.00  0.00    -0.201 F 
ATOM      2  C   UNL     1      32.773 -11.564 -22.482  0.00  0.00    +0.173 C 
ATOM      3  C   UNL     1      33.974 -13.944 -21.732  0.00  0.00    +0.054 C 
ATOM      4  C   UNL     1      32.322 -12.223 -21.350  0.00  0.00    +0.176 C 
ATOM      5  C   UNL     1      33.812 -12.068 -23.247  0.00  0.00    +0.041 C 
ATOM      6  C   UNL     1      32.926 -13.422 -20.974  0.00  0.00    +0.047 C 
ATOM      7  C   UNL     1      34.416 -13.267 -22.869  0.00  0.00    +0.018 C 
ENDROOT
BRANCH   3  10
ATOM      8  O   UNL     1      35.853 -18.876 -23.049  0.00  0.00    -0.274 OA
ATOM      9  O   UNL     1      34.687 -16.358 -23.368  0.00  0.00    -0.252 OA
ATOM     10  N   UNL     1      34.577 -15.144 -21.355  0.00  0.00    -0.268 N 
ATOM     11  N   UNL     1      35.500 -17.271 -21.393  0.00  0.00    -0.239 N 
ATOM     12  C   UNL     1      35.937 -18.506 -21.881  0.00  0.00    +0.234 C 
ATOM     13  C   UNL     1      34.895 -16.257 -22.162  0.00  0.00    +0.310 C 
ATOM     14  H   UNL     1      34.812 -15.225 -20.403  0.00  0.00    +0.156 HD
ATOM     15  H   UNL     1      35.624 -17.096 -20.433  0.00  0.00    +0.159 HD
BRANCH  12  16
ATOM     16  C   UNL     1      36.538 -19.353 -20.775  0.00  0.00    +0.112 C 
BRANCH  16  18
ATOM     17  F   UNL     1      32.755 -22.539 -18.104  0.00  0.00    -0.204 F 
ATOM     18  C   UNL     1      35.524 -20.206 -20.058  0.00  0.00    -0.013 C 
ATOM     19  C   UNL     1      34.174 -20.032 -20.327  0.00  0.00    -0.001 C 
ATOM     20  C   UNL     1      35.956 -21.153 -19.142  0.00  0.00    -0.001 C 
ATOM     21  C   UNL     1      33.235 -20.823 -19.663  0.00  0.00    +0.029 C 
ATOM     22  C   UNL     1      35.017 -21.943 -18.478  0.00  0.00    +0.029 C 
ATOM     23  C   UNL     1      33.657 -21.779 -18.740  0.00  0.00    +0.140 C 
ENDBRANCH  16  18
ENDBRANCH  12  16
ENDBRANCH   3  10
BRANCH   2  24
ATOM     24  O   UNL     1      32.174 -10.377 -22.857  0.00  0.00    -0.451 OA
BRANCH  24  28
ATOM     25  N   UNL     1      33.150  -6.725 -20.139  0.00  0.00    -0.297 N 
ATOM     26  N   UNL     1      34.350  -6.814 -22.227  0.00  0.00    -0.229 NA
ATOM     27  C   UNL     1      32.704  -8.464 -21.467  0.00  0.00    +0.067 C 
ATOM     28  C   UNL     1      32.870  -9.222 -22.637  0.00  0.00    +0.150 C 
ATOM     29  C   UNL     1      33.463  -7.304 -21.341  0.00  0.00    +0.135 C 
ATOM     30  C   UNL     1      31.916  -8.570 -20.290  0.00  0.00    +0.022 C 
ATOM     31  C   UNL     1      32.212  -7.486 -19.492  0.00  0.00    +0.063 C 
ATOM     32  C   UNL     1      33.778  -8.759 -23.588  0.00  0.00    +0.058 C 
ATOM     33  C   UNL     1      34.469  -7.581 -23.334  0.00  0.00    +0.103 C 
ATOM     34  H   UNL     1      33.541  -5.890 -19.793  0.00  0.00    +0.154 HD
ENDBRANCH  24  28
ENDBRANCH   2  24
TORSDOF 5
ENDMDL
MODEL 2
REMARK VINA RESULT:     -12.7      0.873      2.011
REMARK  Name = 11560856
REMARK  5 active torsions:
REMARK  status: ('A' for Active; 'I' for Inactive)
REMARK    1  A    between atoms: C_2  and  O_24
REMARK    2  A    between atoms: C_3  and  N_10
REMARK    3  A    between atoms: C_12  and  C_16
REMARK    4  A    between atoms: C_16  and  C_18
REMARK    5  A    between atoms: O_24  and  C_28
REMARK                            x       y       z     vdW  Elec       q    Type
REMARK                         _______ _______ _______ _____ _____    ______ ____
ROOT
ATOM      1  F   UNL     1      33.877 -11.537 -24.021  0.00  0.00    -0.201 F 
ATOM      2  C   UNL     1      32.555 -11.713 -22.060  0.00  0.00    +0.173 C 
ATOM      3  C   UNL     1      33.867 -14.061 -21.403  0.00  0.00    +0.054 C 
ATOM      4  C   UNL     1      33.547 -12.191 -22.900  0.00  0.00    +0.176 C 
ATOM      5  C   UNL     1      32.204 -12.382 -20.899  0.00  0.00    +0.041 C 
ATOM      6  C   UNL     1      34.208 -13.374 -22.568  0.00  0.00    +0.047 C 
ATOM      7  C   UNL     1      32.866 -13.564 -20.569  0.00  0.00    +0.018 C 
ENDROOT
BRANCH   3  10
ATOM      8  O   UNL     1      36.117 -18.774 -22.926  0.00  0.00    -0.274 OA
ATOM      9  O   UNL     1      34.805 -16.318 -23.147  0.00  0.00    -0.252 OA
ATOM     10  N   UNL     1      34.530 -15.242 -21.072  0.00  0.00    -0.268 N 
ATOM     11  N   UNL     1      35.589 -17.302 -21.195  0.00  0.00    -0.239 N 
ATOM     12  C   UNL     1      36.126 -18.474 -21.735  0.00  0.00    +0.234 C 
ATOM     13  C   UNL     1      34.954 -16.280 -21.928  0.00  0.00    +0.310 C 
ATOM     14  H   UNL     1      34.728 -15.369 -20.116  0.00  0.00    +0.156 HD
ATOM     15  H   UNL     1      35.660 -17.181 -20.221  0.00  0.00    +0.159 HD
BRANCH  12  16
ATOM     16  C   UNL     1      36.732 -19.350 -20.655  0.00  0.00    +0.112 C 
BRANCH  16  18
ATOM     17  F   UNL     1      32.968 -22.637 -18.082  0.00  0.00    -0.204 F 
ATOM     18  C   UNL     1      35.723 -20.230 -19.965  0.00  0.00    -0.013 C 
ATOM     19  C   UNL     1      34.376 -20.097 -20.272  0.00  0.00    -0.001 C 
ATOM     20  C   UNL     1      36.155 -21.162 -19.033  0.00  0.00    -0.001 C 
ATOM     21  C   UNL     1      33.442 -20.913 -19.633  0.00  0.00    +0.029 C 
ATOM     22  C   UNL     1      35.221 -21.978 -18.393  0.00  0.00    +0.029 C 
ATOM     23  C   UNL     1      33.865 -21.854 -18.694  0.00  0.00    +0.140 C 
ENDBRANCH  16  18
ENDBRANCH  12  16
ENDBRANCH   3  10
BRANCH   2  24
ATOM     24  O   UNL     1      31.900 -10.541 -22.387  0.00  0.00    -0.451 OA
BRANCH  24  28
ATOM     25  N   UNL     1      34.372  -6.595 -22.346  0.00  0.00    -0.297 N 
ATOM     26  N   UNL     1      33.076  -7.027 -20.362  0.00  0.00    -0.229 NA
ATOM     27  C   UNL     1      33.175  -8.481 -22.333  0.00  0.00    +0.067 C 
ATOM     28  C   UNL     1      32.291  -9.399 -21.745  0.00  0.00    +0.150 C 
ATOM     29  C   UNL     1      33.508  -7.349 -21.595  0.00  0.00    +0.135 C 
ATOM     30  C   UNL     1      33.872  -8.387 -23.567  0.00  0.00    +0.022 C 
ATOM     31  C   UNL     1      34.600  -7.216 -23.546  0.00  0.00    +0.063 C 
ATOM     32  C   UNL     1      31.811  -9.114 -20.468  0.00  0.00    +0.058 C 
ATOM     33  C   UNL     1      32.229  -7.946 -19.843  0.00  0.00    +0.103 C 
ATOM     34  H   UNL     1      34.768  -5.738 -22.065  0.00  0.00    +0.154 HD
ENDBRANCH  24  28
ENDBRANCH   2  24
TORSDOF 5
ENDMDL
MODEL 3
REMARK VINA RESULT:     -12.6      1.534      2.379
REMARK  Name = 11560856
REMARK  5 active torsions:
REMARK  status: ('A' for Active; 'I' for Inactive)
REMARK    1  A    between atoms: C_2  and  O_24
REMARK    2  A    between atoms: C_3  and  N_10
REMARK    3  A    between atoms: C_12  and  C_16
REMARK    4  A    between atoms: C_16  and  C_18
REMARK    5  A    between atoms: O_24  and  C_28
REMARK                            x       y       z     vdW  Elec       q    Type
REMARK                         _______ _______ _______ _____ _____    ______ ____
ROOT
ATOM      1  F   UNL     1      30.607 -11.122 -20.792  0.00  0.00    -0.201 F 
ATOM      2  C   UNL     1      32.143 -10.351 -22.427  0.00  0.00    +0.173 C 
ATOM      3  C   UNL     1      33.471 -12.777 -22.301  0.00  0.00    +0.054 C 
ATOM      4  C   UNL     1      31.682 -11.332 -21.564  0.00  0.00    +0.176 C 
ATOM      5  C   UNL     1      33.254 -10.556 -23.227  0.00  0.00    +0.041 C 
ATOM      6  C   UNL     1      32.350 -12.554 -21.502  0.00  0.00    +0.047 C 
ATOM      7  C   UNL     1      33.923 -11.778 -23.164  0.00  0.00    +0.018 C 
ENDROOT
BRANCH   3  10
ATOM      8  O   UNL     1      34.503 -17.680 -24.421  0.00  0.00    -0.274 OA
ATOM      9  O   UNL     1      33.385 -15.134 -24.159  0.00  0.00    -0.252 OA
ATOM     10  N   UNL     1      34.139 -14.001 -22.239  0.00  0.00    -0.268 N 
ATOM     11  N   UNL     1      34.901 -16.139 -22.716  0.00  0.00    -0.239 N 
ATOM     12  C   UNL     1      35.065 -17.359 -23.376  0.00  0.00    +0.234 C 
ATOM     13  C   UNL     1      34.068 -15.085 -23.140  0.00  0.00    +0.310 C 
ATOM     14  H   UNL     1      34.737 -14.124 -21.468  0.00  0.00    +0.156 HD
ATOM     15  H   UNL     1      35.410 -16.004 -21.884  0.00  0.00    +0.159 HD
BRANCH  12  16
ATOM     16  C   UNL     1      36.037 -18.259 -22.638  0.00  0.00    +0.112 C 
BRANCH  16  18
ATOM     17  F   UNL     1      33.565 -21.516 -18.781  0.00  0.00    -0.204 F 
ATOM     18  C   UNL     1      35.374 -19.133 -21.605  0.00  0.00    -0.013 C 
ATOM     19  C   UNL     1      36.148 -19.738 -20.625  0.00  0.00    -0.001 C 
ATOM     20  C   UNL     1      34.000 -19.318 -21.648  0.00  0.00    -0.001 C 
ATOM     21  C   UNL     1      35.535 -20.547 -19.668  0.00  0.00    +0.029 C 
ATOM     22  C   UNL     1      33.387 -20.127 -20.691  0.00  0.00    +0.029 C 
ATOM     23  C   UNL     1      34.153 -20.740 -19.701  0.00  0.00    +0.140 C 
ENDBRANCH  16  18
ENDBRANCH  12  16
ENDBRANCH   3  10
BRANCH   2  24
ATOM     24  O   UNL     1      31.480  -9.140 -22.489  0.00  0.00    -0.451 OA
BRANCH  24  28
ATOM     25  N   UNL     1      32.011  -4.642 -21.413  0.00  0.00    -0.297 N 
ATOM     26  N   UNL     1      32.603  -6.200 -19.674  0.00  0.00    -0.229 NA
ATOM     27  C   UNL     1      31.769  -6.808 -21.898  0.00  0.00    +0.067 C 
ATOM     28  C   UNL     1      31.840  -8.177 -21.590  0.00  0.00    +0.150 C 
ATOM     29  C   UNL     1      32.158  -5.908 -20.909  0.00  0.00    +0.135 C 
ATOM     30  C   UNL     1      31.379  -6.039 -23.025  0.00  0.00    +0.022 C 
ATOM     31  C   UNL     1      31.538  -4.709 -22.697  0.00  0.00    +0.063 C 
ATOM     32  C   UNL     1      32.294  -8.535 -20.322  0.00  0.00    +0.058 C 
ATOM     33  C   UNL     1      32.652  -7.531 -19.432  0.00  0.00    +0.103 C 
ATOM     34  H   UNL     1      32.215  -3.811 -20.925  0.00  0.00    +0.154 HD
ENDBRANCH  24  28
ENDBRANCH   2  24
TORSDOF 5
ENDMDL
MODEL 4
REMARK VINA RESULT:     -12.6      4.028     11.274
REMARK  Name = 11560856
REMARK  5 active torsions:
REMARK  status: ('A' for Active; 'I' for Inactive)
REMARK    1  A    between atoms: C_2  and  O_24
REMARK    2  A    between atoms: C_3  and  N_10
REMARK    3  A    between atoms: C_12  and  C_16
REMARK    4  A    between atoms: C_16  and  C_18
REMARK    5  A    between atoms: O_24  and  C_28
REMARK                            x       y       z     vdW  Elec       q    Type
REMARK                         _______ _______ _______ _____ _____    ______ ____
ROOT
ATOM      1  F   UNL     1      36.634 -22.116 -18.285  0.00  0.00    -0.201 F 
ATOM      2  C   UNL     1      34.307 -22.155 -18.741  0.00  0.00    +0.173 C 
ATOM      3  C   UNL     1      34.569 -19.818 -20.203  0.00  0.00    +0.054 C 
ATOM      4  C   UNL     1      35.556 -21.570 -18.863  0.00  0.00    +0.176 C 
ATOM      5  C   UNL     1      33.186 -21.598 -19.332  0.00  0.00    +0.041 C 
ATOM      6  C   UNL     1      35.688 -20.394 -19.601  0.00  0.00    +0.047 C 
ATOM      7  C   UNL     1      33.318 -20.421 -20.069  0.00  0.00    +0.018 C 
ENDROOT
BRANCH   3  10
ATOM      8  O   UNL     1      34.601 -17.264 -25.007  0.00  0.00    -0.274 OA
ATOM      9  O   UNL     1      34.407 -19.356 -23.165  0.00  0.00    -0.252 OA
ATOM     10  N   UNL     1      34.702 -18.643 -20.942  0.00  0.00    -0.268 N 
ATOM     11  N   UNL     1      34.811 -17.119 -22.687  0.00  0.00    -0.239 N 
ATOM     12  C   UNL     1      34.791 -16.605 -23.987  0.00  0.00    +0.234 C 
ATOM     13  C   UNL     1      34.618 -18.471 -22.340  0.00  0.00    +0.310 C 
ATOM     14  H   UNL     1      34.878 -17.827 -20.421  0.00  0.00    +0.156 HD
ATOM     15  H   UNL     1      34.974 -16.484 -21.954  0.00  0.00    +0.159 HD
BRANCH  12  16
ATOM     16  C   UNL     1      35.036 -15.109 -23.991  0.00  0.00    +0.112 C 
BRANCH  16  18
ATOM     17  F   UNL     1      32.031 -12.354 -20.120  0.00  0.00    -0.204 F 
ATOM     18  C   UNL     1      34.231 -14.369 -22.953  0.00  0.00    -0.013 C 
ATOM     19  C   UNL     1      33.208 -13.524 -23.358  0.00  0.00    -0.001 C 
ATOM     20  C   UNL     1      34.524 -14.546 -21.609  0.00  0.00    -0.001 C 
ATOM     21  C   UNL     1      32.463 -12.840 -22.397  0.00  0.00    +0.029 C 
ATOM     22  C   UNL     1      33.779 -13.862 -20.648  0.00  0.00    +0.029 C 
ATOM     23  C   UNL     1      32.748 -13.010 -21.043  0.00  0.00    +0.140 C 
ENDBRANCH  16  18
ENDBRANCH  12  16
ENDBRANCH   3  10
BRANCH   2  24
ATOM     24  O   UNL     1      34.176 -23.321 -18.011  0.00  0.00    -0.451 OA
BRANCH  24  28
ATOM     25  N   UNL     1      34.739 -23.111 -13.394  0.00  0.00    -0.297 N 
ATOM     26  N   UNL     1      32.458 -23.022 -14.165  0.00  0.00    -0.229 NA
ATOM     27  C   UNL     1      34.434 -23.210 -15.604  0.00  0.00    +0.067 C 
ATOM     28  C   UNL     1      33.636 -23.225 -16.759  0.00  0.00    +0.150 C 
ATOM     29  C   UNL     1      33.784 -23.108 -14.377  0.00  0.00    +0.135 C 
ATOM     30  C   UNL     1      35.826 -23.275 -15.329  0.00  0.00    +0.022 C 
ATOM     31  C   UNL     1      35.983 -23.212 -13.960  0.00  0.00    +0.063 C 
ATOM     32  C   UNL     1      32.254 -23.137 -16.596  0.00  0.00    +0.058 C 
ATOM     33  C   UNL     1      31.738 -23.042 -15.310  0.00  0.00    +0.103 C 
ATOM     34  H   UNL     1      34.558 -23.049 -12.428  0.00  0.00    +0.154 HD
ENDBRANCH  24  28
ENDBRANCH   2  24
TORSDOF 5
ENDMDL
MODEL 5
REMARK VINA RESULT:     -12.2      2.824     11.199
REMARK  Name = 11560856
REMARK  5 active torsions:
REMARK  status: ('A' for Active; 'I' for Inactive)
REMARK    1  A    between atoms: C_2  and  O_24
REMARK    2  A    between atoms: C_3  and  N_10
REMARK    3  A    between atoms: C_12  and  C_16
REMARK    4  A    between atoms: C_16  and  C_18
REMARK    5  A    between atoms: O_24  and  C_28
REMARK                            x       y       z     vdW  Elec       q    Type
REMARK                         _______ _______ _______ _____ _____    ______ ____
ROOT
ATOM      1  F   UNL     1      34.865 -18.320 -24.400  0.00  0.00    -0.201 F 
ATOM      2  C   UNL     1      35.243 -17.824 -22.111  0.00  0.00    +0.173 C 
ATOM      3  C   UNL     1      34.633 -15.168 -22.602  0.00  0.00    +0.054 C 
ATOM      4  C   UNL     1      34.902 -17.433 -23.396  0.00  0.00    +0.176 C 
ATOM      5  C   UNL     1      35.286 -16.916 -21.067  0.00  0.00    +0.041 C 
ATOM      6  C   UNL     1      34.594 -16.096 -23.642  0.00  0.00    +0.047 C 
ATOM      7  C   UNL     1      34.978 -15.578 -21.314  0.00  0.00    +0.018 C 
ENDROOT
BRANCH   3  10
ATOM      8  O   UNL     1      31.550 -10.796 -21.609  0.00  0.00    -0.274 OA
ATOM      9  O   UNL     1      32.498 -13.417 -21.421  0.00  0.00    -0.252 OA
ATOM     10  N   UNL     1      34.323 -13.830 -22.848  0.00  0.00    -0.268 N 
ATOM     11  N   UNL     1      33.328 -11.736 -22.791  0.00  0.00    -0.239 N 
ATOM     12  C   UNL     1      32.457 -10.704 -22.432  0.00  0.00    +0.234 C 
ATOM     13  C   UNL     1      33.306 -13.043 -22.267  0.00  0.00    +0.310 C 
ATOM     14  H   UNL     1      34.887 -13.375 -23.514  0.00  0.00    +0.156 HD
ATOM     15  H   UNL     1      34.015 -11.532 -23.466  0.00  0.00    +0.159 HD
BRANCH  12  16
ATOM     16  C   UNL     1      32.769  -9.430 -23.194  0.00  0.00    +0.112 C 
BRANCH  16  18
ATOM     17  F   UNL     1      30.985  -4.778 -20.592  0.00  0.00    -0.204 F 
ATOM     18  C   UNL     1      32.290  -8.184 -22.497  0.00  0.00    -0.013 C 
ATOM     19  C   UNL     1      32.833  -7.838 -21.267  0.00  0.00    -0.001 C 
ATOM     20  C   UNL     1      31.314  -7.399 -23.094  0.00  0.00    -0.001 C 
ATOM     21  C   UNL     1      32.390  -6.684 -20.621  0.00  0.00    +0.029 C 
ATOM     22  C   UNL     1      30.871  -6.245 -22.448  0.00  0.00    +0.029 C 
ATOM     23  C   UNL     1      31.409  -5.887 -21.213  0.00  0.00    +0.140 C 
ENDBRANCH  16  18
ENDBRANCH  12  16
ENDBRANCH   3  10
BRANCH   2  24
ATOM     24  O   UNL     1      35.546 -19.149 -21.866  0.00  0.00    -0.451 OA
BRANCH  24  28
ATOM     25  N   UNL     1      35.095 -21.855 -18.105  0.00  0.00    -0.297 N 
ATOM     26  N   UNL     1      33.034 -21.231 -19.186  0.00  0.00    -0.229 NA
ATOM     27  C   UNL     1      35.277 -20.558 -19.913  0.00  0.00    +0.067 C 
ATOM     28  C   UNL     1      34.748 -19.828 -20.990  0.00  0.00    +0.150 C 
ATOM     29  C   UNL     1      34.376 -21.213 -19.078  0.00  0.00    +0.135 C 
ATOM     30  C   UNL     1      36.576 -20.826 -19.408  0.00  0.00    +0.022 C 
ATOM     31  C   UNL     1      36.433 -21.627 -18.294  0.00  0.00    +0.063 C 
ATOM     32  C   UNL     1      33.363 -19.813 -21.148  0.00  0.00    +0.058 C 
ATOM     33  C   UNL     1      32.580 -20.515 -20.240  0.00  0.00    +0.103 C 
ATOM     34  H   UNL     1      34.709 -22.397 -17.379  0.00  0.00    +0.154 HD
ENDBRANCH  24  28
ENDBRANCH   2  24
TORSDOF 5
ENDMDL
MODEL 6
REMARK VINA RESULT:     -12.1      5.371      9.165
REMARK  Name = 11560856
REMARK  5 active torsions:
REMARK  status: ('A' for Active; 'I' for Inactive)
REMARK    1  A    between atoms: C_2  and  O_24
REMARK    2  A    between atoms: C_3  and  N_10
REMARK    3  A    between atoms: C_12  and  C_16
REMARK    4  A    between atoms: C_16  and  C_18
REMARK    5  A    between atoms: O_24  and  C_28
REMARK                            x       y       z     vdW  Elec       q    Type
REMARK                         _______ _______ _______ _____ _____    ______ ____
ROOT
ATOM      1  F   UNL     1      36.926 -21.113 -19.747  0.00  0.00    -0.201 F 
ATOM      2  C   UNL     1      34.977 -20.039 -20.567  0.00  0.00    +0.173 C 
ATOM      3  C   UNL     1      33.441 -21.497 -18.784  0.00  0.00    +0.054 C 
ATOM      4  C   UNL     1      35.598 -20.939 -19.717  0.00  0.00    +0.176 C 
ATOM      5  C   UNL     1      33.605 -19.852 -20.546  0.00  0.00    +0.041 C 
ATOM      6  C   UNL     1      34.824 -21.672 -18.818  0.00  0.00    +0.047 C 
ATOM      7  C   UNL     1      32.831 -20.587 -19.648  0.00  0.00    +0.018 C 
ENDROOT
BRANCH   3  10
ATOM      8  O   UNL     1      33.020 -24.283 -14.130  0.00  0.00    -0.274 OA
ATOM      9  O   UNL     1      34.189 -22.781 -16.175  0.00  0.00    -0.252 OA
ATOM     10  N   UNL     1      32.667 -22.230 -17.884  0.00  0.00    -0.268 N 
ATOM     11  N   UNL     1      31.975 -23.474 -16.052  0.00  0.00    -0.239 N 
ATOM     12  C   UNL     1      32.022 -24.159 -14.835  0.00  0.00    +0.234 C 
ATOM     13  C   UNL     1      33.062 -22.818 -16.664  0.00  0.00    +0.310 C 
ATOM     14  H   UNL     1      31.723 -22.354 -18.132  0.00  0.00    +0.156 HD
ATOM     15  H   UNL     1      31.111 -23.448 -16.522  0.00  0.00    +0.159 HD
BRANCH  12  16
ATOM     16  C   UNL     1      30.668 -24.743 -14.480  0.00  0.00    +0.112 C 
BRANCH  16  18
ATOM     17  F   UNL     1      26.363 -21.881 -16.686  0.00  0.00    -0.204 F 
ATOM     18  C   UNL     1      29.514 -23.977 -15.071  0.00  0.00    -0.013 C 
ATOM     19  C   UNL     1      29.155 -22.753 -14.523  0.00  0.00    -0.001 C 
ATOM     20  C   UNL     1      28.827 -24.505 -16.154  0.00  0.00    -0.001 C 
ATOM     21  C   UNL     1      28.086 -22.043 -15.070  0.00  0.00    +0.029 C 
ATOM     22  C   UNL     1      27.758 -23.795 -16.701  0.00  0.00    +0.029 C 
ATOM     23  C   UNL     1      27.389 -22.564 -16.160  0.00  0.00    +0.140 C 
ENDBRANCH  16  18
ENDBRANCH  12  16
ENDBRANCH   3  10
BRANCH   2  24
ATOM     24  O   UNL     1      35.743 -19.311 -21.457  0.00  0.00    -0.451 OA
BRANCH  24  28
ATOM     25  N   UNL     1      34.216 -15.577 -23.782  0.00  0.00    -0.297 N 
ATOM     26  N   UNL     1      33.782 -17.702 -24.832  0.00  0.00    -0.229 NA
ATOM     27  C   UNL     1      34.935 -17.389 -22.692  0.00  0.00    +0.067 C 
ATOM     28  C   UNL     1      35.111 -18.774 -22.543  0.00  0.00    +0.150 C 
ATOM     29  C   UNL     1      34.278 -16.945 -23.836  0.00  0.00    +0.135 C 
ATOM     30  C   UNL     1      35.272 -16.234 -21.937  0.00  0.00    +0.022 C 
ATOM     31  C   UNL     1      34.817 -15.134 -22.633  0.00  0.00    +0.063 C 
ATOM     32  C   UNL     1      34.615 -19.604 -23.547  0.00  0.00    +0.058 C 
ATOM     33  C   UNL     1      33.977 -19.026 -24.637  0.00  0.00    +0.103 C 
ATOM     34  H   UNL     1      33.803 -15.001 -24.466  0.00  0.00    +0.154 HD
ENDBRANCH  24  28
ENDBRANCH   2  24
TORSDOF 5
ENDMDL
MODEL 7
REMARK VINA RESULT:     -12.1      4.109     11.297
REMARK  Name = 11560856
REMARK  5 active torsions:
REMARK  status: ('A' for Active; 'I' for Inactive)
REMARK    1  A    between atoms: C_2  and  O_24
REMARK    2  A    between atoms: C_3  and  N_10
REMARK    3  A    between atoms: C_12  and  C_16
REMARK    4  A    between atoms: C_16  and  C_18
REMARK    5  A    between atoms: O_24  and  C_28
REMARK                            x       y       z     vdW  Elec       q    Type
REMARK                         _______ _______ _______ _____ _____    ______ ____
ROOT
ATOM      1  F   UNL     1      36.484 -22.396 -18.046  0.00  0.00    -0.201 F 
ATOM      2  C   UNL     1      34.164 -22.367 -18.538  0.00  0.00    +0.173 C 
ATOM      3  C   UNL     1      34.525 -20.068 -20.038  0.00  0.00    +0.054 C 
ATOM      4  C   UNL     1      35.434 -21.825 -18.651  0.00  0.00    +0.176 C 
ATOM      5  C   UNL     1      33.071 -21.784 -19.157  0.00  0.00    +0.041 C 
ATOM      6  C   UNL     1      35.615 -20.668 -19.408  0.00  0.00    +0.047 C 
ATOM      7  C   UNL     1      33.253 -20.627 -19.913  0.00  0.00    +0.018 C 
ENDROOT
BRANCH   3  10
ATOM      8  O   UNL     1      34.443 -17.545 -24.858  0.00  0.00    -0.274 OA
ATOM      9  O   UNL     1      34.196 -19.604 -22.987  0.00  0.00    -0.252 OA
ATOM     10  N   UNL     1      34.708 -18.911 -20.796  0.00  0.00    -0.268 N 
ATOM     11  N   UNL     1      34.826 -17.410 -22.560  0.00  0.00    -0.239 N 
ATOM     12  C   UNL     1      34.760 -16.901 -23.860  0.00  0.00    +0.234 C 
ATOM     13  C   UNL     1      34.541 -18.738 -22.187  0.00  0.00    +0.310 C 
ATOM     14  H   UNL     1      34.990 -18.112 -20.297  0.00  0.00    +0.156 HD
ATOM     15  H   UNL     1      35.095 -16.788 -21.846  0.00  0.00    +0.159 HD
BRANCH  12  16
ATOM     16  C   UNL     1      35.134 -15.432 -23.896  0.00  0.00    +0.112 C 
BRANCH  16  18
ATOM     17  F   UNL     1      32.109 -12.273 -20.364  0.00  0.00    -0.204 F 
ATOM     18  C   UNL     1      34.322 -14.586 -22.949  0.00  0.00    -0.013 C 
ATOM     19  C   UNL     1      34.572 -14.656 -21.586  0.00  0.00    -0.001 C 
ATOM     20  C   UNL     1      33.339 -13.748 -23.455  0.00  0.00    -0.001 C 
ATOM     21  C   UNL     1      33.821 -13.873 -20.710  0.00  0.00    +0.029 C 
ATOM     22  C   UNL     1      32.588 -12.964 -22.579  0.00  0.00    +0.029 C 
ATOM     23  C   UNL     1      32.830 -13.026 -21.207  0.00  0.00    +0.140 C 
ENDBRANCH  16  18
ENDBRANCH  12  16
ENDBRANCH   3  10
BRANCH   2  24
ATOM     24  O   UNL     1      33.983 -23.514 -17.789  0.00  0.00    -0.451 OA
BRANCH  24  28
ATOM     25  N   UNL     1      31.052 -22.845 -14.235  0.00  0.00    -0.297 N 
ATOM     26  N   UNL     1      33.375 -23.060 -13.635  0.00  0.00    -0.229 NA
ATOM     27  C   UNL     1      32.484 -23.166 -15.917  0.00  0.00    +0.067 C 
ATOM     28  C   UNL     1      33.769 -23.365 -16.448  0.00  0.00    +0.150 C 
ATOM     29  C   UNL     1      32.376 -23.027 -14.536  0.00  0.00    +0.135 C 
ATOM     30  C   UNL     1      31.171 -23.062 -16.446  0.00  0.00    +0.022 C 
ATOM     31  C   UNL     1      30.310 -22.865 -15.387  0.00  0.00    +0.063 C 
ATOM     32  C   UNL     1      34.841 -23.407 -15.558  0.00  0.00    +0.058 C 
ATOM     33  C   UNL     1      34.589 -23.252 -14.201  0.00  0.00    +0.103 C 
ATOM     34  H   UNL     1      30.689 -22.720 -13.327  0.00  0.00    +0.154 HD
ENDBRANCH  24  28
ENDBRANCH   2  24
TORSDOF 5
ENDMDL
MODEL 8
REMARK VINA RESULT:     -12.0      1.050      1.359
REMARK  Name = 11560856
REMARK  5 active torsions:
REMARK  status: ('A' for Active; 'I' for Inactive)
REMARK    1  A    between atoms: C_2  and  O_24
REMARK    2  A    between atoms: C_3  and  N_10
REMARK    3  A    between atoms: C_12  and  C_16
REMARK    4  A    between atoms: C_16  and  C_18
REMARK    5  A    between atoms: O_24  and  C_28
REMARK                            x       y       z     vdW  Elec       q    Type
REMARK                         _______ _______ _______ _____ _____    ______ ____
ROOT
ATOM      1  F   UNL     1      34.064 -10.702 -24.135  0.00  0.00    -0.201 F 
ATOM      2  C   UNL     1      32.460 -11.130 -22.441  0.00  0.00    +0.173 C 
ATOM      3  C   UNL     1      33.773 -13.486 -21.815  0.00  0.00    +0.054 C 
ATOM      4  C   UNL     1      33.596 -11.483 -23.152  0.00  0.00    +0.176 C 
ATOM      5  C   UNL     1      31.966 -11.930 -21.424  0.00  0.00    +0.041 C 
ATOM      6  C   UNL     1      34.257 -12.669 -22.835  0.00  0.00    +0.047 C 
ATOM      7  C   UNL     1      32.627 -13.117 -21.109  0.00  0.00    +0.018 C 
ENDROOT
BRANCH   3  10
ATOM      8  O   UNL     1      35.375 -18.494 -23.213  0.00  0.00    -0.274 OA
ATOM      9  O   UNL     1      34.170 -15.984 -23.434  0.00  0.00    -0.252 OA
ATOM     10  N   UNL     1      34.436 -14.672 -21.497  0.00  0.00    -0.268 N 
ATOM     11  N   UNL     1      35.335 -16.808 -21.601  0.00  0.00    -0.239 N 
ATOM     12  C   UNL     1      35.674 -18.068 -22.100  0.00  0.00    +0.234 C 
ATOM     13  C   UNL     1      34.598 -15.826 -22.294  0.00  0.00    +0.310 C 
ATOM     14  H   UNL     1      34.842 -14.710 -20.603  0.00  0.00    +0.156 HD
ATOM     15  H   UNL     1      35.635 -16.587 -20.690  0.00  0.00    +0.159 HD
BRANCH  12  16
ATOM     16  C   UNL     1      36.469 -18.866 -21.085  0.00  0.00    +0.112 C 
BRANCH  16  18
ATOM     17  F   UNL     1      33.372 -22.637 -18.294  0.00  0.00    -0.204 F 
ATOM     18  C   UNL     1      35.639 -19.876 -20.336  0.00  0.00    -0.013 C 
ATOM     19  C   UNL     1      34.257 -19.847 -20.455  0.00  0.00    -0.001 C 
ATOM     20  C   UNL     1      36.269 -20.821 -19.540  0.00  0.00    -0.001 C 
ATOM     21  C   UNL     1      33.488 -20.783 -19.762  0.00  0.00    +0.029 C 
ATOM     22  C   UNL     1      35.501 -21.757 -18.846  0.00  0.00    +0.029 C 
ATOM     23  C   UNL     1      34.111 -21.738 -18.959  0.00  0.00    +0.140 C 
ENDBRANCH  16  18
ENDBRANCH  12  16
ENDBRANCH   3  10
BRANCH   2  24
ATOM     24  O   UNL     1      31.805  -9.955 -22.753  0.00  0.00    -0.451 OA
BRANCH  24  28
ATOM     25  N   UNL     1      32.968  -6.945 -19.397  0.00  0.00    -0.297 N 
ATOM     26  N   UNL     1      33.642  -6.324 -21.625  0.00  0.00    -0.229 NA
ATOM     27  C   UNL     1      32.424  -8.367 -21.030  0.00  0.00    +0.067 C 
ATOM     28  C   UNL     1      32.395  -8.783 -22.372  0.00  0.00    +0.150 C 
ATOM     29  C   UNL     1      33.052  -7.157 -20.748  0.00  0.00    +0.135 C 
ATOM     30  C   UNL     1      31.954  -8.885 -19.795  0.00  0.00    +0.022 C 
ATOM     31  C   UNL     1      32.303  -7.988 -18.807  0.00  0.00    +0.063 C 
ATOM     32  C   UNL     1      32.993  -7.957 -23.322  0.00  0.00    +0.058 C 
ATOM     33  C   UNL     1      33.583  -6.772 -22.900  0.00  0.00    +0.103 C 
ATOM     34  H   UNL     1      33.330  -6.162 -18.922  0.00  0.00    +0.154 HD
ENDBRANCH  24  28
ENDBRANCH   2  24
TORSDOF 5
ENDMDL
MODEL 9
REMARK VINA RESULT:     -11.3      1.857      2.385
REMARK  Name = 11560856
REMARK  5 active torsions:
REMARK  status: ('A' for Active; 'I' for Inactive)
REMARK    1  A    between atoms: C_2  and  O_24
REMARK    2  A    between atoms: C_3  and  N_10
REMARK    3  A    between atoms: C_12  and  C_16
REMARK    4  A    between atoms: C_16  and  C_18
REMARK    5  A    between atoms: O_24  and  C_28
REMARK                            x       y       z     vdW  Elec       q    Type
REMARK                         _______ _______ _______ _____ _____    ______ ____
ROOT
ATOM      1  F   UNL     1      33.713 -10.299 -24.850  0.00  0.00    -0.201 F 
ATOM      2  C   UNL     1      32.538 -10.553 -22.806  0.00  0.00    +0.173 C 
ATOM      3  C   UNL     1      33.736 -13.022 -22.441  0.00  0.00    +0.054 C 
ATOM      4  C   UNL     1      33.428 -11.022 -23.759  0.00  0.00    +0.176 C 
ATOM      5  C   UNL     1      32.233 -11.292 -21.675  0.00  0.00    +0.041 C 
ATOM      6  C   UNL     1      34.031 -12.265 -23.574  0.00  0.00    +0.047 C 
ATOM      7  C   UNL     1      32.837 -12.536 -21.492  0.00  0.00    +0.018 C 
ENDROOT
BRANCH   3  10
ATOM      8  O   UNL     1      34.607 -18.123 -24.122  0.00  0.00    -0.274 OA
ATOM      9  O   UNL     1      33.603 -15.516 -24.108  0.00  0.00    -0.252 OA
ATOM     10  N   UNL     1      34.342 -14.266 -22.256  0.00  0.00    -0.268 N 
ATOM     11  N   UNL     1      35.017 -16.467 -22.530  0.00  0.00    -0.239 N 
ATOM     12  C   UNL     1      35.145 -17.744 -23.085  0.00  0.00    +0.234 C 
ATOM     13  C   UNL     1      34.251 -15.415 -23.070  0.00  0.00    +0.310 C 
ATOM     14  H   UNL     1      34.905 -14.353 -21.455  0.00  0.00    +0.156 HD
ATOM     15  H   UNL     1      35.502 -16.289 -21.692  0.00  0.00    +0.159 HD
BRANCH  12  16
ATOM     16  C   UNL     1      36.046 -18.623 -22.239  0.00  0.00    +0.112 C 
BRANCH  16  18
ATOM     17  F   UNL     1      33.236 -21.786 -18.539  0.00  0.00    -0.204 F 
ATOM     18  C   UNL     1      35.293 -19.470 -21.247  0.00  0.00    -0.013 C 
ATOM     19  C   UNL     1      33.907 -19.508 -21.295  0.00  0.00    -0.001 C 
ATOM     20  C   UNL     1      35.997 -20.200 -20.300  0.00  0.00    -0.001 C 
ATOM     21  C   UNL     1      33.209 -20.293 -20.376  0.00  0.00    +0.029 C 
ATOM     22  C   UNL     1      35.299 -20.985 -19.381  0.00  0.00    +0.029 C 
ATOM     23  C   UNL     1      33.906 -21.032 -19.420  0.00  0.00    +0.140 C 
ENDBRANCH  16  18
ENDBRANCH  12  16
ENDBRANCH   3  10
BRANCH   2  24
ATOM     24  O   UNL     1      31.940  -9.321 -22.988  0.00  0.00    -0.451 OA
BRANCH  24  28
ATOM     25  N   UNL     1      32.593  -4.888 -24.251  0.00  0.00    -0.297 N 
ATOM     26  N   UNL     1      34.509  -5.983 -23.285  0.00  0.00    -0.229 NA
ATOM     27  C   UNL     1      32.313  -7.016 -23.635  0.00  0.00    +0.067 C 
ATOM     28  C   UNL     1      32.758  -8.232 -23.091  0.00  0.00    +0.150 C 
ATOM     29  C   UNL     1      33.227  -5.967 -23.693  0.00  0.00    +0.135 C 
ATOM     30  C   UNL     1      31.095  -6.532 -24.180  0.00  0.00    +0.022 C 
ATOM     31  C   UNL     1      31.297  -5.219 -24.550  0.00  0.00    +0.063 C 
ATOM     32  C   UNL     1      34.079  -8.303 -22.651  0.00  0.00    +0.058 C 
ATOM     33  C   UNL     1      34.884  -7.177 -22.771  0.00  0.00    +0.103 C 
ATOM     34  H   UNL     1      33.006  -4.008 -24.412  0.00  0.00    +0.154 HD
ENDBRANCH  24  28
ENDBRANCH   2  24
TORSDOF 5
ENDMDL
