MODEL 1
REMARK VINA RESULT:     -12.8      0.000      0.000
REMARK  Name = 24767976
REMARK  5 active torsions:
REMARK  status: ('A' for Active; 'I' for Inactive)
REMARK    1  A    between atoms: C_1  and  N_9
REMARK    2  A    between atoms: C_2  and  O_19
REMARK    3  A    between atoms: C_10  and  C_14
REMARK    4  A    between atoms: O_19  and  C_27
REMARK    5  A    between atoms: C_31  and  C_33
REMARK                            x       y       z     vdW  Elec       q    Type
REMARK                         _______ _______ _______ _____ _____    ______ ____
ROOT
ATOM      1  C   UNL     1      34.986 -21.656 -18.436  0.00  0.00    +0.050 C 
ATOM      2  C   UNL     1      35.454 -20.304 -20.383  0.00  0.00    +0.148 C 
ATOM      3  C   UNL     1      33.618 -21.514 -18.666  0.00  0.00    -0.008 C 
ATOM      4  C   UNL     1      35.904 -21.051 -19.295  0.00  0.00    +0.052 C 
ATOM      5  C   UNL     1      33.167 -20.767 -19.755  0.00  0.00    +0.000 C 
ATOM      6  C   UNL     1      34.086 -20.162 -20.613  0.00  0.00    +0.037 C 
ATOM      7  C   UNL     1      32.612 -22.150 -17.762  0.00  0.00    +0.032 C 
ENDROOT
BRANCH   1   9
ATOM      8  O   UNL     1      37.035 -20.969 -16.357  0.00  0.00    -0.268 OA
ATOM      9  N   UNL     1      35.457 -22.400 -17.352  0.00  0.00    -0.279 N 
ATOM     10  C   UNL     1      36.420 -22.030 -16.407  0.00  0.00    +0.265 C 
ATOM     11  H   UNL     1      35.063 -23.296 -17.240  0.00  0.00    +0.155 HD
BRANCH  10  14
ATOM     12  N   UNL     1      35.817 -23.697 -14.595  0.00  0.00    -0.206 N 
ATOM     13  N   UNL     1      36.357 -24.584 -13.743  0.00  0.00    -0.182 NA
ATOM     14  C   UNL     1      36.732 -23.058 -15.379  0.00  0.00    +0.124 C 
ATOM     15  C   UNL     1      37.956 -23.563 -15.015  0.00  0.00    +0.037 C 
ATOM     16  C   UNL     1      37.664 -24.499 -14.004  0.00  0.00    +0.078 C 
ATOM     17  C   UNL     1      34.385 -23.507 -14.603  0.00  0.00    +0.140 C 
ATOM     18  C   UNL     1      38.615 -25.339 -13.257  0.00  0.00    +0.054 C 
ENDBRANCH  10  14
ENDBRANCH   1   9
BRANCH   2  19
ATOM     19  O   UNL     1      36.370 -19.700 -21.240  0.00  0.00    -0.435 OA
BRANCH  19  27
ATOM     20  N   UNL     1      33.812 -16.369 -24.530  0.00  0.00    -0.373 NA
ATOM     21  N   UNL     1      35.025 -16.839 -22.718  0.00  0.00    -0.173 N 
ATOM     22  N   UNL     1      35.717 -17.553 -21.786  0.00  0.00    -0.138 NA
ATOM     23  C   UNL     1      34.086 -15.219 -23.834  0.00  0.00    +0.187 C 
ATOM     24  C   UNL     1      34.833 -15.483 -22.711  0.00  0.00    +0.193 C 
ATOM     25  C   UNL     1      34.386 -17.336 -23.842  0.00  0.00    +0.204 C 
ATOM     26  C   UNL     1      34.451 -18.733 -24.058  0.00  0.00    +0.054 C 
ATOM     27  C   UNL     1      35.737 -18.821 -22.043  0.00  0.00    +0.245 C 
ATOM     28  C   UNL     1      35.111 -19.510 -23.191  0.00  0.00    +0.063 C 
ATOM     29  O   UNL     1      34.477 -12.503 -22.598  0.00  0.00    -0.275 OA
ATOM     30  N   UNL     1      33.650 -13.981 -24.242  0.00  0.00    -0.261 N 
ATOM     31  C   UNL     1      33.856 -12.728 -23.629  0.00  0.00    +0.227 C 
ATOM     32  H   UNL     1      33.123 -13.967 -25.073  0.00  0.00    +0.157 HD
BRANCH  31  33
ATOM     33  C   UNL     1      33.236 -11.573 -24.352  0.00  0.00    +0.077 C 
ATOM     34  C   UNL     1      34.113 -10.662 -25.159  0.00  0.00    +0.010 C 
ATOM     35  C   UNL     1      33.513 -10.179 -23.872  0.00  0.00    +0.010 C 
ENDBRANCH  31  33
ENDBRANCH  19  27
ENDBRANCH   2  19
TORSDOF 5
ENDMDL
MODEL 2
REMARK VINA RESULT:     -11.7      3.558     12.566
REMARK  Name = 24767976
REMARK  5 active torsions:
REMARK  status: ('A' for Active; 'I' for Inactive)
REMARK    1  A    between atoms: C_1  and  N_9
REMARK    2  A    between atoms: C_2  and  O_19
REMARK    3  A    between atoms: C_10  and  C_14
REMARK    4  A    between atoms: O_19  and  C_27
REMARK    5  A    between atoms: C_31  and  C_33
REMARK                            x       y       z     vdW  Elec       q    Type
REMARK                         _______ _______ _______ _____ _____    ______ ____
ROOT
ATOM      1  C   UNL     1      32.541 -10.658 -22.354  0.00  0.00    +0.050 C 
ATOM      2  C   UNL     1      33.689 -12.662 -23.058  0.00  0.00    +0.148 C 
ATOM      3  C   UNL     1      32.000 -11.347 -21.270  0.00  0.00    -0.008 C 
ATOM      4  C   UNL     1      33.386 -11.315 -23.248  0.00  0.00    +0.052 C 
ATOM      5  C   UNL     1      32.303 -12.696 -21.080  0.00  0.00    +0.000 C 
ATOM      6  C   UNL     1      33.148 -13.354 -21.974  0.00  0.00    +0.037 C 
ATOM      7  C   UNL     1      31.091 -10.669 -20.296  0.00  0.00    +0.032 C 
ENDROOT
BRANCH   1   9
ATOM      8  O   UNL     1      34.370  -8.291 -22.572  0.00  0.00    -0.268 OA
ATOM      9  N   UNL     1      32.250  -9.307 -22.561  0.00  0.00    -0.279 N 
ATOM     10  C   UNL     1      33.148  -8.237 -22.654  0.00  0.00    +0.265 C 
ATOM     11  H   UNL     1      31.296  -9.079 -22.650  0.00  0.00    +0.155 HD
BRANCH  10  14
ATOM     12  N   UNL     1      32.040  -6.101 -21.857  0.00  0.00    -0.206 N 
ATOM     13  N   UNL     1      31.528  -4.939 -22.298  0.00  0.00    -0.182 NA
ATOM     14  C   UNL     1      32.527  -6.900 -22.850  0.00  0.00    +0.124 C 
ATOM     15  C   UNL     1      32.319  -6.214 -24.021  0.00  0.00    +0.037 C 
ATOM     16  C   UNL     1      31.702  -5.014 -23.620  0.00  0.00    +0.078 C 
ATOM     17  C   UNL     1      32.029  -6.386 -20.441  0.00  0.00    +0.140 C 
ATOM     18  C   UNL     1      31.259  -3.903 -24.480  0.00  0.00    +0.054 C 
ENDBRANCH  10  14
ENDBRANCH   1   9
BRANCH   2  19
ATOM     19  O   UNL     1      34.533 -13.320 -23.951  0.00  0.00    -0.435 OA
BRANCH  19  27
ATOM     20  N   UNL     1      34.413 -18.584 -23.098  0.00  0.00    -0.373 NA
ATOM     21  N   UNL     1      35.032 -16.499 -22.603  0.00  0.00    -0.173 N 
ATOM     22  N   UNL     1      35.159 -15.145 -22.683  0.00  0.00    -0.138 NA
ATOM     23  C   UNL     1      35.191 -18.578 -21.968  0.00  0.00    +0.187 C 
ATOM     24  C   UNL     1      35.586 -17.303 -21.643  0.00  0.00    +0.193 C 
ATOM     25  C   UNL     1      34.328 -17.322 -23.467  0.00  0.00    +0.204 C 
ATOM     26  C   UNL     1      33.665 -16.702 -24.553  0.00  0.00    +0.054 C 
ATOM     27  C   UNL     1      34.530 -14.643 -23.696  0.00  0.00    +0.245 C 
ATOM     28  C   UNL     1      33.737 -15.375 -24.707  0.00  0.00    +0.063 C 
ATOM     29  O   UNL     1      36.845 -18.970 -19.485  0.00  0.00    -0.275 OA
ATOM     30  N   UNL     1      35.511 -19.724 -21.280  0.00  0.00    -0.261 N 
ATOM     31  C   UNL     1      36.294 -19.863 -20.115  0.00  0.00    +0.227 C 
ATOM     32  H   UNL     1      35.145 -20.559 -21.649  0.00  0.00    +0.157 HD
BRANCH  31  33
ATOM     33  C   UNL     1      36.438 -21.271 -19.627  0.00  0.00    +0.077 C 
ATOM     34  C   UNL     1      35.274 -21.929 -18.945  0.00  0.00    +0.010 C 
ATOM     35  C   UNL     1      36.483 -21.530 -18.150  0.00  0.00    +0.010 C 
ENDBRANCH  31  33
ENDBRANCH  19  27
ENDBRANCH   2  19
TORSDOF 5
ENDMDL
MODEL 3
REMARK VINA RESULT:     -11.1      2.138     11.312
REMARK  Name = 24767976
REMARK  5 active torsions:
REMARK  status: ('A' for Active; 'I' for Inactive)
REMARK    1  A    between atoms: C_1  and  N_9
REMARK    2  A    between atoms: C_2  and  O_19
REMARK    3  A    between atoms: C_10  and  C_14
REMARK    4  A    between atoms: O_19  and  C_27
REMARK    5  A    between atoms: C_31  and  C_33
REMARK                            x       y       z     vdW  Elec       q    Type
REMARK                         _______ _______ _______ _____ _____    ______ ____
ROOT
ATOM      1  C   UNL     1      34.962 -19.219 -20.718  0.00  0.00    +0.050 C 
ATOM      2  C   UNL     1      34.181 -21.234 -19.640  0.00  0.00    +0.148 C 
ATOM      3  C   UNL     1      36.278 -19.571 -20.424  0.00  0.00    -0.008 C 
ATOM      4  C   UNL     1      33.912 -20.051 -20.326  0.00  0.00    +0.052 C 
ATOM      5  C   UNL     1      36.547 -20.756 -19.737  0.00  0.00    +0.000 C 
ATOM      6  C   UNL     1      35.497 -21.587 -19.345  0.00  0.00    +0.037 C 
ATOM      7  C   UNL     1      37.422 -18.699 -20.832  0.00  0.00    +0.032 C 
ENDROOT
BRANCH   1   9
ATOM      8  O   UNL     1      35.375 -18.504 -23.601  0.00  0.00    -0.268 OA
ATOM      9  N   UNL     1      34.673 -18.038 -21.406  0.00  0.00    -0.279 N 
ATOM     10  C   UNL     1      34.888 -17.755 -22.760  0.00  0.00    +0.265 C 
ATOM     11  H   UNL     1      34.269 -17.315 -20.873  0.00  0.00    +0.155 HD
BRANCH  10  14
ATOM     12  N   UNL     1      34.448 -15.287 -22.391  0.00  0.00    -0.206 N 
ATOM     13  N   UNL     1      34.065 -14.167 -23.028  0.00  0.00    -0.182 NA
ATOM     14  C   UNL     1      34.499 -16.388 -23.195  0.00  0.00    +0.124 C 
ATOM     15  C   UNL     1      34.124 -15.959 -24.444  0.00  0.00    +0.037 C 
ATOM     16  C   UNL     1      33.869 -14.583 -24.282  0.00  0.00    +0.078 C 
ATOM     17  C   UNL     1      34.754 -15.227 -20.980  0.00  0.00    +0.140 C 
ATOM     18  C   UNL     1      33.433 -13.625 -25.311  0.00  0.00    +0.054 C 
ENDBRANCH  10  14
ENDBRANCH   1   9
BRANCH   2  19
ATOM     19  O   UNL     1      33.134 -22.065 -19.247  0.00  0.00    -0.435 OA
BRANCH  19  27
ATOM     20  N   UNL     1      33.495 -23.398 -14.095  0.00  0.00    -0.373 NA
ATOM     21  N   UNL     1      34.360 -22.838 -16.074  0.00  0.00    -0.173 N 
ATOM     22  N   UNL     1      34.436 -22.490 -17.388  0.00  0.00    -0.138 NA
ATOM     23  C   UNL     1      34.864 -23.354 -14.017  0.00  0.00    +0.187 C 
ATOM     24  C   UNL     1      35.421 -23.012 -15.225  0.00  0.00    +0.193 C 
ATOM     25  C   UNL     1      33.209 -23.084 -15.342  0.00  0.00    +0.204 C 
ATOM     26  C   UNL     1      31.974 -22.965 -16.022  0.00  0.00    +0.054 C 
ATOM     27  C   UNL     1      33.274 -22.398 -17.948  0.00  0.00    +0.245 C 
ATOM     28  C   UNL     1      31.957 -22.626 -17.316  0.00  0.00    +0.063 C 
ATOM     29  O   UNL     1      37.821 -23.362 -13.453  0.00  0.00    -0.275 OA
ATOM     30  N   UNL     1      35.552 -23.626 -12.858  0.00  0.00    -0.261 N 
ATOM     31  C   UNL     1      36.945 -23.618 -12.638  0.00  0.00    +0.227 C 
ATOM     32  H   UNL     1      34.999 -23.856 -12.078  0.00  0.00    +0.157 HD
BRANCH  31  33
ATOM     33  C   UNL     1      37.355 -23.963 -11.240  0.00  0.00    +0.077 C 
ATOM     34  C   UNL     1      37.364 -25.403 -10.817  0.00  0.00    +0.010 C 
ATOM     35  C   UNL     1      36.318 -24.470 -10.280  0.00  0.00    +0.010 C 
ENDBRANCH  31  33
ENDBRANCH  19  27
ENDBRANCH   2  19
TORSDOF 5
ENDMDL
MODEL 4
REMARK VINA RESULT:     -10.9      4.072      7.826
REMARK  Name = 24767976
REMARK  5 active torsions:
REMARK  status: ('A' for Active; 'I' for Inactive)
REMARK    1  A    between atoms: C_1  and  N_9
REMARK    2  A    between atoms: C_2  and  O_19
REMARK    3  A    between atoms: C_10  and  C_14
REMARK    4  A    between atoms: O_19  and  C_27
REMARK    5  A    between atoms: C_31  and  C_33
REMARK                            x       y       z     vdW  Elec       q    Type
REMARK                         _______ _______ _______ _____ _____    ______ ____
ROOT
ATOM      1  C   UNL     1      37.089 -25.522 -14.097  0.00  0.00    +0.050 C 
ATOM      2  C   UNL     1      34.855 -24.639 -13.840  0.00  0.00    +0.148 C 
ATOM      3  C   UNL     1      37.566 -24.581 -13.186  0.00  0.00    -0.008 C 
ATOM      4  C   UNL     1      35.733 -25.551 -14.425  0.00  0.00    +0.052 C 
ATOM      5  C   UNL     1      36.687 -23.669 -12.601  0.00  0.00    +0.000 C 
ATOM      6  C   UNL     1      35.331 -23.698 -12.928  0.00  0.00    +0.037 C 
ATOM      7  C   UNL     1      39.013 -24.527 -12.817  0.00  0.00    +0.032 C 
ENDROOT
BRANCH   1   9
ATOM      8  O   UNL     1      38.248 -28.069 -13.020  0.00  0.00    -0.268 OA
ATOM      9  N   UNL     1      37.953 -26.444 -14.693  0.00  0.00    -0.279 N 
ATOM     10  C   UNL     1      38.466 -27.624 -14.142  0.00  0.00    +0.265 C 
ATOM     11  H   UNL     1      38.236 -26.239 -15.614  0.00  0.00    +0.155 HD
BRANCH  10  14
ATOM     12  N   UNL     1      39.026 -29.374 -15.888  0.00  0.00    -0.206 N 
ATOM     13  N   UNL     1      40.055 -29.908 -16.567  0.00  0.00    -0.182 NA
ATOM     14  C   UNL     1      39.392 -28.387 -15.020  0.00  0.00    +0.124 C 
ATOM     15  C   UNL     1      40.755 -28.268 -15.140  0.00  0.00    +0.037 C 
ATOM     16  C   UNL     1      41.108 -29.228 -16.106  0.00  0.00    +0.078 C 
ATOM     17  C   UNL     1      37.689 -29.868 -16.125  0.00  0.00    +0.140 C 
ATOM     18  C   UNL     1      42.455 -29.530 -16.621  0.00  0.00    +0.054 C 
ENDBRANCH  10  14
ENDBRANCH   1   9
BRANCH   2  19
ATOM     19  O   UNL     1      33.501 -24.668 -14.167  0.00  0.00    -0.435 OA
BRANCH  19  27
ATOM     20  N   UNL     1      32.408 -21.612 -18.401  0.00  0.00    -0.373 NA
ATOM     21  N   UNL     1      33.797 -22.663 -17.007  0.00  0.00    -0.173 N 
ATOM     22  N   UNL     1      34.239 -23.423 -15.966  0.00  0.00    -0.138 NA
ATOM     23  C   UNL     1      33.709 -21.399 -18.781  0.00  0.00    +0.187 C 
ATOM     24  C   UNL     1      34.585 -22.036 -17.936  0.00  0.00    +0.193 C 
ATOM     25  C   UNL     1      32.481 -22.377 -17.330  0.00  0.00    +0.204 C 
ATOM     26  C   UNL     1      31.478 -22.925 -16.496  0.00  0.00    +0.054 C 
ATOM     27  C   UNL     1      33.273 -23.892 -15.246  0.00  0.00    +0.245 C 
ATOM     28  C   UNL     1      31.824 -23.684 -15.450  0.00  0.00    +0.063 C 
ATOM     29  O   UNL     1      36.408 -20.707 -19.919  0.00  0.00    -0.275 OA
ATOM     30  N   UNL     1      34.049 -20.636 -19.873  0.00  0.00    -0.261 N 
ATOM     31  C   UNL     1      35.333 -20.337 -20.373  0.00  0.00    +0.227 C 
ATOM     32  H   UNL     1      33.296 -20.249 -20.373  0.00  0.00    +0.157 HD
BRANCH  31  33
ATOM     33  C   UNL     1      35.338 -19.471 -21.595  0.00  0.00    +0.077 C 
ATOM     34  C   UNL     1      36.563 -18.665 -21.912  0.00  0.00    +0.010 C 
ATOM     35  C   UNL     1      35.317 -17.980 -21.431  0.00  0.00    +0.010 C 
ENDBRANCH  31  33
ENDBRANCH  19  27
ENDBRANCH   2  19
TORSDOF 5
ENDMDL
MODEL 5
REMARK VINA RESULT:     -10.7      3.465      7.197
REMARK  Name = 24767976
REMARK  5 active torsions:
REMARK  status: ('A' for Active; 'I' for Inactive)
REMARK    1  A    between atoms: C_1  and  N_9
REMARK    2  A    between atoms: C_2  and  O_19
REMARK    3  A    between atoms: C_10  and  C_14
REMARK    4  A    between atoms: O_19  and  C_27
REMARK    5  A    between atoms: C_31  and  C_33
REMARK                            x       y       z     vdW  Elec       q    Type
REMARK                         _______ _______ _______ _____ _____    ______ ____
ROOT
ATOM      1  C   UNL     1      36.733 -25.609 -13.826  0.00  0.00    +0.050 C 
ATOM      2  C   UNL     1      34.804 -24.299 -14.455  0.00  0.00    +0.148 C 
ATOM      3  C   UNL     1      36.561 -25.226 -12.497  0.00  0.00    -0.008 C 
ATOM      4  C   UNL     1      35.855 -25.145 -14.806  0.00  0.00    +0.052 C 
ATOM      5  C   UNL     1      35.509 -24.379 -12.146  0.00  0.00    +0.000 C 
ATOM      6  C   UNL     1      34.630 -23.915 -13.125  0.00  0.00    +0.037 C 
ATOM      7  C   UNL     1      37.487 -25.707 -11.427  0.00  0.00    +0.032 C 
ENDROOT
BRANCH   1   9
ATOM      8  O   UNL     1      36.687 -28.477 -14.700  0.00  0.00    -0.268 OA
ATOM      9  N   UNL     1      37.780 -26.457 -14.197  0.00  0.00    -0.279 N 
ATOM     10  C   UNL     1      37.702 -27.796 -14.598  0.00  0.00    +0.265 C 
ATOM     11  H   UNL     1      38.683 -26.065 -14.172  0.00  0.00    +0.155 HD
BRANCH  10  14
ATOM     12  N   UNL     1      39.628 -29.374 -14.125  0.00  0.00    -0.206 N 
ATOM     13  N   UNL     1      40.798 -29.806 -14.626  0.00  0.00    -0.182 NA
ATOM     14  C   UNL     1      39.004 -28.445 -14.905  0.00  0.00    +0.124 C 
ATOM     15  C   UNL     1      39.822 -28.256 -15.992  0.00  0.00    +0.037 C 
ATOM     16  C   UNL     1      40.911 -29.120 -15.767  0.00  0.00    +0.078 C 
ATOM     17  C   UNL     1      39.159 -29.906 -12.866  0.00  0.00    +0.140 C 
ATOM     18  C   UNL     1      42.090 -29.320 -16.626  0.00  0.00    +0.054 C 
ENDBRANCH  10  14
ENDBRANCH   1   9
BRANCH   2  19
ATOM     19  O   UNL     1      33.927 -23.835 -15.432  0.00  0.00    -0.435 OA
BRANCH  19  27
ATOM     20  N   UNL     1      36.694 -20.733 -18.775  0.00  0.00    -0.373 NA
ATOM     21  N   UNL     1      34.856 -21.813 -18.120  0.00  0.00    -0.173 N 
ATOM     22  N   UNL     1      34.019 -22.586 -17.372  0.00  0.00    -0.138 NA
ATOM     23  C   UNL     1      35.683 -20.536 -19.680  0.00  0.00    +0.187 C 
ATOM     24  C   UNL     1      34.538 -21.193 -19.299  0.00  0.00    +0.193 C 
ATOM     25  C   UNL     1      36.177 -21.506 -17.841  0.00  0.00    +0.204 C 
ATOM     26  C   UNL     1      36.731 -22.046 -16.656  0.00  0.00    +0.054 C 
ATOM     27  C   UNL     1      34.586 -23.047 -16.305  0.00  0.00    +0.245 C 
ATOM     28  C   UNL     1      35.978 -22.817 -15.862  0.00  0.00    +0.063 C 
ATOM     29  O   UNL     1      33.731 -19.875 -21.874  0.00  0.00    -0.275 OA
ATOM     30  N   UNL     1      35.837 -19.771 -20.813  0.00  0.00    -0.261 N 
ATOM     31  C   UNL     1      34.891 -19.487 -21.819  0.00  0.00    +0.227 C 
ATOM     32  H   UNL     1      36.725 -19.369 -20.938  0.00  0.00    +0.157 HD
BRANCH  31  33
ATOM     33  C   UNL     1      35.400 -18.610 -22.920  0.00  0.00    +0.077 C 
ATOM     34  C   UNL     1      35.063 -17.147 -22.902  0.00  0.00    +0.010 C 
ATOM     35  C   UNL     1      34.427 -18.052 -23.917  0.00  0.00    +0.010 C 
ENDBRANCH  31  33
ENDBRANCH  19  27
ENDBRANCH   2  19
TORSDOF 5
ENDMDL
MODEL 6
REMARK VINA RESULT:     -10.5      1.765     11.048
REMARK  Name = 24767976
REMARK  5 active torsions:
REMARK  status: ('A' for Active; 'I' for Inactive)
REMARK    1  A    between atoms: C_1  and  N_9
REMARK    2  A    between atoms: C_2  and  O_19
REMARK    3  A    between atoms: C_10  and  C_14
REMARK    4  A    between atoms: O_19  and  C_27
REMARK    5  A    between atoms: C_31  and  C_33
REMARK                            x       y       z     vdW  Elec       q    Type
REMARK                         _______ _______ _______ _____ _____    ______ ____
ROOT
ATOM      1  C   UNL     1      34.921 -17.051 -22.766  0.00  0.00    +0.050 C 
ATOM      2  C   UNL     1      36.233 -18.736 -21.638  0.00  0.00    +0.148 C 
ATOM      3  C   UNL     1      34.439 -18.016 -23.649  0.00  0.00    -0.008 C 
ATOM      4  C   UNL     1      35.819 -17.411 -21.760  0.00  0.00    +0.052 C 
ATOM      5  C   UNL     1      34.854 -19.343 -23.526  0.00  0.00    +0.000 C 
ATOM      6  C   UNL     1      35.751 -19.702 -22.520  0.00  0.00    +0.037 C 
ATOM      7  C   UNL     1      33.478 -17.659 -24.736  0.00  0.00    +0.032 C 
ENDROOT
BRANCH   1   9
ATOM      8  O   UNL     1      34.529 -14.970 -20.643  0.00  0.00    -0.268 OA
ATOM      9  N   UNL     1      34.517 -15.717 -22.871  0.00  0.00    -0.279 N 
ATOM     10  C   UNL     1      34.349 -14.784 -21.842  0.00  0.00    +0.265 C 
ATOM     11  H   UNL     1      34.326 -15.395 -23.782  0.00  0.00    +0.155 HD
BRANCH  10  14
ATOM     12  N   UNL     1      32.927 -12.696 -21.636  0.00  0.00    -0.206 N 
ATOM     13  N   UNL     1      32.679 -11.515 -22.226  0.00  0.00    -0.182 NA
ATOM     14  C   UNL     1      33.877 -13.441 -22.270  0.00  0.00    +0.124 C 
ATOM     15  C   UNL     1      34.279 -12.695 -23.351  0.00  0.00    +0.037 C 
ATOM     16  C   UNL     1      33.509 -11.519 -23.273  0.00  0.00    +0.078 C 
ATOM     17  C   UNL     1      32.199 -13.055 -20.440  0.00  0.00    +0.140 C 
ATOM     18  C   UNL     1      33.537 -10.367 -24.189  0.00  0.00    +0.054 C 
ENDBRANCH  10  14
ENDBRANCH   1   9
BRANCH   2  19
ATOM     19  O   UNL     1      37.129 -19.096 -20.634  0.00  0.00    -0.435 OA
BRANCH  19  27
ATOM     20  N   UNL     1      34.650 -22.519 -17.379  0.00  0.00    -0.373 NA
ATOM     21  N   UNL     1      36.383 -21.260 -18.001  0.00  0.00    -0.173 N 
ATOM     22  N   UNL     1      37.147 -20.396 -18.725  0.00  0.00    -0.138 NA
ATOM     23  C   UNL     1      35.674 -22.648 -16.476  0.00  0.00    +0.187 C 
ATOM     24  C   UNL     1      36.756 -21.881 -16.838  0.00  0.00    +0.193 C 
ATOM     25  C   UNL     1      35.095 -21.679 -18.291  0.00  0.00    +0.204 C 
ATOM     26  C   UNL     1      34.497 -21.161 -19.464  0.00  0.00    +0.054 C 
ATOM     27  C   UNL     1      36.542 -19.961 -19.783  0.00  0.00    +0.245 C 
ATOM     28  C   UNL     1      35.177 -20.305 -20.236  0.00  0.00    +0.063 C 
ATOM     29  O   UNL     1      37.676 -23.186 -14.293  0.00  0.00    -0.275 OA
ATOM     30  N   UNL     1      35.589 -23.452 -15.364  0.00  0.00    -0.261 N 
ATOM     31  C   UNL     1      36.557 -23.676 -14.363  0.00  0.00    +0.227 C 
ATOM     32  H   UNL     1      34.740 -23.936 -15.253  0.00  0.00    +0.157 HD
BRANCH  31  33
ATOM     33  C   UNL     1      36.126 -24.620 -13.284  0.00  0.00    +0.077 C 
ATOM     34  C   UNL     1      35.520 -24.065 -12.028  0.00  0.00    +0.010 C 
ATOM     35  C   UNL     1      36.898 -24.659 -11.998  0.00  0.00    +0.010 C 
ENDBRANCH  31  33
ENDBRANCH  19  27
ENDBRANCH   2  19
TORSDOF 5
ENDMDL
MODEL 7
REMARK VINA RESULT:     -10.0      4.095      9.818
REMARK  Name = 24767976
REMARK  5 active torsions:
REMARK  status: ('A' for Active; 'I' for Inactive)
REMARK    1  A    between atoms: C_1  and  N_9
REMARK    2  A    between atoms: C_2  and  O_19
REMARK    3  A    between atoms: C_10  and  C_14
REMARK    4  A    between atoms: O_19  and  C_27
REMARK    5  A    between atoms: C_31  and  C_33
REMARK                            x       y       z     vdW  Elec       q    Type
REMARK                         _______ _______ _______ _____ _____    ______ ____
ROOT
ATOM      1  C   UNL     1      36.174 -22.044 -16.499  0.00  0.00    +0.050 C 
ATOM      2  C   UNL     1      35.489 -23.785 -14.972  0.00  0.00    +0.148 C 
ATOM      3  C   UNL     1      37.334 -21.843 -15.752  0.00  0.00    -0.008 C 
ATOM      4  C   UNL     1      35.251 -23.015 -16.109  0.00  0.00    +0.052 C 
ATOM      5  C   UNL     1      37.572 -22.614 -14.613  0.00  0.00    +0.000 C 
ATOM      6  C   UNL     1      36.649 -23.585 -14.223  0.00  0.00    +0.037 C 
ATOM      7  C   UNL     1      38.339 -20.810 -16.145  0.00  0.00    +0.032 C 
ENDROOT
BRANCH   1   9
ATOM      8  O   UNL     1      34.787 -22.786 -19.052  0.00  0.00    -0.268 OA
ATOM      9  N   UNL     1      35.919 -21.283 -17.643  0.00  0.00    -0.279 N 
ATOM     10  C   UNL     1      35.263 -21.681 -18.814  0.00  0.00    +0.265 C 
ATOM     11  H   UNL     1      36.240 -20.352 -17.623  0.00  0.00    +0.155 HD
BRANCH  10  14
ATOM     12  N   UNL     1      34.012 -20.150 -20.398  0.00  0.00    -0.206 N 
ATOM     13  N   UNL     1      34.200 -19.219 -21.349  0.00  0.00    -0.182 NA
ATOM     14  C   UNL     1      35.170 -20.645 -19.875  0.00  0.00    +0.124 C 
ATOM     15  C   UNL     1      36.187 -19.992 -20.529  0.00  0.00    +0.037 C 
ATOM     16  C   UNL     1      35.530 -19.126 -21.425  0.00  0.00    +0.078 C 
ATOM     17  C   UNL     1      32.665 -20.525 -20.034  0.00  0.00    +0.140 C 
ATOM     18  C   UNL     1      36.145 -18.187 -22.377  0.00  0.00    +0.054 C 
ENDBRANCH  10  14
ENDBRANCH   1   9
BRANCH   2  19
ATOM     19  O   UNL     1      34.568 -24.754 -14.582  0.00  0.00    -0.435 OA
BRANCH  19  27
ATOM     20  N   UNL     1      29.779 -22.518 -13.866  0.00  0.00    -0.373 NA
ATOM     21  N   UNL     1      31.331 -23.555 -15.086  0.00  0.00    -0.173 N 
ATOM     22  N   UNL     1      32.505 -24.156 -15.428  0.00  0.00    -0.138 NA
ATOM     23  C   UNL     1      29.316 -22.726 -15.140  0.00  0.00    +0.187 C 
ATOM     24  C   UNL     1      30.255 -23.364 -15.913  0.00  0.00    +0.193 C 
ATOM     25  C   UNL     1      30.995 -23.024 -13.852  0.00  0.00    +0.204 C 
ATOM     26  C   UNL     1      31.967 -23.108 -12.827  0.00  0.00    +0.054 C 
ATOM     27  C   UNL     1      33.347 -24.200 -14.447  0.00  0.00    +0.245 C 
ATOM     28  C   UNL     1      33.149 -23.683 -13.076  0.00  0.00    +0.063 C 
ATOM     29  O   UNL     1      27.957 -23.000 -17.812  0.00  0.00    -0.275 OA
ATOM     30  N   UNL     1      28.065 -22.330 -15.551  0.00  0.00    -0.261 N 
ATOM     31  C   UNL     1      27.466 -22.479 -16.819  0.00  0.00    +0.227 C 
ATOM     32  H   UNL     1      27.514 -21.884 -14.870  0.00  0.00    +0.157 HD
BRANCH  31  33
ATOM     33  C   UNL     1      26.077 -21.929 -16.918  0.00  0.00    +0.077 C 
ATOM     34  C   UNL     1      25.571 -21.463 -18.252  0.00  0.00    +0.010 C 
ATOM     35  C   UNL     1      25.890 -20.463 -17.179  0.00  0.00    +0.010 C 
ENDBRANCH  31  33
ENDBRANCH  19  27
ENDBRANCH   2  19
TORSDOF 5
ENDMDL
MODEL 8
REMARK VINA RESULT:     -10.0      6.898     15.841
REMARK  Name = 24767976
REMARK  5 active torsions:
REMARK  status: ('A' for Active; 'I' for Inactive)
REMARK    1  A    between atoms: C_1  and  N_9
REMARK    2  A    between atoms: C_2  and  O_19
REMARK    3  A    between atoms: C_10  and  C_14
REMARK    4  A    between atoms: O_19  and  C_27
REMARK    5  A    between atoms: C_31  and  C_33
REMARK                            x       y       z     vdW  Elec       q    Type
REMARK                         _______ _______ _______ _____ _____    ______ ____
ROOT
ATOM      1  C   UNL     1      32.909  -6.066 -24.125  0.00  0.00    +0.050 C 
ATOM      2  C   UNL     1      32.334  -7.737 -22.478  0.00  0.00    +0.148 C 
ATOM      3  C   UNL     1      34.258  -6.217 -23.808  0.00  0.00    -0.008 C 
ATOM      4  C   UNL     1      31.946  -6.827 -23.460  0.00  0.00    +0.052 C 
ATOM      5  C   UNL     1      34.646  -7.128 -22.825  0.00  0.00    +0.000 C 
ATOM      6  C   UNL     1      33.683  -7.889 -22.160  0.00  0.00    +0.037 C 
ATOM      7  C   UNL     1      35.310  -5.415 -24.503  0.00  0.00    +0.032 C 
ENDROOT
BRANCH   1   9
ATOM      8  O   UNL     1      32.598  -3.087 -24.002  0.00  0.00    -0.268 OA
ATOM      9  N   UNL     1      32.501  -5.160 -25.107  0.00  0.00    -0.279 N 
ATOM     10  C   UNL     1      32.372  -3.771 -24.995  0.00  0.00    +0.265 C 
ATOM     11  H   UNL     1      32.275  -5.546 -25.984  0.00  0.00    +0.155 HD
BRANCH  10  14
ATOM     12  N   UNL     1      30.765  -2.301 -26.292  0.00  0.00    -0.206 N 
ATOM     13  N   UNL     1      30.543  -1.786 -27.513  0.00  0.00    -0.182 NA
ATOM     14  C   UNL     1      31.884  -3.076 -26.216  0.00  0.00    +0.124 C 
ATOM     15  C   UNL     1      32.433  -3.069 -27.475  0.00  0.00    +0.037 C 
ATOM     16  C   UNL     1      31.565  -2.258 -28.232  0.00  0.00    +0.078 C 
ATOM     17  C   UNL     1      29.843  -2.002 -25.221  0.00  0.00    +0.140 C 
ATOM     18  C   UNL     1      31.680  -1.908 -29.657  0.00  0.00    +0.054 C 
ENDBRANCH  10  14
ENDBRANCH   1   9
BRANCH   2  19
ATOM     19  O   UNL     1      31.373  -8.497 -21.814  0.00  0.00    -0.435 OA
BRANCH  19  27
ATOM     20  N   UNL     1      32.995 -13.538 -21.175  0.00  0.00    -0.373 NA
ATOM     21  N   UNL     1      32.613 -11.707 -22.390  0.00  0.00    -0.173 N 
ATOM     22  N   UNL     1      32.240 -10.438 -22.716  0.00  0.00    -0.138 NA
ATOM     23  C   UNL     1      33.346 -13.757 -22.483  0.00  0.00    +0.187 C 
ATOM     24  C   UNL     1      33.119 -12.643 -23.253  0.00  0.00    +0.193 C 
ATOM     25  C   UNL     1      32.555 -12.296 -21.138  0.00  0.00    +0.204 C 
ATOM     26  C   UNL     1      32.057 -11.508 -20.074  0.00  0.00    +0.054 C 
ATOM     27  C   UNL     1      31.795  -9.772 -21.700  0.00  0.00    +0.245 C 
ATOM     28  C   UNL     1      31.667 -10.248 -20.306  0.00  0.00    +0.063 C 
ATOM     29  O   UNL     1      34.222 -14.614 -25.232  0.00  0.00    -0.275 OA
ATOM     30  N   UNL     1      33.856 -14.955 -22.926  0.00  0.00    -0.261 N 
ATOM     31  C   UNL     1      34.254 -15.315 -24.230  0.00  0.00    +0.227 C 
ATOM     32  H   UNL     1      33.956 -15.654 -22.241  0.00  0.00    +0.157 HD
BRANCH  31  33
ATOM     33  C   UNL     1      34.771 -16.714 -24.357  0.00  0.00    +0.077 C 
ATOM     34  C   UNL     1      33.791 -17.849 -24.432  0.00  0.00    +0.010 C 
ATOM     35  C   UNL     1      34.622 -17.655 -23.197  0.00  0.00    +0.010 C 
ENDBRANCH  31  33
ENDBRANCH  19  27
ENDBRANCH   2  19
TORSDOF 5
ENDMDL
MODEL 9
REMARK VINA RESULT:      -9.8      5.144     14.287
REMARK  Name = 24767976
REMARK  5 active torsions:
REMARK  status: ('A' for Active; 'I' for Inactive)
REMARK    1  A    between atoms: C_1  and  N_9
REMARK    2  A    between atoms: C_2  and  O_19
REMARK    3  A    between atoms: C_10  and  C_14
REMARK    4  A    between atoms: O_19  and  C_27
REMARK    5  A    between atoms: C_31  and  C_33
REMARK                            x       y       z     vdW  Elec       q    Type
REMARK                         _______ _______ _______ _____ _____    ______ ____
ROOT
ATOM      1  C   UNL     1      32.172  -7.572 -21.311  0.00  0.00    +0.050 C 
ATOM      2  C   UNL     1      31.450  -9.807 -20.748  0.00  0.00    +0.148 C 
ATOM      3  C   UNL     1      32.539  -7.355 -19.984  0.00  0.00    -0.008 C 
ATOM      4  C   UNL     1      31.627  -8.798 -21.693  0.00  0.00    +0.052 C 
ATOM      5  C   UNL     1      32.362  -8.365 -19.037  0.00  0.00    +0.000 C 
ATOM      6  C   UNL     1      31.817  -9.591 -19.419  0.00  0.00    +0.037 C 
ATOM      7  C   UNL     1      33.124  -6.051 -19.546  0.00  0.00    +0.032 C 
ENDROOT
BRANCH   1   9
ATOM      8  O   UNL     1      30.340  -5.348 -22.143  0.00  0.00    -0.268 OA
ATOM      9  N   UNL     1      32.342  -6.574 -22.274  0.00  0.00    -0.279 N 
ATOM     10  C   UNL     1      31.449  -5.554 -22.624  0.00  0.00    +0.265 C 
ATOM     11  H   UNL     1      33.195  -6.590 -22.767  0.00  0.00    +0.155 HD
BRANCH  10  14
ATOM     12  N   UNL     1      32.092  -3.307 -23.605  0.00  0.00    -0.206 N 
ATOM     13  N   UNL     1      32.511  -2.722 -24.739  0.00  0.00    -0.182 NA
ATOM     14  C   UNL     1      31.907  -4.654 -23.715  0.00  0.00    +0.124 C 
ATOM     15  C   UNL     1      32.228  -4.972 -25.012  0.00  0.00    +0.037 C 
ATOM     16  C   UNL     1      32.593  -3.743 -25.596  0.00  0.00    +0.078 C 
ATOM     17  C   UNL     1      31.884  -2.497 -22.427  0.00  0.00    +0.140 C 
ATOM     18  C   UNL     1      33.029  -3.503 -26.981  0.00  0.00    +0.054 C 
ENDBRANCH  10  14
ENDBRANCH   1   9
BRANCH   2  19
ATOM     19  O   UNL     1      30.906 -11.031 -21.128  0.00  0.00    -0.435 OA
BRANCH  19  27
ATOM     20  N   UNL     1      34.764 -14.088 -23.184  0.00  0.00    -0.373 NA
ATOM     21  N   UNL     1      33.227 -13.584 -21.648  0.00  0.00    -0.173 N 
ATOM     22  N   UNL     1      32.233 -12.917 -20.998  0.00  0.00    -0.138 NA
ATOM     23  C   UNL     1      34.748 -15.044 -22.201  0.00  0.00    +0.187 C 
ATOM     24  C   UNL     1      33.809 -14.756 -21.241  0.00  0.00    +0.193 C 
ATOM     25  C   UNL     1      33.840 -13.216 -22.834  0.00  0.00    +0.204 C 
ATOM     26  C   UNL     1      33.397 -12.020 -23.447  0.00  0.00    +0.054 C 
ATOM     27  C   UNL     1      31.875 -11.835 -21.610  0.00  0.00    +0.245 C 
ATOM     28  C   UNL     1      32.423 -11.301 -22.876  0.00  0.00    +0.063 C 
ATOM     29  O   UNL     1      35.010 -17.326 -20.255  0.00  0.00    -0.275 OA
ATOM     30  N   UNL     1      35.583 -16.136 -22.212  0.00  0.00    -0.261 N 
ATOM     31  C   UNL     1      35.673 -17.186 -21.274  0.00  0.00    +0.227 C 
ATOM     32  H   UNL     1      36.200 -16.193 -22.975  0.00  0.00    +0.157 HD
BRANCH  31  33
ATOM     33  C   UNL     1      36.701 -18.224 -21.601  0.00  0.00    +0.077 C 
ATOM     34  C   UNL     1      36.285 -19.665 -21.675  0.00  0.00    +0.010 C 
ATOM     35  C   UNL     1      37.132 -19.185 -20.532  0.00  0.00    +0.010 C 
ENDBRANCH  31  33
ENDBRANCH  19  27
ENDBRANCH   2  19
TORSDOF 5
ENDMDL
