MODEL 1
REMARK VINA RESULT:     -12.3      0.000      0.000
REMARK  Name = 11677589
REMARK  7 active torsions:
REMARK  status: ('A' for Active; 'I' for Inactive)
REMARK    1  A    between atoms: C_1  and  N_7
REMARK    2  A    between atoms: C_2  and  C_20
REMARK    3  A    between atoms: C_11  and  C_18
REMARK    4  A    between atoms: C_20  and  C_21
REMARK    5  A    between atoms: C_21  and  N_23
REMARK    6  A    between atoms: N_24  and  S_28
REMARK    7  A    between atoms: S_28  and  C_31
REMARK                            x       y       z     vdW  Elec       q    Type
REMARK                         _______ _______ _______ _____ _____    ______ ____
ROOT
ATOM      1  C   UNL     1      33.923 -22.459 -17.138  0.00  0.00    +0.058 C 
ATOM      2  C   UNL     1      34.966 -21.225 -19.397  0.00  0.00    -0.020 C 
ATOM      3  C   UNL     1      35.297 -22.289 -17.253  0.00  0.00    +0.015 C 
ATOM      4  C   UNL     1      33.064 -22.020 -18.137  0.00  0.00    +0.015 C 
ATOM      5  C   UNL     1      35.820 -21.669 -18.388  0.00  0.00    -0.003 C 
ATOM      6  C   UNL     1      33.587 -21.400 -19.272  0.00  0.00    -0.003 C 
ENDROOT
BRANCH   1   7
ATOM      7  N   UNL     1      33.398 -23.079 -16.003  0.00  0.00    -0.242 N 
ATOM      8  N   UNL     1      33.338 -24.172 -14.068  0.00  0.00    -0.387 NA
ATOM      9  N   UNL     1      29.678 -23.788 -14.490  0.00  0.00    -0.408 NA
ATOM     10  C   UNL     1      32.069 -23.201 -15.693  0.00  0.00    +0.091 C 
ATOM     11  C   UNL     1      34.116 -23.673 -15.003  0.00  0.00    +0.168 C 
ATOM     12  C   UNL     1      32.058 -23.887 -14.482  0.00  0.00    +0.172 C 
ATOM     13  C   UNL     1      30.913 -22.789 -16.341  0.00  0.00    +0.045 C 
ATOM     14  C   UNL     1      30.830 -24.174 -13.887  0.00  0.00    +0.140 C 
ATOM     15  C   UNL     1      29.745 -23.123 -15.669  0.00  0.00    +0.110 C 
ATOM     16  C   UNL     1      30.700 -24.902 -12.592  0.00  0.00    +0.069 C 
ATOM     17  C   UNL     1      28.437 -22.729 -16.274  0.00  0.00    +0.066 C 
BRANCH  11  18
ATOM     18  C   UNL     1      35.594 -23.730 -15.007  0.00  0.00    +0.075 C 
ATOM     19  C   UNL     1      36.134 -25.091 -14.554  0.00  0.00    +0.009 C 
ENDBRANCH  11  18
ENDBRANCH   1   7
BRANCH   2  20
ATOM     20  C   UNL     1      35.526 -20.563 -20.611  0.00  0.00    +0.048 C 
BRANCH  20  21
ATOM     21  C   UNL     1      36.378 -19.328 -20.297  0.00  0.00    +0.096 C 
BRANCH  21  23
ATOM     22  O   UNL     1      35.435 -18.981 -22.988  0.00  0.00    -0.251 OA
ATOM     23  N   UNL     1      35.835 -18.128 -20.875  0.00  0.00    -0.287 N 
ATOM     24  N   UNL     1      34.908 -16.751 -22.532  0.00  0.00    -0.169 N 
ATOM     25  C   UNL     1      35.402 -18.049 -22.189  0.00  0.00    +0.319 C 
ATOM     26  H   UNL     1      35.768 -17.324 -20.311  0.00  0.00    +0.151 HD
ATOM     27  H   UNL     1      34.923 -16.062 -21.829  0.00  0.00    +0.178 HD
BRANCH  24  28
ATOM     28  S   UNL     1      34.296 -16.298 -24.063  0.00  0.00    +0.077 S 
ATOM     29  O   UNL     1      35.347 -16.419 -25.055  0.00  0.00    -0.150 OA
ATOM     30  O   UNL     1      33.010 -16.936 -24.272  0.00  0.00    -0.150 OA
BRANCH  28  31
ATOM     31  C   UNL     1      33.978 -14.579 -23.805  0.00  0.00    +0.125 C 
ATOM     32  C   UNL     1      34.067 -14.059 -22.525  0.00  0.00    +0.020 C 
ATOM     33  C   UNL     1      33.644 -13.784 -24.888  0.00  0.00    +0.020 C 
ATOM     34  C   UNL     1      33.479 -11.886 -23.402  0.00  0.00    -0.022 C 
ATOM     35  C   UNL     1      33.816 -12.701 -22.322  0.00  0.00    -0.003 C 
ATOM     36  C   UNL     1      33.393 -12.427 -24.685  0.00  0.00    -0.003 C 
ATOM     37  C   UNL     1      33.212 -10.435 -23.185  0.00  0.00    +0.031 C 
ENDBRANCH  28  31
ENDBRANCH  24  28
ENDBRANCH  21  23
ENDBRANCH  20  21
ENDBRANCH   2  20
TORSDOF 7
ENDMDL
MODEL 2
REMARK VINA RESULT:     -12.1      1.655      4.001
REMARK  Name = 11677589
REMARK  7 active torsions:
REMARK  status: ('A' for Active; 'I' for Inactive)
REMARK    1  A    between atoms: C_1  and  N_7
REMARK    2  A    between atoms: C_2  and  C_20
REMARK    3  A    between atoms: C_11  and  C_18
REMARK    4  A    between atoms: C_20  and  C_21
REMARK    5  A    between atoms: C_21  and  N_23
REMARK    6  A    between atoms: N_24  and  S_28
REMARK    7  A    between atoms: S_28  and  C_31
REMARK                            x       y       z     vdW  Elec       q    Type
REMARK                         _______ _______ _______ _____ _____    ______ ____
ROOT
ATOM      1  C   UNL     1      35.428 -22.698 -16.309  0.00  0.00    +0.058 C 
ATOM      2  C   UNL     1      35.258 -21.435 -18.776  0.00  0.00    -0.020 C 
ATOM      3  C   UNL     1      36.519 -21.987 -16.791  0.00  0.00    +0.015 C 
ATOM      4  C   UNL     1      34.253 -22.785 -17.043  0.00  0.00    +0.015 C 
ATOM      5  C   UNL     1      36.434 -21.353 -18.031  0.00  0.00    -0.003 C 
ATOM      6  C   UNL     1      34.167 -22.152 -18.283  0.00  0.00    -0.003 C 
ENDROOT
BRANCH   1   7
ATOM      7  N   UNL     1      35.513 -23.332 -15.068  0.00  0.00    -0.242 N 
ATOM      8  N   UNL     1      34.890 -24.107 -13.080  0.00  0.00    -0.387 NA
ATOM      9  N   UNL     1      38.401 -25.282 -12.949  0.00  0.00    -0.408 NA
ATOM     10  C   UNL     1      36.626 -23.940 -14.547  0.00  0.00    +0.091 C 
ATOM     11  C   UNL     1      34.503 -23.459 -14.155  0.00  0.00    +0.168 C 
ATOM     12  C   UNL     1      36.211 -24.415 -13.307  0.00  0.00    +0.172 C 
ATOM     13  C   UNL     1      37.915 -24.110 -15.033  0.00  0.00    +0.045 C 
ATOM     14  C   UNL     1      37.131 -25.096 -12.510  0.00  0.00    +0.140 C 
ATOM     15  C   UNL     1      38.752 -24.799 -14.166  0.00  0.00    +0.110 C 
ATOM     16  C   UNL     1      36.796 -25.647 -11.165  0.00  0.00    +0.069 C 
ATOM     17  C   UNL     1      40.166 -25.042 -14.584  0.00  0.00    +0.066 C 
BRANCH  11  18
ATOM     18  C   UNL     1      33.146 -22.916 -14.386  0.00  0.00    +0.075 C 
ATOM     19  C   UNL     1      32.044 -23.942 -14.106  0.00  0.00    +0.009 C 
ENDBRANCH  11  18
ENDBRANCH   1   7
BRANCH   2  20
ATOM     20  C   UNL     1      35.167 -20.758 -20.102  0.00  0.00    +0.048 C 
BRANCH  20  21
ATOM     21  C   UNL     1      36.279 -19.730 -20.342  0.00  0.00    +0.096 C 
BRANCH  21  23
ATOM     22  O   UNL     1      35.320 -19.337 -23.021  0.00  0.00    -0.251 OA
ATOM     23  N   UNL     1      35.779 -18.508 -20.911  0.00  0.00    -0.287 N 
ATOM     24  N   UNL     1      34.890 -17.088 -22.554  0.00  0.00    -0.169 N 
ATOM     25  C   UNL     1      35.334 -18.407 -22.220  0.00  0.00    +0.319 C 
ATOM     26  H   UNL     1      35.752 -17.703 -20.345  0.00  0.00    +0.151 HD
ATOM     27  H   UNL     1      34.941 -16.403 -21.850  0.00  0.00    +0.178 HD
BRANCH  24  28
ATOM     28  S   UNL     1      34.279 -16.607 -24.077  0.00  0.00    +0.077 S 
ATOM     29  O   UNL     1      35.320 -16.746 -25.077  0.00  0.00    -0.150 OA
ATOM     30  O   UNL     1      32.976 -17.210 -24.282  0.00  0.00    -0.150 OA
BRANCH  28  31
ATOM     31  C   UNL     1      34.006 -14.883 -23.801  0.00  0.00    +0.125 C 
ATOM     32  C   UNL     1      33.635 -14.078 -24.865  0.00  0.00    +0.020 C 
ATOM     33  C   UNL     1      34.169 -14.368 -22.527  0.00  0.00    +0.020 C 
ATOM     34  C   UNL     1      33.579 -12.182 -23.370  0.00  0.00    -0.022 C 
ATOM     35  C   UNL     1      33.419 -12.717 -24.647  0.00  0.00    -0.003 C 
ATOM     36  C   UNL     1      33.953 -13.007 -22.309  0.00  0.00    -0.003 C 
ATOM     37  C   UNL     1      33.347 -10.728 -23.137  0.00  0.00    +0.031 C 
ENDBRANCH  28  31
ENDBRANCH  24  28
ENDBRANCH  21  23
ENDBRANCH  20  21
ENDBRANCH   2  20
TORSDOF 7
ENDMDL
MODEL 3
REMARK VINA RESULT:     -12.0      5.442     14.765
REMARK  Name = 11677589
REMARK  7 active torsions:
REMARK  status: ('A' for Active; 'I' for Inactive)
REMARK    1  A    between atoms: C_1  and  N_7
REMARK    2  A    between atoms: C_2  and  C_20
REMARK    3  A    between atoms: C_11  and  C_18
REMARK    4  A    between atoms: C_20  and  C_21
REMARK    5  A    between atoms: C_21  and  N_23
REMARK    6  A    between atoms: N_24  and  S_28
REMARK    7  A    between atoms: S_28  and  C_31
REMARK                            x       y       z     vdW  Elec       q    Type
REMARK                         _______ _______ _______ _____ _____    ______ ____
ROOT
ATOM      1  C   UNL     1      33.091  -7.605 -23.030  0.00  0.00    +0.058 C 
ATOM      2  C   UNL     1      34.038 -10.164 -23.547  0.00  0.00    -0.020 C 
ATOM      3  C   UNL     1      34.436  -7.792 -23.324  0.00  0.00    +0.015 C 
ATOM      4  C   UNL     1      32.213  -8.681 -22.991  0.00  0.00    +0.015 C 
ATOM      5  C   UNL     1      34.911  -9.077 -23.583  0.00  0.00    -0.003 C 
ATOM      6  C   UNL     1      32.689  -9.967 -23.251  0.00  0.00    -0.003 C 
ENDROOT
BRANCH   1   7
ATOM      7  N   UNL     1      32.615  -6.319 -22.770  0.00  0.00    -0.242 N 
ATOM      8  N   UNL     1      31.691  -4.626 -21.665  0.00  0.00    -0.387 NA
ATOM      9  N   UNL     1      32.366  -2.801 -24.817  0.00  0.00    -0.408 NA
ATOM     10  C   UNL     1      32.637  -5.260 -23.639  0.00  0.00    +0.091 C 
ATOM     11  C   UNL     1      32.041  -5.891 -21.604  0.00  0.00    +0.168 C 
ATOM     12  C   UNL     1      32.056  -4.216 -22.925  0.00  0.00    +0.172 C 
ATOM     13  C   UNL     1      33.098  -5.125 -24.941  0.00  0.00    +0.045 C 
ATOM     14  C   UNL     1      31.928  -2.972 -23.545  0.00  0.00    +0.140 C 
ATOM     15  C   UNL     1      32.925  -3.852 -25.466  0.00  0.00    +0.110 C 
ATOM     16  C   UNL     1      31.322  -1.786 -22.875  0.00  0.00    +0.069 C 
ATOM     17  C   UNL     1      33.384  -3.588 -26.863  0.00  0.00    +0.066 C 
BRANCH  11  18
ATOM     18  C   UNL     1      31.852  -6.778 -20.436  0.00  0.00    +0.075 C 
ATOM     19  C   UNL     1      33.088  -6.835 -19.532  0.00  0.00    +0.009 C 
ENDBRANCH  11  18
ENDBRANCH   1   7
BRANCH   2  20
ATOM     20  C   UNL     1      34.547 -11.539 -23.824  0.00  0.00    +0.048 C 
BRANCH  20  21
ATOM     21  C   UNL     1      33.439 -12.548 -24.149  0.00  0.00    +0.096 C 
BRANCH  21  23
ATOM     22  O   UNL     1      33.720 -15.047 -25.537  0.00  0.00    -0.251 OA
ATOM     23  N   UNL     1      33.687 -13.838 -23.565  0.00  0.00    -0.287 N 
ATOM     24  N   UNL     1      34.048 -16.155 -23.506  0.00  0.00    -0.169 N 
ATOM     25  C   UNL     1      33.809 -14.998 -24.313  0.00  0.00    +0.319 C 
ATOM     26  H   UNL     1      33.773 -13.901 -22.586  0.00  0.00    +0.151 HD
ATOM     27  H   UNL     1      34.101 -16.024 -22.532  0.00  0.00    +0.178 HD
BRANCH  24  28
ATOM     28  S   UNL     1      34.249 -17.747 -24.095  0.00  0.00    +0.077 S 
ATOM     29  O   UNL     1      32.949 -18.317 -24.392  0.00  0.00    -0.150 OA
ATOM     30  O   UNL     1      35.303 -17.760 -25.092  0.00  0.00    -0.150 OA
BRANCH  28  31
ATOM     31  C   UNL     1      34.892 -18.559 -22.662  0.00  0.00    +0.125 C 
ATOM     32  C   UNL     1      34.079 -19.428 -21.955  0.00  0.00    +0.020 C 
ATOM     33  C   UNL     1      36.197 -18.312 -22.274  0.00  0.00    +0.020 C 
ATOM     34  C   UNL     1      35.900 -19.831 -20.419  0.00  0.00    -0.022 C 
ATOM     35  C   UNL     1      34.587 -20.068 -20.824  0.00  0.00    -0.003 C 
ATOM     36  C   UNL     1      36.705 -18.952 -21.144  0.00  0.00    -0.003 C 
ATOM     37  C   UNL     1      36.442 -20.517 -19.212  0.00  0.00    +0.031 C 
ENDBRANCH  28  31
ENDBRANCH  24  28
ENDBRANCH  21  23
ENDBRANCH  20  21
ENDBRANCH   2  20
TORSDOF 7
ENDMDL
MODEL 4
REMARK VINA RESULT:     -12.0      3.344     12.262
REMARK  Name = 11677589
REMARK  7 active torsions:
REMARK  status: ('A' for Active; 'I' for Inactive)
REMARK    1  A    between atoms: C_1  and  N_7
REMARK    2  A    between atoms: C_2  and  C_20
REMARK    3  A    between atoms: C_11  and  C_18
REMARK    4  A    between atoms: C_20  and  C_21
REMARK    5  A    between atoms: C_21  and  N_23
REMARK    6  A    between atoms: N_24  and  S_28
REMARK    7  A    between atoms: S_28  and  C_31
REMARK                            x       y       z     vdW  Elec       q    Type
REMARK                         _______ _______ _______ _____ _____    ______ ____
ROOT
ATOM      1  C   UNL     1      33.756 -12.677 -23.266  0.00  0.00    +0.058 C 
ATOM      2  C   UNL     1      34.297 -15.400 -23.210  0.00  0.00    -0.020 C 
ATOM      3  C   UNL     1      33.451 -13.458 -24.373  0.00  0.00    +0.015 C 
ATOM      4  C   UNL     1      34.327 -13.239 -22.131  0.00  0.00    +0.015 C 
ATOM      5  C   UNL     1      33.724 -14.826 -24.345  0.00  0.00    -0.003 C 
ATOM      6  C   UNL     1      34.600 -14.606 -22.103  0.00  0.00    -0.003 C 
ENDROOT
BRANCH   1   7
ATOM      7  N   UNL     1      33.483 -11.308 -23.293  0.00  0.00    -0.242 N 
ATOM      8  N   UNL     1      33.419  -9.213 -24.033  0.00  0.00    -0.387 NA
ATOM      9  N   UNL     1      31.687  -8.613 -20.814  0.00  0.00    -0.408 NA
ATOM     10  C   UNL     1      32.845 -10.593 -22.313  0.00  0.00    +0.091 C 
ATOM     11  C   UNL     1      33.806 -10.440 -24.299  0.00  0.00    +0.168 C 
ATOM     12  C   UNL     1      32.818  -9.289 -22.799  0.00  0.00    +0.172 C 
ATOM     13  C   UNL     1      32.308 -10.957 -21.086  0.00  0.00    +0.045 C 
ATOM     14  C   UNL     1      32.223  -8.298 -22.019  0.00  0.00    +0.140 C 
ATOM     15  C   UNL     1      31.741  -9.899 -20.389  0.00  0.00    +0.110 C 
ATOM     16  C   UNL     1      32.137  -6.870 -22.441  0.00  0.00    +0.069 C 
ATOM     17  C   UNL     1      31.130 -10.173 -19.052  0.00  0.00    +0.066 C 
BRANCH  11  18
ATOM     18  C   UNL     1      34.510 -10.870 -25.527  0.00  0.00    +0.075 C 
ATOM     19  C   UNL     1      35.776 -10.052 -25.798  0.00  0.00    +0.009 C 
ENDBRANCH  11  18
ENDBRANCH   1   7
BRANCH   2  20
ATOM     20  C   UNL     1      34.589 -16.862 -23.181  0.00  0.00    +0.048 C 
BRANCH  20  21
ATOM     21  C   UNL     1      35.587 -17.266 -22.089  0.00  0.00    +0.096 C 
BRANCH  21  23
ATOM     22  O   UNL     1      37.134 -19.254 -20.708  0.00  0.00    -0.251 OA
ATOM     23  N   UNL     1      35.087 -18.329 -21.259  0.00  0.00    -0.287 N 
ATOM     24  N   UNL     1      35.178 -20.212 -19.862  0.00  0.00    -0.169 N 
ATOM     25  C   UNL     1      35.909 -19.248 -20.627  0.00  0.00    +0.319 C 
ATOM     26  H   UNL     1      34.113 -18.408 -21.134  0.00  0.00    +0.151 HD
ATOM     27  H   UNL     1      34.196 -20.134 -19.858  0.00  0.00    +0.178 HD
BRANCH  24  28
ATOM     28  S   UNL     1      35.869 -21.487 -18.958  0.00  0.00    +0.077 S 
ATOM     29  O   UNL     1      36.261 -22.556 -19.856  0.00  0.00    -0.150 OA
ATOM     30  O   UNL     1      36.819 -20.940 -18.008  0.00  0.00    -0.150 OA
BRANCH  28  31
ATOM     31  C   UNL     1      34.472 -22.036 -18.025  0.00  0.00    +0.125 C 
ATOM     32  C   UNL     1      33.198 -21.730 -18.472  0.00  0.00    +0.020 C 
ATOM     33  C   UNL     1      34.677 -22.762 -16.865  0.00  0.00    +0.020 C 
ATOM     34  C   UNL     1      32.284 -22.896 -16.564  0.00  0.00    -0.022 C 
ATOM     35  C   UNL     1      32.095 -22.164 -17.735  0.00  0.00    -0.003 C 
ATOM     36  C   UNL     1      33.575 -23.196 -16.128  0.00  0.00    -0.003 C 
ATOM     37  C   UNL     1      31.105 -23.361 -15.777  0.00  0.00    +0.031 C 
ENDBRANCH  28  31
ENDBRANCH  24  28
ENDBRANCH  21  23
ENDBRANCH  20  21
ENDBRANCH   2  20
TORSDOF 7
ENDMDL
MODEL 5
REMARK VINA RESULT:     -11.8      4.298     13.271
REMARK  Name = 11677589
REMARK  7 active torsions:
REMARK  status: ('A' for Active; 'I' for Inactive)
REMARK    1  A    between atoms: C_1  and  N_7
REMARK    2  A    between atoms: C_2  and  C_20
REMARK    3  A    between atoms: C_11  and  C_18
REMARK    4  A    between atoms: C_20  and  C_21
REMARK    5  A    between atoms: C_21  and  N_23
REMARK    6  A    between atoms: N_24  and  S_28
REMARK    7  A    between atoms: S_28  and  C_31
REMARK                            x       y       z     vdW  Elec       q    Type
REMARK                         _______ _______ _______ _____ _____    ______ ____
ROOT
ATOM      1  C   UNL     1      32.878  -9.572 -22.308  0.00  0.00    +0.058 C 
ATOM      2  C   UNL     1      33.820 -11.944 -23.401  0.00  0.00    -0.020 C 
ATOM      3  C   UNL     1      33.955  -9.542 -23.183  0.00  0.00    +0.015 C 
ATOM      4  C   UNL     1      32.265 -10.772 -21.971  0.00  0.00    +0.015 C 
ATOM      5  C   UNL     1      34.429 -10.734 -23.732  0.00  0.00    -0.003 C 
ATOM      6  C   UNL     1      32.738 -11.964 -22.520  0.00  0.00    -0.003 C 
ENDROOT
BRANCH   1   7
ATOM      7  N   UNL     1      32.403  -8.380 -21.758  0.00  0.00    -0.242 N 
ATOM      8  N   UNL     1      31.726  -6.919 -20.225  0.00  0.00    -0.387 NA
ATOM      9  N   UNL     1      31.282  -4.724 -23.175  0.00  0.00    -0.408 NA
ATOM     10  C   UNL     1      32.083  -7.243 -22.452  0.00  0.00    +0.091 C 
ATOM     11  C   UNL     1      32.174  -8.137 -20.432  0.00  0.00    +0.168 C 
ATOM     12  C   UNL     1      31.663  -6.347 -21.473  0.00  0.00    +0.172 C 
ATOM     13  C   UNL     1      32.120  -6.927 -23.803  0.00  0.00    +0.045 C 
ATOM     14  C   UNL     1      31.260  -5.070 -21.864  0.00  0.00    +0.140 C 
ATOM     15  C   UNL     1      31.700  -5.635 -24.087  0.00  0.00    +0.110 C 
ATOM     16  C   UNL     1      30.792  -4.031 -20.901  0.00  0.00    +0.069 C 
ATOM     17  C   UNL     1      31.698  -5.184 -25.512  0.00  0.00    +0.066 C 
BRANCH  11  18
ATOM     18  C   UNL     1      32.412  -9.152 -19.382  0.00  0.00    +0.075 C 
ATOM     19  C   UNL     1      31.133  -9.886 -18.969  0.00  0.00    +0.009 C 
ENDBRANCH  11  18
ENDBRANCH   1   7
BRANCH   2  20
ATOM     20  C   UNL     1      34.327 -13.218 -23.987  0.00  0.00    +0.048 C 
BRANCH  20  21
ATOM     21  C   UNL     1      33.546 -14.456 -23.531  0.00  0.00    +0.096 C 
BRANCH  21  23
ATOM     22  O   UNL     1      34.881 -16.938 -24.087  0.00  0.00    -0.251 OA
ATOM     23  N   UNL     1      34.292 -15.263 -22.604  0.00  0.00    -0.287 N 
ATOM     24  N   UNL     1      35.585 -17.075 -21.863  0.00  0.00    -0.169 N 
ATOM     25  C   UNL     1      34.907 -16.453 -22.959  0.00  0.00    +0.319 C 
ATOM     26  H   UNL     1      34.370 -14.956 -21.672  0.00  0.00    +0.151 HD
ATOM     27  H   UNL     1      35.550 -16.617 -20.992  0.00  0.00    +0.178 HD
BRANCH  24  28
ATOM     28  S   UNL     1      36.447 -18.549 -21.941  0.00  0.00    +0.077 S 
ATOM     29  O   UNL     1      36.364 -19.083 -23.287  0.00  0.00    -0.150 OA
ATOM     30  O   UNL     1      37.734 -18.386 -21.292  0.00  0.00    -0.150 OA
BRANCH  28  31
ATOM     31  C   UNL     1      35.467 -19.570 -20.882  0.00  0.00    +0.125 C 
ATOM     32  C   UNL     1      34.089 -19.546 -21.005  0.00  0.00    +0.020 C 
ATOM     33  C   UNL     1      36.097 -20.375 -19.949  0.00  0.00    +0.020 C 
ATOM     34  C   UNL     1      33.934 -21.170 -19.223  0.00  0.00    -0.022 C 
ATOM     35  C   UNL     1      33.316 -20.353 -20.168  0.00  0.00    -0.003 C 
ATOM     36  C   UNL     1      35.324 -21.182 -19.113  0.00  0.00    -0.003 C 
ATOM     37  C   UNL     1      33.108 -22.033 -18.330  0.00  0.00    +0.031 C 
ENDBRANCH  28  31
ENDBRANCH  24  28
ENDBRANCH  21  23
ENDBRANCH  20  21
ENDBRANCH   2  20
TORSDOF 7
ENDMDL
MODEL 6
REMARK VINA RESULT:     -11.6      4.838     12.051
REMARK  Name = 11677589
REMARK  7 active torsions:
REMARK  status: ('A' for Active; 'I' for Inactive)
REMARK    1  A    between atoms: C_1  and  N_7
REMARK    2  A    between atoms: C_2  and  C_20
REMARK    3  A    between atoms: C_11  and  C_18
REMARK    4  A    between atoms: C_20  and  C_21
REMARK    5  A    between atoms: C_21  and  N_23
REMARK    6  A    between atoms: N_24  and  S_28
REMARK    7  A    between atoms: S_28  and  C_31
REMARK                            x       y       z     vdW  Elec       q    Type
REMARK                         _______ _______ _______ _____ _____    ______ ____
ROOT
ATOM      1  C   UNL     1      35.298 -18.386 -21.838  0.00  0.00    +0.058 C 
ATOM      2  C   UNL     1      36.195 -20.229 -19.965  0.00  0.00    -0.020 C 
ATOM      3  C   UNL     1      34.395 -19.263 -21.253  0.00  0.00    +0.015 C 
ATOM      4  C   UNL     1      36.645 -18.417 -21.498  0.00  0.00    +0.015 C 
ATOM      5  C   UNL     1      34.846 -20.189 -20.312  0.00  0.00    -0.003 C 
ATOM      6  C   UNL     1      37.096 -19.343 -20.558  0.00  0.00    -0.003 C 
ENDROOT
BRANCH   1   7
ATOM      7  N   UNL     1      34.848 -17.459 -22.779  0.00  0.00    -0.242 N 
ATOM      8  N   UNL     1      34.182 -16.632 -24.732  0.00  0.00    -0.387 NA
ATOM      9  N   UNL     1      33.894 -13.493 -22.786  0.00  0.00    -0.408 NA
ATOM     10  C   UNL     1      34.585 -16.134 -22.545  0.00  0.00    +0.091 C 
ATOM     11  C   UNL     1      34.592 -17.708 -24.099  0.00  0.00    +0.168 C 
ATOM     12  C   UNL     1      34.171 -15.641 -23.779  0.00  0.00    +0.172 C 
ATOM     13  C   UNL     1      34.670 -15.348 -21.404  0.00  0.00    +0.045 C 
ATOM     14  C   UNL     1      33.823 -14.294 -23.878  0.00  0.00    +0.140 C 
ATOM     15  C   UNL     1      34.303 -14.026 -21.608  0.00  0.00    +0.110 C 
ATOM     16  C   UNL     1      33.367 -13.660 -25.149  0.00  0.00    +0.069 C 
ATOM     17  C   UNL     1      34.355 -13.085 -20.448  0.00  0.00    +0.066 C 
BRANCH  11  18
ATOM     18  C   UNL     1      34.768 -19.045 -24.707  0.00  0.00    +0.075 C 
ATOM     19  C   UNL     1      33.477 -19.870 -24.704  0.00  0.00    +0.009 C 
ENDBRANCH  11  18
ENDBRANCH   1   7
BRANCH   2  20
ATOM     20  C   UNL     1      36.677 -21.220 -18.959  0.00  0.00    +0.048 C 
BRANCH  20  21
ATOM     21  C   UNL     1      35.571 -21.742 -18.034  0.00  0.00    +0.096 C 
BRANCH  21  23
ATOM     22  O   UNL     1      34.845 -23.758 -16.122  0.00  0.00    -0.251 OA
ATOM     23  N   UNL     1      36.001 -21.829 -16.665  0.00  0.00    -0.287 N 
ATOM     24  N   UNL     1      36.155 -22.710 -14.495  0.00  0.00    -0.169 N 
ATOM     25  C   UNL     1      35.599 -22.841 -15.808  0.00  0.00    +0.319 C 
ATOM     26  H   UNL     1      36.609 -21.137 -16.319  0.00  0.00    +0.151 HD
ATOM     27  H   UNL     1      36.747 -21.941 -14.331  0.00  0.00    +0.178 HD
BRANCH  24  28
ATOM     28  S   UNL     1      35.873 -23.777 -13.191  0.00  0.00    +0.077 S 
ATOM     29  O   UNL     1      36.270 -23.136 -11.951  0.00  0.00    -0.150 OA
ATOM     30  O   UNL     1      34.553 -24.361 -13.326  0.00  0.00    -0.150 OA
BRANCH  28  31
ATOM     31  C   UNL     1      37.037 -25.059 -13.545  0.00  0.00    +0.125 C 
ATOM     32  C   UNL     1      36.630 -26.159 -14.280  0.00  0.00    +0.020 C 
ATOM     33  C   UNL     1      38.336 -24.940 -13.080  0.00  0.00    +0.020 C 
ATOM     34  C   UNL     1      38.861 -27.067 -14.100  0.00  0.00    -0.022 C 
ATOM     35  C   UNL     1      37.549 -27.170 -14.560  0.00  0.00    -0.003 C 
ATOM     36  C   UNL     1      39.255 -25.952 -13.360  0.00  0.00    -0.003 C 
ATOM     37  C   UNL     1      39.843 -28.147 -14.400  0.00  0.00    +0.031 C 
ENDBRANCH  28  31
ENDBRANCH  24  28
ENDBRANCH  21  23
ENDBRANCH  20  21
ENDBRANCH   2  20
TORSDOF 7
ENDMDL
MODEL 7
REMARK VINA RESULT:     -11.5      3.144      5.541
REMARK  Name = 11677589
REMARK  7 active torsions:
REMARK  status: ('A' for Active; 'I' for Inactive)
REMARK    1  A    between atoms: C_1  and  N_7
REMARK    2  A    between atoms: C_2  and  C_20
REMARK    3  A    between atoms: C_11  and  C_18
REMARK    4  A    between atoms: C_20  and  C_21
REMARK    5  A    between atoms: C_21  and  N_23
REMARK    6  A    between atoms: N_24  and  S_28
REMARK    7  A    between atoms: S_28  and  C_31
REMARK                            x       y       z     vdW  Elec       q    Type
REMARK                         _______ _______ _______ _____ _____    ______ ____
ROOT
ATOM      1  C   UNL     1      36.763 -24.638 -14.205  0.00  0.00    +0.058 C 
ATOM      2  C   UNL     1      36.314 -22.627 -16.066  0.00  0.00    -0.020 C 
ATOM      3  C   UNL     1      37.831 -23.876 -14.660  0.00  0.00    +0.015 C 
ATOM      4  C   UNL     1      35.474 -24.409 -14.667  0.00  0.00    +0.015 C 
ATOM      5  C   UNL     1      37.605 -22.865 -15.595  0.00  0.00    -0.003 C 
ATOM      6  C   UNL     1      35.248 -23.399 -15.603  0.00  0.00    -0.003 C 
ENDROOT
BRANCH   1   7
ATOM      7  N   UNL     1      36.988 -25.650 -13.270  0.00  0.00    -0.242 N 
ATOM      8  N   UNL     1      37.235 -26.642 -11.295  0.00  0.00    -0.387 NA
ATOM      9  N   UNL     1      37.793 -29.646 -13.389  0.00  0.00    -0.408 NA
ATOM     10  C   UNL     1      37.247 -26.966 -13.551  0.00  0.00    +0.091 C 
ATOM     11  C   UNL     1      36.991 -25.506 -11.910  0.00  0.00    +0.168 C 
ATOM     12  C   UNL     1      37.397 -27.563 -12.303  0.00  0.00    +0.172 C 
ATOM     13  C   UNL     1      37.360 -27.665 -14.745  0.00  0.00    +0.045 C 
ATOM     14  C   UNL     1      37.674 -28.929 -12.244  0.00  0.00    +0.140 C 
ATOM     15  C   UNL     1      37.637 -29.014 -14.579  0.00  0.00    +0.110 C 
ATOM     16  C   UNL     1      37.855 -29.671 -10.963  0.00  0.00    +0.069 C 
ATOM     17  C   UNL     1      37.781 -29.868 -15.797  0.00  0.00    +0.066 C 
BRANCH  11  18
ATOM     18  C   UNL     1      36.745 -24.208 -11.245  0.00  0.00    +0.075 C 
ATOM     19  C   UNL     1      35.939 -24.351  -9.949  0.00  0.00    +0.009 C 
ENDBRANCH  11  18
ENDBRANCH   1   7
BRANCH   2  20
ATOM     20  C   UNL     1      36.073 -21.547 -17.066  0.00  0.00    +0.048 C 
BRANCH  20  21
ATOM     21  C   UNL     1      34.972 -21.884 -18.078  0.00  0.00    +0.096 C 
BRANCH  21  23
ATOM     22  O   UNL     1      36.621 -21.058 -20.280  0.00  0.00    -0.251 OA
ATOM     23  N   UNL     1      34.718 -20.801 -18.990  0.00  0.00    -0.287 N 
ATOM     24  N   UNL     1      35.108 -19.354 -20.795  0.00  0.00    -0.169 N 
ATOM     25  C   UNL     1      35.572 -20.471 -20.030  0.00  0.00    +0.319 C 
ATOM     26  H   UNL     1      33.899 -20.268 -18.869  0.00  0.00    +0.151 HD
ATOM     27  H   UNL     1      34.257 -18.941 -20.520  0.00  0.00    +0.178 HD
BRANCH  24  28
ATOM     28  S   UNL     1      35.909 -18.679 -22.145  0.00  0.00    +0.077 S 
ATOM     29  O   UNL     1      37.329 -18.590 -21.867  0.00  0.00    -0.150 OA
ATOM     30  O   UNL     1      35.435 -19.323 -23.355  0.00  0.00    -0.150 OA
BRANCH  28  31
ATOM     31  C   UNL     1      35.246 -17.040 -22.147  0.00  0.00    +0.125 C 
ATOM     32  C   UNL     1      34.951 -16.431 -23.355  0.00  0.00    +0.020 C 
ATOM     33  C   UNL     1      35.033 -16.396 -20.941  0.00  0.00    +0.020 C 
ATOM     34  C   UNL     1      34.207 -14.474 -22.149  0.00  0.00    -0.022 C 
ATOM     35  C   UNL     1      34.427 -15.138 -23.355  0.00  0.00    -0.003 C 
ATOM     36  C   UNL     1      34.509 -15.103 -20.941  0.00  0.00    -0.003 C 
ATOM     37  C   UNL     1      33.646 -13.093 -22.150  0.00  0.00    +0.031 C 
ENDBRANCH  28  31
ENDBRANCH  24  28
ENDBRANCH  21  23
ENDBRANCH  20  21
ENDBRANCH   2  20
TORSDOF 7
ENDMDL
MODEL 8
REMARK VINA RESULT:     -11.4      4.097     11.312
REMARK  Name = 11677589
REMARK  7 active torsions:
REMARK  status: ('A' for Active; 'I' for Inactive)
REMARK    1  A    between atoms: C_1  and  N_7
REMARK    2  A    between atoms: C_2  and  C_20
REMARK    3  A    between atoms: C_11  and  C_18
REMARK    4  A    between atoms: C_20  and  C_21
REMARK    5  A    between atoms: C_21  and  N_23
REMARK    6  A    between atoms: N_24  and  S_28
REMARK    7  A    between atoms: S_28  and  C_31
REMARK                            x       y       z     vdW  Elec       q    Type
REMARK                         _______ _______ _______ _____ _____    ______ ____
ROOT
ATOM      1  C   UNL     1      35.239 -18.357 -21.804  0.00  0.00    +0.058 C 
ATOM      2  C   UNL     1      36.062 -20.160 -19.860  0.00  0.00    -0.020 C 
ATOM      3  C   UNL     1      34.309 -19.210 -21.223  0.00  0.00    +0.015 C 
ATOM      4  C   UNL     1      36.574 -18.393 -21.426  0.00  0.00    +0.015 C 
ATOM      5  C   UNL     1      34.723 -20.116 -20.247  0.00  0.00    -0.003 C 
ATOM      6  C   UNL     1      36.988 -19.300 -20.449  0.00  0.00    -0.003 C 
ENDROOT
BRANCH   1   7
ATOM      7  N   UNL     1      34.826 -17.451 -22.782  0.00  0.00    -0.242 N 
ATOM      8  N   UNL     1      34.222 -16.668 -24.773  0.00  0.00    -0.387 NA
ATOM      9  N   UNL     1      33.922 -13.476 -22.919  0.00  0.00    -0.408 NA
ATOM     10  C   UNL     1      34.574 -16.117 -22.590  0.00  0.00    +0.091 C 
ATOM     11  C   UNL     1      34.601 -17.732 -24.101  0.00  0.00    +0.168 C 
ATOM     12  C   UNL     1      34.199 -15.652 -23.848  0.00  0.00    +0.172 C 
ATOM     13  C   UNL     1      34.638 -15.302 -21.469  0.00  0.00    +0.045 C 
ATOM     14  C   UNL     1      33.871 -14.304 -23.992  0.00  0.00    +0.140 C 
ATOM     15  C   UNL     1      34.294 -13.981 -21.717  0.00  0.00    +0.110 C 
ATOM     16  C   UNL     1      33.456 -13.699 -25.290  0.00  0.00    +0.069 C 
ATOM     17  C   UNL     1      34.327 -13.010 -20.581  0.00  0.00    +0.066 C 
BRANCH  11  18
ATOM     18  C   UNL     1      34.777 -19.087 -24.668  0.00  0.00    +0.075 C 
ATOM     19  C   UNL     1      33.465 -19.877 -24.726  0.00  0.00    +0.009 C 
ENDBRANCH  11  18
ENDBRANCH   1   7
BRANCH   2  20
ATOM     20  C   UNL     1      36.504 -21.129 -18.816  0.00  0.00    +0.048 C 
BRANCH  20  21
ATOM     21  C   UNL     1      35.372 -22.014 -18.282  0.00  0.00    +0.096 C 
BRANCH  21  23
ATOM     22  O   UNL     1      34.102 -24.022 -16.666  0.00  0.00    -0.251 OA
ATOM     23  N   UNL     1      35.375 -22.098 -16.846  0.00  0.00    -0.287 N 
ATOM     24  N   UNL     1      34.874 -22.970 -14.726  0.00  0.00    -0.169 N 
ATOM     25  C   UNL     1      34.733 -23.106 -16.144  0.00  0.00    +0.319 C 
ATOM     26  H   UNL     1      35.855 -21.405 -16.337  0.00  0.00    +0.151 HD
ATOM     27  H   UNL     1      35.393 -22.202 -14.396  0.00  0.00    +0.178 HD
BRANCH  24  28
ATOM     28  S   UNL     1      34.213 -24.032 -13.561  0.00  0.00    +0.077 S 
ATOM     29  O   UNL     1      34.668 -25.383 -13.829  0.00  0.00    -0.150 OA
ATOM     30  O   UNL     1      34.370 -23.451 -12.241  0.00  0.00    -0.150 OA
BRANCH  28  31
ATOM     31  C   UNL     1      32.493 -23.942 -13.958  0.00  0.00    +0.125 C 
ATOM     32  C   UNL     1      31.947 -22.724 -14.326  0.00  0.00    +0.020 C 
ATOM     33  C   UNL     1      31.724 -25.090 -13.894  0.00  0.00    +0.020 C 
ATOM     34  C   UNL     1      29.799 -23.801 -14.580  0.00  0.00    -0.022 C 
ATOM     35  C   UNL     1      30.589 -22.653 -14.639  0.00  0.00    -0.003 C 
ATOM     36  C   UNL     1      30.366 -25.020 -14.207  0.00  0.00    -0.003 C 
ATOM     37  C   UNL     1      28.349 -23.725 -14.916  0.00  0.00    +0.031 C 
ENDBRANCH  28  31
ENDBRANCH  24  28
ENDBRANCH  21  23
ENDBRANCH  20  21
ENDBRANCH   2  20
TORSDOF 7
ENDMDL
MODEL 9
REMARK VINA RESULT:     -11.3      4.233     12.898
REMARK  Name = 11677589
REMARK  7 active torsions:
REMARK  status: ('A' for Active; 'I' for Inactive)
REMARK    1  A    between atoms: C_1  and  N_7
REMARK    2  A    between atoms: C_2  and  C_20
REMARK    3  A    between atoms: C_11  and  C_18
REMARK    4  A    between atoms: C_20  and  C_21
REMARK    5  A    between atoms: C_21  and  N_23
REMARK    6  A    between atoms: N_24  and  S_28
REMARK    7  A    between atoms: S_28  and  C_31
REMARK                            x       y       z     vdW  Elec       q    Type
REMARK                         _______ _______ _______ _____ _____    ______ ____
ROOT
ATOM      1  C   UNL     1      33.131 -10.694 -22.919  0.00  0.00    +0.058 C 
ATOM      2  C   UNL     1      33.897 -13.103 -24.070  0.00  0.00    -0.020 C 
ATOM      3  C   UNL     1      33.168 -11.844 -22.141  0.00  0.00    +0.015 C 
ATOM      4  C   UNL     1      33.473 -10.732 -24.265  0.00  0.00    +0.015 C 
ATOM      5  C   UNL     1      33.552 -13.054 -22.720  0.00  0.00    -0.003 C 
ATOM      6  C   UNL     1      33.857 -11.942 -24.843  0.00  0.00    -0.003 C 
ENDROOT
BRANCH   1   7
ATOM      7  N   UNL     1      32.746  -9.483 -22.342  0.00  0.00    -0.242 N 
ATOM      8  N   UNL     1      31.756  -8.065 -20.945  0.00  0.00    -0.387 NA
ATOM      9  N   UNL     1      33.430  -5.528 -23.063  0.00  0.00    -0.408 NA
ATOM     10  C   UNL     1      33.112  -8.234 -22.769  0.00  0.00    +0.091 C 
ATOM     11  C   UNL     1      31.937  -9.331 -21.250  0.00  0.00    +0.168 C 
ATOM     12  C   UNL     1      32.481  -7.367 -21.882  0.00  0.00    +0.172 C 
ATOM     13  C   UNL     1      33.910  -7.797 -23.817  0.00  0.00    +0.045 C 
ATOM     14  C   UNL     1      32.657  -5.993 -22.050  0.00  0.00    +0.140 C 
ATOM     15  C   UNL     1      34.021  -6.416 -23.898  0.00  0.00    +0.110 C 
ATOM     16  C   UNL     1      32.030  -4.975 -21.159  0.00  0.00    +0.069 C 
ATOM     17  C   UNL     1      34.857  -5.831 -24.990  0.00  0.00    +0.066 C 
BRANCH  11  18
ATOM     18  C   UNL     1      31.352 -10.479 -20.524  0.00  0.00    +0.075 C 
ATOM     19  C   UNL     1      31.677 -10.458 -19.027  0.00  0.00    +0.009 C 
ENDBRANCH  11  18
ENDBRANCH   1   7
BRANCH   2  20
ATOM     20  C   UNL     1      34.308 -14.397 -24.688  0.00  0.00    +0.048 C 
BRANCH  20  21
ATOM     21  C   UNL     1      33.481 -15.595 -24.207  0.00  0.00    +0.096 C 
BRANCH  21  23
ATOM     22  O   UNL     1      34.980 -15.944 -21.782  0.00  0.00    -0.251 OA
ATOM     23  N   UNL     1      34.305 -16.720 -23.854  0.00  0.00    -0.287 N 
ATOM     24  N   UNL     1      35.750 -18.017 -22.537  0.00  0.00    -0.169 N 
ATOM     25  C   UNL     1      34.996 -16.805 -22.656  0.00  0.00    +0.319 C 
ATOM     26  H   UNL     1      34.382 -17.464 -24.493  0.00  0.00    +0.151 HD
ATOM     27  H   UNL     1      35.708 -18.650 -23.289  0.00  0.00    +0.178 HD
BRANCH  24  28
ATOM     28  S   UNL     1      36.717 -18.452 -21.197  0.00  0.00    +0.077 S 
ATOM     29  O   UNL     1      37.926 -19.102 -21.667  0.00  0.00    -0.150 OA
ATOM     30  O   UNL     1      36.794 -17.332 -20.278  0.00  0.00    -0.150 OA
BRANCH  28  31
ATOM     31  C   UNL     1      35.699 -19.674 -20.427  0.00  0.00    +0.125 C 
ATOM     32  C   UNL     1      34.331 -19.645 -20.638  0.00  0.00    +0.020 C 
ATOM     33  C   UNL     1      36.287 -20.639 -19.628  0.00  0.00    +0.020 C 
ATOM     34  C   UNL     1      34.104 -21.589 -19.222  0.00  0.00    -0.022 C 
ATOM     35  C   UNL     1      33.527 -20.611 -20.031  0.00  0.00    -0.003 C 
ATOM     36  C   UNL     1      35.484 -21.604 -19.021  0.00  0.00    -0.003 C 
ATOM     37  C   UNL     1      33.245 -22.622 -18.575  0.00  0.00    +0.031 C 
ENDBRANCH  28  31
ENDBRANCH  24  28
ENDBRANCH  21  23
ENDBRANCH  20  21
ENDBRANCH   2  20
TORSDOF 7
ENDMDL
