MODEL 1
REMARK VINA RESULT:     -11.9      0.000      0.000
REMARK  Name = 448408
REMARK  8 active torsions:
REMARK  status: ('A' for Active; 'I' for Inactive)
REMARK    1  A    between atoms: N_2  and  C_25
REMARK    2  A    between atoms: C_3  and  C_6
REMARK    3  A    between atoms: C_5  and  N_12
REMARK    4  A    between atoms: C_25  and  C_26
REMARK    5  A    between atoms: C_27  and  S_32
REMARK    6  A    between atoms: S_32  and  C_33
REMARK    7  A    between atoms: C_34  and  C_39
REMARK    8  A    between atoms: C_39  and  O_40
REMARK                            x       y       z     vdW  Elec       q    Type
REMARK                         _______ _______ _______ _____ _____    ______ ____
ROOT
ATOM      1  O   UNL     1      33.420 -13.848 -21.322  0.00  0.00    -0.270 OA
ATOM      2  N   UNL     1      34.868 -14.791 -22.868  0.00  0.00    -0.297 N 
ATOM      3  C   UNL     1      34.017 -13.778 -22.411  0.00  0.00    +0.246 C 
ATOM      4  H   UNL     1      35.309 -14.670 -23.740  0.00  0.00    +0.150 HD
ENDROOT
BRANCH   3   6
ATOM      5  C   UNL     1      33.523 -10.230 -23.561  0.00  0.00    +0.090 C 
ATOM      6  C   UNL     1      33.834 -12.627 -23.281  0.00  0.00    +0.055 C 
ATOM      7  C   UNL     1      33.701 -11.351 -22.733  0.00  0.00    +0.023 C 
ATOM      8  C   UNL     1      33.479 -10.421 -24.952  0.00  0.00    +0.018 C 
ATOM      9  C   UNL     1      33.788 -12.800 -24.665  0.00  0.00    +0.005 C 
ATOM     10  C   UNL     1      33.611 -11.698 -25.500  0.00  0.00    +0.002 C 
BRANCH   5  12
ATOM     11  O   UNL     1      32.443  -7.677 -19.167  0.00  0.00    -0.207 OA
ATOM     12  N   UNL     1      33.392  -8.958 -23.015  0.00  0.00    -0.137 N 
ATOM     13  N   UNL     1      32.867  -7.885 -23.664  0.00  0.00    -0.215 N 
ATOM     14  N   UNL     1      33.235  -8.843 -21.635  0.00  0.00    -0.143 NA
ATOM     15  N   UNL     1      31.750  -5.905 -22.731  0.00  0.00    -0.309 NA
ATOM     16  N   UNL     1      31.564  -5.871 -20.324  0.00  0.00    -0.251 NA
ATOM     17  N   UNL     1      30.723  -4.121 -21.582  0.00  0.00    -0.283 N 
ATOM     18  C   UNL     1      32.351  -7.035 -22.741  0.00  0.00    +0.243 C 
ATOM     19  C   UNL     1      32.622  -7.713 -21.464  0.00  0.00    +0.241 C 
ATOM     20  C   UNL     1      32.201  -7.083 -20.207  0.00  0.00    +0.239 C 
ATOM     21  C   UNL     1      31.363  -5.337 -21.513  0.00  0.00    +0.208 C 
ATOM     22  H   UNL     1      32.862  -7.749 -24.639  0.00  0.00    +0.175 HD
ATOM     23  H   UNL     1      30.560  -3.698 -22.456  0.00  0.00    +0.156 HD
ATOM     24  H   UNL     1      30.428  -3.673 -20.756  0.00  0.00    +0.156 HD
ENDBRANCH   5  12
ENDBRANCH   3   6
BRANCH   2  25
ATOM     25  C   UNL     1      35.133 -16.006 -22.130  0.00  0.00    +0.117 C 
BRANCH  25  26
ATOM     26  C   UNL     1      34.805 -17.232 -22.932  0.00  0.00    +0.003 C 
ATOM     27  C   UNL     1      35.145 -18.508 -22.492  0.00  0.00    +0.027 C 
ATOM     28  C   UNL     1      34.143 -17.058 -24.143  0.00  0.00    -0.002 C 
ATOM     29  C   UNL     1      34.821 -19.618 -23.271  0.00  0.00    +0.006 C 
ATOM     30  C   UNL     1      33.818 -18.168 -24.922  0.00  0.00    -0.000 C 
ATOM     31  C   UNL     1      34.157 -19.448 -24.486  0.00  0.00    +0.000 C 
BRANCH  27  32
ATOM     32  S   UNL     1      35.996 -18.778 -20.943  0.00  0.00    -0.087 S 
BRANCH  32  33
ATOM     33  C   UNL     1      34.917 -19.968 -20.162  0.00  0.00    +0.028 C 
ATOM     34  C   UNL     1      35.411 -20.965 -19.317  0.00  0.00    +0.013 C 
ATOM     35  C   UNL     1      33.546 -19.886 -20.413  0.00  0.00    +0.006 C 
ATOM     36  C   UNL     1      34.536 -21.876 -18.726  0.00  0.00    -0.001 C 
ATOM     37  C   UNL     1      32.672 -20.798 -19.822  0.00  0.00    +0.000 C 
ATOM     38  C   UNL     1      33.166 -21.793 -18.979  0.00  0.00    -0.000 C 
BRANCH  34  39
ATOM     39  C   UNL     1      36.869 -21.095 -19.016  0.00  0.00    +0.164 C 
BRANCH  39  40
ATOM     40  O   UNL     1      37.101 -20.730 -17.662  0.00  0.00    -0.377 OA
ATOM     41  H   UNL     1      36.606 -21.325 -17.077  0.00  0.00    +0.211 HD
ENDBRANCH  39  40
ENDBRANCH  34  39
ENDBRANCH  32  33
ENDBRANCH  27  32
ENDBRANCH  25  26
ENDBRANCH   2  25
TORSDOF 8
ENDMDL
MODEL 2
REMARK VINA RESULT:     -11.7      3.608     11.697
REMARK  Name = 448408
REMARK  8 active torsions:
REMARK  status: ('A' for Active; 'I' for Inactive)
REMARK    1  A    between atoms: N_2  and  C_25
REMARK    2  A    between atoms: C_3  and  C_6
REMARK    3  A    between atoms: C_5  and  N_12
REMARK    4  A    between atoms: C_25  and  C_26
REMARK    5  A    between atoms: C_27  and  S_32
REMARK    6  A    between atoms: S_32  and  C_33
REMARK    7  A    between atoms: C_34  and  C_39
REMARK    8  A    between atoms: C_39  and  O_40
REMARK                            x       y       z     vdW  Elec       q    Type
REMARK                         _______ _______ _______ _____ _____    ______ ____
ROOT
ATOM      1  O   UNL     1      34.569 -13.930 -21.005  0.00  0.00    -0.270 OA
ATOM      2  N   UNL     1      33.103 -13.414 -22.725  0.00  0.00    -0.297 N 
ATOM      3  C   UNL     1      34.026 -14.244 -22.079  0.00  0.00    +0.246 C 
ATOM      4  H   UNL     1      32.712 -13.725 -23.574  0.00  0.00    +0.150 HD
ENDROOT
BRANCH   3   6
ATOM      5  C   UNL     1      35.006 -17.842 -22.584  0.00  0.00    +0.090 C 
ATOM      6  C   UNL     1      34.354 -15.501 -22.732  0.00  0.00    +0.055 C 
ATOM      7  C   UNL     1      34.686 -16.620 -21.967  0.00  0.00    +0.023 C 
ATOM      8  C   UNL     1      34.985 -17.913 -23.987  0.00  0.00    +0.018 C 
ATOM      9  C   UNL     1      34.338 -15.589 -24.125  0.00  0.00    +0.005 C 
ATOM     10  C   UNL     1      34.653 -16.793 -24.752  0.00  0.00    +0.002 C 
BRANCH   5  12
ATOM     11  O   UNL     1      32.994 -21.580 -19.589  0.00  0.00    -0.207 OA
ATOM     12  N   UNL     1      35.335 -18.956 -21.821  0.00  0.00    -0.137 N 
ATOM     13  N   UNL     1      36.456 -19.073 -21.061  0.00  0.00    -0.215 N 
ATOM     14  N   UNL     1      34.302 -19.748 -21.325  0.00  0.00    -0.143 NA
ATOM     15  N   UNL     1      36.830 -20.433 -19.049  0.00  0.00    -0.309 NA
ATOM     16  N   UNL     1      34.933 -21.742 -18.330  0.00  0.00    -0.251 NA
ATOM     17  N   UNL     1      36.921 -21.825 -17.149  0.00  0.00    -0.283 N 
ATOM     18  C   UNL     1      36.201 -19.937 -20.049  0.00  0.00    +0.243 C 
ATOM     19  C   UNL     1      34.802 -20.330 -20.280  0.00  0.00    +0.241 C 
ATOM     20  C   UNL     1      34.157 -21.279 -19.365  0.00  0.00    +0.239 C 
ATOM     21  C   UNL     1      36.180 -21.334 -18.200  0.00  0.00    +0.208 C 
ATOM     22  H   UNL     1      37.310 -18.607 -21.220  0.00  0.00    +0.175 HD
ATOM     23  H   UNL     1      37.855 -21.539 -17.027  0.00  0.00    +0.156 HD
ATOM     24  H   UNL     1      36.516 -22.463 -16.518  0.00  0.00    +0.156 HD
ENDBRANCH   5  12
ENDBRANCH   3   6
BRANCH   2  25
ATOM     25  C   UNL     1      32.694 -12.125 -22.216  0.00  0.00    +0.117 C 
BRANCH  25  26
ATOM     26  C   UNL     1      33.337 -10.995 -22.966  0.00  0.00    +0.003 C 
ATOM     27  C   UNL     1      32.942  -9.673 -22.781  0.00  0.00    +0.027 C 
ATOM     28  C   UNL     1      34.353 -11.307 -23.864  0.00  0.00    -0.002 C 
ATOM     29  C   UNL     1      33.568  -8.656 -23.501  0.00  0.00    +0.006 C 
ATOM     30  C   UNL     1      34.979 -10.290 -24.584  0.00  0.00    -0.000 C 
ATOM     31  C   UNL     1      34.587  -8.964 -24.402  0.00  0.00    +0.000 C 
BRANCH  27  32
ATOM     32  S   UNL     1      31.642  -9.226 -21.638  0.00  0.00    -0.087 S 
BRANCH  32  33
ATOM     33  C   UNL     1      31.625  -7.449 -21.815  0.00  0.00    +0.028 C 
ATOM     34  C   UNL     1      31.938  -6.601 -20.750  0.00  0.00    +0.013 C 
ATOM     35  C   UNL     1      31.287  -6.909 -23.057  0.00  0.00    +0.006 C 
ATOM     36  C   UNL     1      31.915  -5.218 -20.928  0.00  0.00    -0.001 C 
ATOM     37  C   UNL     1      31.263  -5.525 -23.234  0.00  0.00    +0.000 C 
ATOM     38  C   UNL     1      31.577  -4.680 -22.169  0.00  0.00    -0.000 C 
BRANCH  34  39
ATOM     39  C   UNL     1      32.307  -7.129 -19.401  0.00  0.00    +0.164 C 
BRANCH  39  40
ATOM     40  O   UNL     1      33.664  -6.808 -19.127  0.00  0.00    -0.377 OA
ATOM     41  H   UNL     1      34.164  -6.783 -19.957  0.00  0.00    +0.211 HD
ENDBRANCH  39  40
ENDBRANCH  34  39
ENDBRANCH  32  33
ENDBRANCH  27  32
ENDBRANCH  25  26
ENDBRANCH   2  25
TORSDOF 8
ENDMDL
MODEL 3
REMARK VINA RESULT:     -11.6      1.528      2.017
REMARK  Name = 448408
REMARK  8 active torsions:
REMARK  status: ('A' for Active; 'I' for Inactive)
REMARK    1  A    between atoms: N_2  and  C_25
REMARK    2  A    between atoms: C_3  and  C_6
REMARK    3  A    between atoms: C_5  and  N_12
REMARK    4  A    between atoms: C_25  and  C_26
REMARK    5  A    between atoms: C_27  and  S_32
REMARK    6  A    between atoms: S_32  and  C_33
REMARK    7  A    between atoms: C_34  and  C_39
REMARK    8  A    between atoms: C_39  and  O_40
REMARK                            x       y       z     vdW  Elec       q    Type
REMARK                         _______ _______ _______ _____ _____    ______ ____
ROOT
ATOM      1  O   UNL     1      34.925 -13.752 -23.548  0.00  0.00    -0.270 OA
ATOM      2  N   UNL     1      34.654 -15.129 -21.703  0.00  0.00    -0.297 N 
ATOM      3  C   UNL     1      34.370 -13.986 -22.460  0.00  0.00    +0.246 C 
ATOM      4  H   UNL     1      34.177 -15.251 -20.850  0.00  0.00    +0.150 HD
ENDROOT
BRANCH   3   6
ATOM      5  C   UNL     1      32.319 -10.872 -21.955  0.00  0.00    +0.090 C 
ATOM      6  C   UNL     1      33.403 -13.051 -21.908  0.00  0.00    +0.055 C 
ATOM      7  C   UNL     1      33.250 -11.787 -22.478  0.00  0.00    +0.023 C 
ATOM      8  C   UNL     1      31.547 -11.258 -20.847  0.00  0.00    +0.018 C 
ATOM      9  C   UNL     1      32.627 -13.419 -20.807  0.00  0.00    +0.005 C 
ATOM     10  C   UNL     1      31.700 -12.523 -20.277  0.00  0.00    +0.002 C 
BRANCH   5  12
ATOM     11  O   UNL     1      34.890  -6.543 -23.236  0.00  0.00    -0.207 OA
ATOM     12  N   UNL     1      32.166  -9.613 -22.524  0.00  0.00    -0.137 N 
ATOM     13  N   UNL     1      31.080  -8.813 -22.357  0.00  0.00    -0.215 N 
ATOM     14  N   UNL     1      33.310  -8.864 -22.791  0.00  0.00    -0.143 NA
ATOM     15  N   UNL     1      30.927  -6.363 -22.471  0.00  0.00    -0.309 NA
ATOM     16  N   UNL     1      33.004  -5.227 -22.944  0.00  0.00    -0.251 NA
ATOM     17  N   UNL     1      31.058  -4.015 -22.635  0.00  0.00    -0.283 N 
ATOM     18  C   UNL     1      31.468  -7.523 -22.509  0.00  0.00    +0.243 C 
ATOM     19  C   UNL     1      32.909  -7.631 -22.785  0.00  0.00    +0.241 C 
ATOM     20  C   UNL     1      33.696  -6.413 -23.011  0.00  0.00    +0.239 C 
ATOM     21  C   UNL     1      31.710  -5.226 -22.691  0.00  0.00    +0.208 C 
ATOM     22  H   UNL     1      30.165  -9.120 -22.159  0.00  0.00    +0.175 HD
ATOM     23  H   UNL     1      30.092  -3.984 -22.448  0.00  0.00    +0.156 HD
ATOM     24  H   UNL     1      31.558  -3.180 -22.782  0.00  0.00    +0.156 HD
ENDBRANCH   5  12
ENDBRANCH   3   6
BRANCH   2  25
ATOM     25  C   UNL     1      35.608 -16.138 -22.104  0.00  0.00    +0.117 C 
BRANCH  25  26
ATOM     26  C   UNL     1      34.958 -17.249 -22.876  0.00  0.00    +0.003 C 
ATOM     27  C   UNL     1      35.101 -18.582 -22.503  0.00  0.00    +0.027 C 
ATOM     28  C   UNL     1      34.198 -16.907 -23.991  0.00  0.00    -0.002 C 
ATOM     29  C   UNL     1      34.480 -19.581 -23.251  0.00  0.00    +0.006 C 
ATOM     30  C   UNL     1      33.577 -17.906 -24.739  0.00  0.00    -0.000 C 
ATOM     31  C   UNL     1      33.717 -19.243 -24.370  0.00  0.00    +0.000 C 
BRANCH  27  32
ATOM     32  S   UNL     1      36.067 -19.066 -21.079  0.00  0.00    -0.087 S 
BRANCH  32  33
ATOM     33  C   UNL     1      34.896 -20.091 -20.202  0.00  0.00    +0.028 C 
ATOM     34  C   UNL     1      35.308 -21.051 -19.275  0.00  0.00    +0.013 C 
ATOM     35  C   UNL     1      33.536 -19.915 -20.462  0.00  0.00    +0.006 C 
ATOM     36  C   UNL     1      34.363 -21.831 -18.610  0.00  0.00    -0.001 C 
ATOM     37  C   UNL     1      32.590 -20.696 -19.797  0.00  0.00    +0.000 C 
ATOM     38  C   UNL     1      33.004 -21.654 -18.871  0.00  0.00    -0.000 C 
BRANCH  34  39
ATOM     39  C   UNL     1      36.752 -21.278 -18.961  0.00  0.00    +0.164 C 
BRANCH  39  40
ATOM     40  O   UNL     1      36.998 -20.922 -17.607  0.00  0.00    -0.377 OA
ATOM     41  H   UNL     1      36.345 -21.356 -17.036  0.00  0.00    +0.211 HD
ENDBRANCH  39  40
ENDBRANCH  34  39
ENDBRANCH  32  33
ENDBRANCH  27  32
ENDBRANCH  25  26
ENDBRANCH   2  25
TORSDOF 8
ENDMDL
MODEL 4
REMARK VINA RESULT:     -11.5      4.000      7.470
REMARK  Name = 448408
REMARK  8 active torsions:
REMARK  status: ('A' for Active; 'I' for Inactive)
REMARK    1  A    between atoms: N_2  and  C_25
REMARK    2  A    between atoms: C_3  and  C_6
REMARK    3  A    between atoms: C_5  and  N_12
REMARK    4  A    between atoms: C_25  and  C_26
REMARK    5  A    between atoms: C_27  and  S_32
REMARK    6  A    between atoms: S_32  and  C_33
REMARK    7  A    between atoms: C_34  and  C_39
REMARK    8  A    between atoms: C_39  and  O_40
REMARK                            x       y       z     vdW  Elec       q    Type
REMARK                         _______ _______ _______ _____ _____    ______ ____
ROOT
ATOM      1  O   UNL     1      37.543 -19.187 -19.295  0.00  0.00    -0.270 OA
ATOM      2  N   UNL     1      35.911 -20.833 -19.246  0.00  0.00    -0.297 N 
ATOM      3  C   UNL     1      36.508 -19.682 -19.774  0.00  0.00    +0.246 C 
ATOM      4  H   UNL     1      35.091 -21.171 -19.676  0.00  0.00    +0.150 HD
ENDROOT
BRANCH   3   6
ATOM      5  C   UNL     1      35.086 -17.055 -22.062  0.00  0.00    +0.090 C 
ATOM      6  C   UNL     1      35.849 -19.060 -20.912  0.00  0.00    +0.055 C 
ATOM      7  C   UNL     1      35.720 -17.672 -20.970  0.00  0.00    +0.023 C 
ATOM      8  C   UNL     1      34.585 -17.866 -23.094  0.00  0.00    +0.018 C 
ATOM      9  C   UNL     1      35.346 -19.851 -21.946  0.00  0.00    +0.005 C 
ATOM     10  C   UNL     1      34.714 -19.255 -23.036  0.00  0.00    +0.002 C 
BRANCH   5  12
ATOM     11  O   UNL     1      32.405 -13.038 -20.147  0.00  0.00    -0.207 OA
ATOM     12  N   UNL     1      34.958 -15.672 -22.121  0.00  0.00    -0.137 N 
ATOM     13  N   UNL     1      35.100 -14.927 -23.249  0.00  0.00    -0.215 N 
ATOM     14  N   UNL     1      34.120 -15.046 -21.201  0.00  0.00    -0.143 NA
ATOM     15  N   UNL     1      34.108 -12.747 -23.800  0.00  0.00    -0.309 NA
ATOM     16  N   UNL     1      32.684 -11.807 -22.092  0.00  0.00    -0.251 NA
ATOM     17  N   UNL     1      33.034 -10.667 -24.074  0.00  0.00    -0.283 N 
ATOM     18  C   UNL     1      34.367 -13.794 -23.110  0.00  0.00    +0.243 C 
ATOM     19  C   UNL     1      33.767 -13.938 -21.775  0.00  0.00    +0.241 C 
ATOM     20  C   UNL     1      32.886 -12.883 -21.260  0.00  0.00    +0.239 C 
ATOM     21  C   UNL     1      33.264 -11.763 -23.275  0.00  0.00    +0.208 C 
ATOM     22  H   UNL     1      35.644 -15.169 -24.033  0.00  0.00    +0.175 HD
ATOM     23  H   UNL     1      33.454 -10.606 -24.962  0.00  0.00    +0.156 HD
ATOM     24  H   UNL     1      32.448  -9.942 -23.757  0.00  0.00    +0.156 HD
ENDBRANCH   5  12
ENDBRANCH   3   6
BRANCH   2  25
ATOM     25  C   UNL     1      36.430 -21.551 -18.104  0.00  0.00    +0.117 C 
BRANCH  25  26
ATOM     26  C   UNL     1      35.337 -22.187 -17.296  0.00  0.00    +0.003 C 
ATOM     27  C   UNL     1      35.557 -22.655 -16.004  0.00  0.00    +0.027 C 
ATOM     28  C   UNL     1      34.079 -22.299 -17.881  0.00  0.00    -0.002 C 
ATOM     29  C   UNL     1      34.511 -23.240 -15.292  0.00  0.00    +0.006 C 
ATOM     30  C   UNL     1      33.033 -22.884 -17.169  0.00  0.00    -0.000 C 
ATOM     31  C   UNL     1      33.248 -23.355 -15.874  0.00  0.00    +0.000 C 
BRANCH  27  32
ATOM     32  S   UNL     1      37.156 -22.532 -15.214  0.00  0.00    -0.087 S 
BRANCH  32  33
ATOM     33  C   UNL     1      37.167 -24.021 -14.228  0.00  0.00    +0.028 C 
ATOM     34  C   UNL     1      37.245 -23.978 -12.834  0.00  0.00    +0.013 C 
ATOM     35  C   UNL     1      37.097 -25.251 -14.882  0.00  0.00    +0.006 C 
ATOM     36  C   UNL     1      37.250 -25.163 -12.098  0.00  0.00    -0.001 C 
ATOM     37  C   UNL     1      37.103 -26.436 -14.146  0.00  0.00    +0.000 C 
ATOM     38  C   UNL     1      37.180 -26.392 -12.754  0.00  0.00    -0.000 C 
BRANCH  34  39
ATOM     39  C   UNL     1      37.322 -22.687 -12.085  0.00  0.00    +0.164 C 
BRANCH  39  40
ATOM     40  O   UNL     1      38.378 -22.758 -11.136  0.00  0.00    -0.377 OA
ATOM     41  H   UNL     1      38.205 -23.483 -10.515  0.00  0.00    +0.211 HD
ENDBRANCH  39  40
ENDBRANCH  34  39
ENDBRANCH  32  33
ENDBRANCH  27  32
ENDBRANCH  25  26
ENDBRANCH   2  25
TORSDOF 8
ENDMDL
MODEL 5
REMARK VINA RESULT:     -11.1      8.874     13.457
REMARK  Name = 448408
REMARK  8 active torsions:
REMARK  status: ('A' for Active; 'I' for Inactive)
REMARK    1  A    between atoms: N_2  and  C_25
REMARK    2  A    between atoms: C_3  and  C_6
REMARK    3  A    between atoms: C_5  and  N_12
REMARK    4  A    between atoms: C_25  and  C_26
REMARK    5  A    between atoms: C_27  and  S_32
REMARK    6  A    between atoms: S_32  and  C_33
REMARK    7  A    between atoms: C_34  and  C_39
REMARK    8  A    between atoms: C_39  and  O_40
REMARK                            x       y       z     vdW  Elec       q    Type
REMARK                         _______ _______ _______ _____ _____    ______ ____
ROOT
ATOM      1  O   UNL     1      31.769 -24.920 -12.356  0.00  0.00    -0.270 OA
ATOM      2  N   UNL     1      33.862 -24.218 -13.066  0.00  0.00    -0.297 N 
ATOM      3  C   UNL     1      32.471 -24.319 -13.189  0.00  0.00    +0.246 C 
ATOM      4  H   UNL     1      34.356 -23.727 -13.763  0.00  0.00    +0.150 HD
ENDROOT
BRANCH   3   6
ATOM      5  C   UNL     1      32.083 -22.786 -16.603  0.00  0.00    +0.090 C 
ATOM      6  C   UNL     1      31.865 -23.706 -14.360  0.00  0.00    +0.055 C 
ATOM      7  C   UNL     1      32.654 -23.379 -15.463  0.00  0.00    +0.023 C 
ATOM      8  C   UNL     1      30.702 -22.528 -16.606  0.00  0.00    +0.018 C 
ATOM      9  C   UNL     1      30.494 -23.443 -14.380  0.00  0.00    +0.005 C 
ATOM     10  C   UNL     1      29.913 -22.855 -15.502  0.00  0.00    +0.002 C 
BRANCH   5  12
ATOM     11  O   UNL     1      36.961 -21.789 -18.086  0.00  0.00    -0.207 OA
ATOM     12  N   UNL     1      32.868 -22.461 -17.703  0.00  0.00    -0.137 N 
ATOM     13  N   UNL     1      32.485 -21.635 -18.713  0.00  0.00    -0.215 N 
ATOM     14  N   UNL     1      34.253 -22.471 -17.553  0.00  0.00    -0.143 NA
ATOM     15  N   UNL     1      33.876 -20.257 -20.198  0.00  0.00    -0.309 NA
ATOM     16  N   UNL     1      36.252 -20.396 -19.799  0.00  0.00    -0.251 NA
ATOM     17  N   UNL     1      35.432 -19.038 -21.481  0.00  0.00    -0.283 N 
ATOM     18  C   UNL     1      33.596 -21.080 -19.257  0.00  0.00    +0.243 C 
ATOM     19  C   UNL     1      34.691 -21.660 -18.465  0.00  0.00    +0.241 C 
ATOM     20  C   UNL     1      36.078 -21.288 -18.767  0.00  0.00    +0.239 C 
ATOM     21  C   UNL     1      35.210 -19.927 -20.455  0.00  0.00    +0.208 C 
ATOM     22  H   UNL     1      31.558 -21.470 -19.000  0.00  0.00    +0.175 HD
ATOM     23  H   UNL     1      34.673 -18.671 -21.989  0.00  0.00    +0.156 HD
ATOM     24  H   UNL     1      36.352 -18.768 -21.708  0.00  0.00    +0.156 HD
ENDBRANCH   5  12
ENDBRANCH   3   6
BRANCH   2  25
ATOM     25  C   UNL     1      34.612 -24.794 -11.973  0.00  0.00    +0.117 C 
BRANCH  25  26
ATOM     26  C   UNL     1      36.067 -24.429 -12.037  0.00  0.00    +0.003 C 
ATOM     27  C   UNL     1      36.923 -24.989 -12.981  0.00  0.00    +0.027 C 
ATOM     28  C   UNL     1      36.544 -23.503 -11.114  0.00  0.00    -0.002 C 
ATOM     29  C   UNL     1      38.267 -24.620 -13.001  0.00  0.00    +0.006 C 
ATOM     30  C   UNL     1      37.889 -23.134 -11.135  0.00  0.00    -0.000 C 
ATOM     31  C   UNL     1      38.750 -23.692 -12.078  0.00  0.00    +0.000 C 
BRANCH  27  32
ATOM     32  S   UNL     1      36.352 -26.182 -14.184  0.00  0.00    -0.087 S 
BRANCH  32  33
ATOM     33  C   UNL     1      37.237 -27.644 -13.664  0.00  0.00    +0.028 C 
ATOM     34  C   UNL     1      37.853 -28.496 -14.584  0.00  0.00    +0.013 C 
ATOM     35  C   UNL     1      37.306 -27.928 -12.300  0.00  0.00    +0.006 C 
ATOM     36  C   UNL     1      38.535 -29.627 -14.139  0.00  0.00    -0.001 C 
ATOM     37  C   UNL     1      37.988 -29.060 -11.855  0.00  0.00    +0.000 C 
ATOM     38  C   UNL     1      38.603 -29.910 -12.775  0.00  0.00    -0.000 C 
BRANCH  34  39
ATOM     39  C   UNL     1      37.809 -28.236 -16.056  0.00  0.00    +0.164 C 
BRANCH  39  40
ATOM     40  O   UNL     1      39.040 -27.658 -16.466  0.00  0.00    -0.377 OA
ATOM     41  H   UNL     1      39.643 -27.608 -15.707  0.00  0.00    +0.211 HD
ENDBRANCH  39  40
ENDBRANCH  34  39
ENDBRANCH  32  33
ENDBRANCH  27  32
ENDBRANCH  25  26
ENDBRANCH   2  25
TORSDOF 8
ENDMDL
MODEL 6
REMARK VINA RESULT:     -11.1      4.852      9.164
REMARK  Name = 448408
REMARK  8 active torsions:
REMARK  status: ('A' for Active; 'I' for Inactive)
REMARK    1  A    between atoms: N_2  and  C_25
REMARK    2  A    between atoms: C_3  and  C_6
REMARK    3  A    between atoms: C_5  and  N_12
REMARK    4  A    between atoms: C_25  and  C_26
REMARK    5  A    between atoms: C_27  and  S_32
REMARK    6  A    between atoms: S_32  and  C_33
REMARK    7  A    between atoms: C_34  and  C_39
REMARK    8  A    between atoms: C_39  and  O_40
REMARK                            x       y       z     vdW  Elec       q    Type
REMARK                         _______ _______ _______ _____ _____    ______ ____
ROOT
ATOM      1  O   UNL     1      32.496 -21.486 -19.894  0.00  0.00    -0.270 OA
ATOM      2  N   UNL     1      33.598 -22.344 -18.043  0.00  0.00    -0.297 N 
ATOM      3  C   UNL     1      33.523 -21.554 -19.196  0.00  0.00    +0.246 C 
ATOM      4  H   UNL     1      34.443 -22.351 -17.537  0.00  0.00    +0.150 HD
ENDROOT
BRANCH   3   6
ATOM      5  C   UNL     1      35.768 -18.960 -20.744  0.00  0.00    +0.090 C 
ATOM      6  C   UNL     1      34.721 -20.818 -19.570  0.00  0.00    +0.055 C 
ATOM      7  C   UNL     1      34.619 -19.682 -20.373  0.00  0.00    +0.023 C 
ATOM      8  C   UNL     1      37.019 -19.408 -20.289  0.00  0.00    +0.018 C 
ATOM      9  C   UNL     1      35.972 -21.249 -19.127  0.00  0.00    +0.005 C 
ATOM     10  C   UNL     1      37.120 -20.545 -19.486  0.00  0.00    +0.002 C 
BRANCH   5  12
ATOM     11  O   UNL     1      34.396 -13.949 -20.709  0.00  0.00    -0.207 OA
ATOM     12  N   UNL     1      35.666 -17.827 -21.543  0.00  0.00    -0.137 N 
ATOM     13  N   UNL     1      35.290 -17.831 -22.849  0.00  0.00    -0.215 N 
ATOM     14  N   UNL     1      35.369 -16.611 -20.933  0.00  0.00    -0.143 NA
ATOM     15  N   UNL     1      34.218 -16.047 -24.157  0.00  0.00    -0.309 NA
ATOM     16  N   UNL     1      33.775 -14.009 -22.942  0.00  0.00    -0.251 NA
ATOM     17  N   UNL     1      33.198 -14.182 -25.175  0.00  0.00    -0.283 N 
ATOM     18  C   UNL     1      34.737 -16.627 -23.140  0.00  0.00    +0.243 C 
ATOM     19  C   UNL     1      34.821 -15.897 -21.866  0.00  0.00    +0.241 C 
ATOM     20  C   UNL     1      34.310 -14.523 -21.785  0.00  0.00    +0.239 C 
ATOM     21  C   UNL     1      33.741 -14.738 -24.040  0.00  0.00    +0.208 C 
ATOM     22  H   UNL     1      35.400 -18.581 -23.478  0.00  0.00    +0.175 HD
ATOM     23  H   UNL     1      33.160 -14.702 -26.010  0.00  0.00    +0.156 HD
ATOM     24  H   UNL     1      32.847 -13.262 -25.152  0.00  0.00    +0.156 HD
ENDBRANCH   5  12
ENDBRANCH   3   6
BRANCH   2  25
ATOM     25  C   UNL     1      32.502 -23.151 -17.555  0.00  0.00    +0.117 C 
BRANCH  25  26
ATOM     26  C   UNL     1      32.397 -23.108 -16.058  0.00  0.00    +0.003 C 
ATOM     27  C   UNL     1      33.516 -23.233 -15.241  0.00  0.00    +0.027 C 
ATOM     28  C   UNL     1      31.133 -22.939 -15.501  0.00  0.00    -0.002 C 
ATOM     29  C   UNL     1      33.370 -23.188 -13.855  0.00  0.00    +0.006 C 
ATOM     30  C   UNL     1      30.987 -22.894 -14.115  0.00  0.00    -0.000 C 
ATOM     31  C   UNL     1      32.105 -23.018 -13.292  0.00  0.00    +0.000 C 
BRANCH  27  32
ATOM     32  S   UNL     1      35.158 -23.452 -15.914  0.00  0.00    -0.087 S 
BRANCH  32  33
ATOM     33  C   UNL     1      36.085 -23.840 -14.437  0.00  0.00    +0.028 C 
ATOM     34  C   UNL     1      36.446 -25.151 -14.119  0.00  0.00    +0.013 C 
ATOM     35  C   UNL     1      36.449 -22.793 -13.587  0.00  0.00    +0.006 C 
ATOM     36  C   UNL     1      37.170 -25.413 -12.956  0.00  0.00    -0.001 C 
ATOM     37  C   UNL     1      37.173 -23.057 -12.424  0.00  0.00    +0.000 C 
ATOM     38  C   UNL     1      37.533 -24.367 -12.109  0.00  0.00    -0.000 C 
BRANCH  34  39
ATOM     39  C   UNL     1      36.081 -26.306 -14.995  0.00  0.00    +0.164 C 
BRANCH  39  40
ATOM     40  O   UNL     1      36.158 -27.508 -14.240  0.00  0.00    -0.377 OA
ATOM     41  H   UNL     1      36.478 -28.226 -14.808  0.00  0.00    +0.211 HD
ENDBRANCH  39  40
ENDBRANCH  34  39
ENDBRANCH  32  33
ENDBRANCH  27  32
ENDBRANCH  25  26
ENDBRANCH   2  25
TORSDOF 8
ENDMDL
MODEL 7
REMARK VINA RESULT:     -11.1      6.158     12.640
REMARK  Name = 448408
REMARK  8 active torsions:
REMARK  status: ('A' for Active; 'I' for Inactive)
REMARK    1  A    between atoms: N_2  and  C_25
REMARK    2  A    between atoms: C_3  and  C_6
REMARK    3  A    between atoms: C_5  and  N_12
REMARK    4  A    between atoms: C_25  and  C_26
REMARK    5  A    between atoms: C_27  and  S_32
REMARK    6  A    between atoms: S_32  and  C_33
REMARK    7  A    between atoms: C_34  and  C_39
REMARK    8  A    between atoms: C_39  and  O_40
REMARK                            x       y       z     vdW  Elec       q    Type
REMARK                         _______ _______ _______ _____ _____    ______ ____
ROOT
ATOM      1  O   UNL     1      36.694 -20.944 -20.265  0.00  0.00    -0.270 OA
ATOM      2  N   UNL     1      35.073 -19.286 -20.245  0.00  0.00    -0.297 N 
ATOM      3  C   UNL     1      35.612 -20.510 -19.831  0.00  0.00    +0.246 C 
ATOM      4  H   UNL     1      34.212 -19.003 -19.861  0.00  0.00    +0.150 HD
ENDROOT
BRANCH   3   6
ATOM      5  C   UNL     1      34.734 -22.651 -16.864  0.00  0.00    +0.090 C 
ATOM      6  C   UNL     1      34.836 -21.283 -18.874  0.00  0.00    +0.055 C 
ATOM      7  C   UNL     1      35.471 -21.900 -17.797  0.00  0.00    +0.023 C 
ATOM      8  C   UNL     1      33.346 -22.768 -17.042  0.00  0.00    +0.018 C 
ATOM      9  C   UNL     1      33.455 -21.409 -19.036  0.00  0.00    +0.005 C 
ATOM     10  C   UNL     1      32.711 -22.150 -18.120  0.00  0.00    +0.002 C 
BRANCH   5  12
ATOM     11  O   UNL     1      34.003 -24.306 -11.994  0.00  0.00    -0.207 OA
ATOM     12  N   UNL     1      35.367 -23.266 -15.790  0.00  0.00    -0.137 N 
ATOM     13  N   UNL     1      36.663 -23.062 -15.433  0.00  0.00    -0.215 N 
ATOM     14  N   UNL     1      34.594 -23.646 -14.696  0.00  0.00    -0.143 NA
ATOM     15  N   UNL     1      37.713 -23.279 -13.221  0.00  0.00    -0.309 NA
ATOM     16  N   UNL     1      36.226 -23.946 -11.441  0.00  0.00    -0.251 NA
ATOM     17  N   UNL     1      38.464 -23.560 -11.005  0.00  0.00    -0.283 N 
ATOM     18  C   UNL     1      36.785 -23.300 -14.103  0.00  0.00    +0.243 C 
ATOM     19  C   UNL     1      35.420 -23.669 -13.697  0.00  0.00    +0.241 C 
ATOM     20  C   UNL     1      35.149 -24.005 -12.294  0.00  0.00    +0.239 C 
ATOM     21  C   UNL     1      37.416 -23.604 -11.895  0.00  0.00    +0.208 C 
ATOM     22  H   UNL     1      37.390 -22.788 -16.038  0.00  0.00    +0.175 HD
ATOM     23  H   UNL     1      39.364 -23.309 -11.315  0.00  0.00    +0.156 HD
ATOM     24  H   UNL     1      38.314 -23.780 -10.057  0.00  0.00    +0.156 HD
ENDBRANCH   5  12
ENDBRANCH   3   6
BRANCH   2  25
ATOM     25  C   UNL     1      35.712 -18.416 -21.206  0.00  0.00    +0.117 C 
BRANCH  25  26
ATOM     26  C   UNL     1      34.912 -18.294 -22.471  0.00  0.00    +0.003 C 
ATOM     27  C   UNL     1      34.864 -17.107 -23.196  0.00  0.00    +0.027 C 
ATOM     28  C   UNL     1      34.210 -19.414 -22.905  0.00  0.00    -0.002 C 
ATOM     29  C   UNL     1      34.106 -17.039 -24.365  0.00  0.00    +0.006 C 
ATOM     30  C   UNL     1      33.452 -19.347 -24.074  0.00  0.00    -0.000 C 
ATOM     31  C   UNL     1      33.400 -18.160 -24.804  0.00  0.00    +0.000 C 
BRANCH  27  32
ATOM     32  S   UNL     1      35.750 -15.644 -22.675  0.00  0.00    -0.087 S 
BRANCH  32  33
ATOM     33  C   UNL     1      34.410 -14.628 -22.071  0.00  0.00    +0.028 C 
ATOM     34  C   UNL     1      33.656 -13.822 -22.926  0.00  0.00    +0.013 C 
ATOM     35  C   UNL     1      34.124 -14.652 -20.705  0.00  0.00    +0.006 C 
ATOM     36  C   UNL     1      32.617 -13.044 -22.416  0.00  0.00    -0.001 C 
ATOM     37  C   UNL     1      33.085 -13.872 -20.195  0.00  0.00    +0.000 C 
ATOM     38  C   UNL     1      32.332 -13.068 -21.051  0.00  0.00    -0.000 C 
BRANCH  34  39
ATOM     39  C   UNL     1      33.922 -13.762 -24.396  0.00  0.00    +0.164 C 
BRANCH  39  40
ATOM     40  O   UNL     1      32.699 -13.928 -25.100  0.00  0.00    -0.377 OA
ATOM     41  H   UNL     1      31.960 -13.916 -24.472  0.00  0.00    +0.211 HD
ENDBRANCH  39  40
ENDBRANCH  34  39
ENDBRANCH  32  33
ENDBRANCH  27  32
ENDBRANCH  25  26
ENDBRANCH   2  25
TORSDOF 8
ENDMDL
MODEL 8
REMARK VINA RESULT:     -10.8      8.547     12.922
REMARK  Name = 448408
REMARK  8 active torsions:
REMARK  status: ('A' for Active; 'I' for Inactive)
REMARK    1  A    between atoms: N_2  and  C_25
REMARK    2  A    between atoms: C_3  and  C_6
REMARK    3  A    between atoms: C_5  and  N_12
REMARK    4  A    between atoms: C_25  and  C_26
REMARK    5  A    between atoms: C_27  and  S_32
REMARK    6  A    between atoms: S_32  and  C_33
REMARK    7  A    between atoms: C_34  and  C_39
REMARK    8  A    between atoms: C_39  and  O_40
REMARK                            x       y       z     vdW  Elec       q    Type
REMARK                         _______ _______ _______ _____ _____    ______ ____
ROOT
ATOM      1  O   UNL     1      34.284 -24.421 -12.279  0.00  0.00    -0.270 OA
ATOM      2  N   UNL     1      35.282 -25.538 -14.048  0.00  0.00    -0.297 N 
ATOM      3  C   UNL     1      34.335 -24.667 -13.497  0.00  0.00    +0.246 C 
ATOM      4  H   UNL     1      35.266 -25.688 -15.021  0.00  0.00    +0.150 HD
ENDROOT
BRANCH   3   6
ATOM      5  C   UNL     1      32.885 -23.047 -16.568  0.00  0.00    +0.090 C 
ATOM      6  C   UNL     1      33.379 -24.065 -14.413  0.00  0.00    +0.055 C 
ATOM      7  C   UNL     1      33.797 -23.630 -15.671  0.00  0.00    +0.023 C 
ATOM      8  C   UNL     1      31.544 -22.910 -16.169  0.00  0.00    +0.018 C 
ATOM      9  C   UNL     1      32.044 -23.922 -14.033  0.00  0.00    +0.005 C 
ATOM     10  C   UNL     1      31.127 -23.345 -14.911  0.00  0.00    +0.002 C 
BRANCH   5  12
ATOM     11  O   UNL     1      36.993 -21.278 -19.211  0.00  0.00    -0.207 OA
ATOM     12  N   UNL     1      33.300 -22.614 -17.822  0.00  0.00    -0.137 N 
ATOM     13  N   UNL     1      32.543 -21.880 -18.679  0.00  0.00    -0.215 N 
ATOM     14  N   UNL     1      34.660 -22.391 -18.028  0.00  0.00    -0.143 NA
ATOM     15  N   UNL     1      33.264 -20.315 -20.432  0.00  0.00    -0.309 NA
ATOM     16  N   UNL     1      35.653 -20.050 -20.650  0.00  0.00    -0.251 NA
ATOM     17  N   UNL     1      34.220 -18.875 -22.034  0.00  0.00    -0.283 N 
ATOM     18  C   UNL     1      33.371 -21.156 -19.473  0.00  0.00    +0.243 C 
ATOM     19  C   UNL     1      34.712 -21.534 -18.999  0.00  0.00    +0.241 C 
ATOM     20  C   UNL     1      35.896 -20.941 -19.632  0.00  0.00    +0.239 C 
ATOM     21  C   UNL     1      34.415 -19.771 -21.009  0.00  0.00    +0.208 C 
ATOM     22  H   UNL     1      31.559 -21.875 -18.718  0.00  0.00    +0.175 HD
ATOM     23  H   UNL     1      33.307 -18.647 -22.323  0.00  0.00    +0.156 HD
ATOM     24  H   UNL     1      34.994 -18.460 -22.479  0.00  0.00    +0.156 HD
ENDBRANCH   5  12
ENDBRANCH   3   6
BRANCH   2  25
ATOM     25  C   UNL     1      36.281 -26.231 -13.266  0.00  0.00    +0.117 C 
BRANCH  25  26
ATOM     26  C   UNL     1      37.298 -26.914 -14.134  0.00  0.00    +0.003 C 
ATOM     27  C   UNL     1      38.618 -26.478 -14.200  0.00  0.00    +0.027 C 
ATOM     28  C   UNL     1      36.880 -28.010 -14.883  0.00  0.00    -0.002 C 
ATOM     29  C   UNL     1      39.527 -27.144 -15.021  0.00  0.00    +0.006 C 
ATOM     30  C   UNL     1      37.789 -28.676 -15.705  0.00  0.00    -0.000 C 
ATOM     31  C   UNL     1      39.113 -28.243 -15.773  0.00  0.00    +0.000 C 
BRANCH  27  32
ATOM     32  S   UNL     1      39.197 -25.075 -13.255  0.00  0.00    -0.087 S 
BRANCH  32  33
ATOM     33  C   UNL     1      38.314 -23.740 -14.048  0.00  0.00    +0.028 C 
ATOM     34  C   UNL     1      37.468 -22.892 -13.332  0.00  0.00    +0.013 C 
ATOM     35  C   UNL     1      38.485 -23.554 -15.421  0.00  0.00    +0.006 C 
ATOM     36  C   UNL     1      36.796 -21.860 -13.987  0.00  0.00    -0.001 C 
ATOM     37  C   UNL     1      37.813 -22.523 -16.076  0.00  0.00    +0.000 C 
ATOM     38  C   UNL     1      36.968 -21.676 -15.359  0.00  0.00    -0.000 C 
BRANCH  34  39
ATOM     39  C   UNL     1      37.250 -23.048 -11.861  0.00  0.00    +0.164 C 
BRANCH  39  40
ATOM     40  O   UNL     1      37.976 -22.039 -11.171  0.00  0.00    -0.377 OA
ATOM     41  H   UNL     1      37.431 -21.239 -11.103  0.00  0.00    +0.211 HD
ENDBRANCH  39  40
ENDBRANCH  34  39
ENDBRANCH  32  33
ENDBRANCH  27  32
ENDBRANCH  25  26
ENDBRANCH   2  25
TORSDOF 8
ENDMDL
MODEL 9
REMARK VINA RESULT:     -10.5      3.828     11.789
REMARK  Name = 448408
REMARK  8 active torsions:
REMARK  status: ('A' for Active; 'I' for Inactive)
REMARK    1  A    between atoms: N_2  and  C_25
REMARK    2  A    between atoms: C_3  and  C_6
REMARK    3  A    between atoms: C_5  and  N_12
REMARK    4  A    between atoms: C_25  and  C_26
REMARK    5  A    between atoms: C_27  and  S_32
REMARK    6  A    between atoms: S_32  and  C_33
REMARK    7  A    between atoms: C_34  and  C_39
REMARK    8  A    between atoms: C_39  and  O_40
REMARK                            x       y       z     vdW  Elec       q    Type
REMARK                         _______ _______ _______ _____ _____    ______ ____
ROOT
ATOM      1  O   UNL     1      35.008 -14.146 -21.460  0.00  0.00    -0.270 OA
ATOM      2  N   UNL     1      34.124 -13.385 -23.464  0.00  0.00    -0.297 N 
ATOM      3  C   UNL     1      34.562 -14.391 -22.595  0.00  0.00    +0.246 C 
ATOM      4  H   UNL     1      33.783 -13.650 -24.349  0.00  0.00    +0.150 HD
ENDROOT
BRANCH   3   6
ATOM      5  C   UNL     1      34.836 -18.142 -22.719  0.00  0.00    +0.090 C 
ATOM      6  C   UNL     1      34.499 -15.759 -23.085  0.00  0.00    +0.055 C 
ATOM      7  C   UNL     1      34.891 -16.814 -22.260  0.00  0.00    +0.023 C 
ATOM      8  C   UNL     1      34.380 -18.384 -24.025  0.00  0.00    +0.018 C 
ATOM      9  C   UNL     1      34.048 -16.017 -24.380  0.00  0.00    +0.005 C 
ATOM     10  C   UNL     1      33.988 -17.328 -24.850  0.00  0.00    +0.002 C 
BRANCH   5  12
ATOM     11  O   UNL     1      33.029 -21.808 -19.512  0.00  0.00    -0.207 OA
ATOM     12  N   UNL     1      35.225 -19.193 -21.896  0.00  0.00    -0.137 N 
ATOM     13  N   UNL     1      36.352 -19.207 -21.136  0.00  0.00    -0.215 N 
ATOM     14  N   UNL     1      34.236 -20.009 -21.352  0.00  0.00    -0.143 NA
ATOM     15  N   UNL     1      36.799 -20.431 -19.052  0.00  0.00    -0.309 NA
ATOM     16  N   UNL     1      34.976 -21.796 -18.253  0.00  0.00    -0.251 NA
ATOM     17  N   UNL     1      36.966 -21.707 -17.077  0.00  0.00    -0.283 N 
ATOM     18  C   UNL     1      36.144 -20.026 -20.075  0.00  0.00    +0.243 C 
ATOM     19  C   UNL     1      34.768 -20.504 -20.278  0.00  0.00    +0.241 C 
ATOM     20  C   UNL     1      34.175 -21.433 -19.310  0.00  0.00    +0.239 C 
ATOM     21  C   UNL     1      36.200 -21.316 -18.151  0.00  0.00    +0.208 C 
ATOM     22  H   UNL     1      37.179 -18.706 -21.324  0.00  0.00    +0.175 HD
ATOM     23  H   UNL     1      37.883 -21.365 -16.976  0.00  0.00    +0.156 HD
ATOM     24  H   UNL     1      36.596 -22.330 -16.410  0.00  0.00    +0.156 HD
ENDBRANCH   5  12
ENDBRANCH   3   6
BRANCH   2  25
ATOM     25  C   UNL     1      34.147 -11.978 -23.134  0.00  0.00    +0.117 C 
BRANCH  25  26
ATOM     26  C   UNL     1      32.943 -11.570 -22.334  0.00  0.00    +0.003 C 
ATOM     27  C   UNL     1      32.490 -10.255 -22.310  0.00  0.00    +0.027 C 
ATOM     28  C   UNL     1      32.285 -12.556 -21.605  0.00  0.00    -0.002 C 
ATOM     29  C   UNL     1      31.368  -9.922 -21.551  0.00  0.00    +0.006 C 
ATOM     30  C   UNL     1      31.163 -12.223 -20.846  0.00  0.00    -0.000 C 
ATOM     31  C   UNL     1      30.704 -10.907 -20.819  0.00  0.00    +0.000 C 
BRANCH  27  32
ATOM     32  S   UNL     1      33.306  -8.957 -23.231  0.00  0.00    -0.087 S 
BRANCH  32  33
ATOM     33  C   UNL     1      32.750  -7.508 -22.346  0.00  0.00    +0.028 C 
ATOM     34  C   UNL     1      31.836  -6.612 -22.905  0.00  0.00    +0.013 C 
ATOM     35  C   UNL     1      33.253  -7.279 -21.064  0.00  0.00    +0.006 C 
ATOM     36  C   UNL     1      31.426  -5.492 -22.183  0.00  0.00    -0.001 C 
ATOM     37  C   UNL     1      32.843  -6.158 -20.343  0.00  0.00    +0.000 C 
ATOM     38  C   UNL     1      31.929  -5.264 -20.902  0.00  0.00    -0.000 C 
BRANCH  34  39
ATOM     39  C   UNL     1      31.268  -6.811 -24.273  0.00  0.00    +0.164 C 
BRANCH  39  40
ATOM     40  O   UNL     1      31.386  -5.602 -25.010  0.00  0.00    -0.377 OA
ATOM     41  H   UNL     1      30.879  -4.903 -24.568  0.00  0.00    +0.211 HD
ENDBRANCH  39  40
ENDBRANCH  34  39
ENDBRANCH  32  33
ENDBRANCH  27  32
ENDBRANCH  25  26
ENDBRANCH   2  25
TORSDOF 8
ENDMDL
