MODEL 1
REMARK VINA RESULT:     -13.0      0.000      0.000
REMARK  Name = 4887
REMARK  9 active torsions:
REMARK  status: ('A' for Active; 'I' for Inactive)
REMARK    1  A    between atoms: N_2  and  C_8
REMARK    2  A    between atoms: C_3  and  C_23
REMARK    3  A    between atoms: C_14  and  C_20
REMARK    4  A    between atoms: C_22  and  O_28
REMARK    5  A    between atoms: O_28  and  C_29
REMARK    6  A    between atoms: C_29  and  C_30
REMARK    7  A    between atoms: C_30  and  C_31
REMARK    8  A    between atoms: C_31  and  C_32
REMARK    9  A    between atoms: C_32  and  C_33
REMARK                            x       y       z     vdW  Elec       q    Type
REMARK                         _______ _______ _______ _____ _____    ______ ____
ROOT
ATOM      1  O   UNL     1      33.442 -23.941 -18.128  0.00  0.00    -0.270 OA
ATOM      2  N   UNL     1      33.829 -22.352 -16.440  0.00  0.00    -0.278 N 
ATOM      3  C   UNL     1      33.685 -22.797 -17.760  0.00  0.00    +0.250 C 
ATOM      4  H   UNL     1      34.024 -21.394 -16.326  0.00  0.00    +0.155 HD
ENDROOT
BRANCH   2   8
ATOM      5  O   UNL     1      31.382 -23.155 -15.498  0.00  0.00    -0.442 OA
ATOM      6  O   UNL     1      30.964 -25.347 -12.091  0.00  0.00    -0.286 OA
ATOM      7  C   UNL     1      32.491 -23.517 -14.777  0.00  0.00    +0.163 C 
ATOM      8  C   UNL     1      33.731 -23.103 -15.265  0.00  0.00    +0.086 C 
ATOM      9  C   UNL     1      32.421 -24.265 -13.603  0.00  0.00    +0.075 C 
ATOM     10  C   UNL     1      34.896 -23.439 -14.576  0.00  0.00    +0.018 C 
ATOM     11  C   UNL     1      33.585 -24.604 -12.910  0.00  0.00    +0.006 C 
ATOM     12  C   UNL     1      31.102 -24.687 -13.113  0.00  0.00    +0.202 C 
ATOM     13  C   UNL     1      34.823 -24.188 -13.401  0.00  0.00    +0.002 C 
ATOM     14  C   UNL     1      30.129 -23.549 -15.041  0.00  0.00    +0.213 C 
ATOM     15  C   UNL     1      29.941 -24.272 -13.924  0.00  0.00    +0.090 C 
BRANCH  14  20
ATOM     16  N   UNL     1      28.624 -23.691 -17.011  0.00  0.00    -0.107 NA
ATOM     17  N   UNL     1      28.376 -21.960 -15.572  0.00  0.00    -0.084 NA
ATOM     18  N   UNL     1      27.644 -22.839 -17.345  0.00  0.00    -0.140 N 
ATOM     19  N   UNL     1      27.462 -21.799 -16.520  0.00  0.00    -0.022 NA
ATOM     20  C   UNL     1      29.054 -23.099 -15.893  0.00  0.00    +0.109 C 
ATOM     21  H   UNL     1      27.091 -22.970 -18.148  0.00  0.00    +0.197 HD
ENDBRANCH  14  20
ENDBRANCH   2   8
BRANCH   3  23
ATOM     22  C   UNL     1      34.232 -19.807 -20.767  0.00  0.00    +0.139 C 
ATOM     23  C   UNL     1      33.875 -21.758 -18.805  0.00  0.00    +0.054 C 
ATOM     24  C   UNL     1      35.341 -20.432 -20.194  0.00  0.00    +0.037 C 
ATOM     25  C   UNL     1      32.945 -20.158 -20.359  0.00  0.00    +0.037 C 
ATOM     26  C   UNL     1      35.162 -21.407 -19.212  0.00  0.00    +0.008 C 
ATOM     27  C   UNL     1      32.766 -21.134 -19.378  0.00  0.00    +0.008 C 
BRANCH  22  28
ATOM     28  O   UNL     1      34.407 -18.857 -21.725  0.00  0.00    -0.475 OA
BRANCH  28  29
ATOM     29  C   UNL     1      35.204 -19.213 -22.854  0.00  0.00    +0.205 C 
BRANCH  29  30
ATOM     30  C   UNL     1      34.323 -19.224 -24.095  0.00  0.00    +0.048 C 
BRANCH  30  31
ATOM     31  C   UNL     1      33.783 -17.831 -24.415  0.00  0.00    +0.009 C 
BRANCH  31  32
ATOM     32  C   UNL     1      34.887 -16.775 -24.321  0.00  0.00    +0.026 C 
BRANCH  32  33
ATOM     33  C   UNL     1      34.426 -15.553 -23.567  0.00  0.00    -0.022 C 
ATOM     34  C   UNL     1      33.651 -14.588 -24.209  0.00  0.00    -0.004 C 
ATOM     35  C   UNL     1      34.776 -15.387 -22.228  0.00  0.00    -0.004 C 
ATOM     36  C   UNL     1      33.225 -13.458 -23.512  0.00  0.00    -0.000 C 
ATOM     37  C   UNL     1      34.350 -14.258 -21.529  0.00  0.00    -0.000 C 
ATOM     38  C   UNL     1      33.574 -13.293 -22.172  0.00  0.00    -0.000 C 
ENDBRANCH  32  33
ENDBRANCH  31  32
ENDBRANCH  30  31
ENDBRANCH  29  30
ENDBRANCH  28  29
ENDBRANCH  22  28
ENDBRANCH   3  23
TORSDOF 9
ENDMDL
MODEL 2
REMARK VINA RESULT:     -13.0      1.734      4.051
REMARK  Name = 4887
REMARK  9 active torsions:
REMARK  status: ('A' for Active; 'I' for Inactive)
REMARK    1  A    between atoms: N_2  and  C_8
REMARK    2  A    between atoms: C_3  and  C_23
REMARK    3  A    between atoms: C_14  and  C_20
REMARK    4  A    between atoms: C_22  and  O_28
REMARK    5  A    between atoms: O_28  and  C_29
REMARK    6  A    between atoms: C_29  and  C_30
REMARK    7  A    between atoms: C_30  and  C_31
REMARK    8  A    between atoms: C_31  and  C_32
REMARK    9  A    between atoms: C_32  and  C_33
REMARK                            x       y       z     vdW  Elec       q    Type
REMARK                         _______ _______ _______ _____ _____    ______ ____
ROOT
ATOM      1  O   UNL     1      33.458 -23.742 -18.337  0.00  0.00    -0.270 OA
ATOM      2  N   UNL     1      32.181 -22.048 -17.325  0.00  0.00    -0.278 N 
ATOM      3  C   UNL     1      33.107 -22.572 -18.236  0.00  0.00    +0.250 C 
ATOM      4  H   UNL     1      32.017 -21.079 -17.385  0.00  0.00    +0.155 HD
ENDROOT
BRANCH   2   8
ATOM      5  O   UNL     1      33.476 -23.195 -15.197  0.00  0.00    -0.442 OA
ATOM      6  O   UNL     1      31.497 -25.212 -12.265  0.00  0.00    -0.286 OA
ATOM      7  C   UNL     1      32.111 -23.320 -15.254  0.00  0.00    +0.163 C 
ATOM      8  C   UNL     1      31.463 -22.732 -16.341  0.00  0.00    +0.086 C 
ATOM      9  C   UNL     1      31.372 -23.996 -14.286  0.00  0.00    +0.075 C 
ATOM     10  C   UNL     1      30.076 -22.825 -16.455  0.00  0.00    +0.018 C 
ATOM     11  C   UNL     1      29.982 -24.091 -14.396  0.00  0.00    +0.006 C 
ATOM     12  C   UNL     1      32.081 -24.605 -13.152  0.00  0.00    +0.202 C 
ATOM     13  C   UNL     1      29.337 -23.503 -15.484  0.00  0.00    +0.002 C 
ATOM     14  C   UNL     1      34.157 -23.769 -14.129  0.00  0.00    +0.213 C 
ATOM     15  C   UNL     1      33.548 -24.443 -13.139  0.00  0.00    +0.090 C 
BRANCH  14  20
ATOM     16  N   UNL     1      36.373 -23.801 -15.249  0.00  0.00    -0.107 NA
ATOM     17  N   UNL     1      36.245 -23.081 -13.105  0.00  0.00    -0.084 NA
ATOM     18  N   UNL     1      37.550 -23.432 -14.725  0.00  0.00    -0.140 N 
ATOM     19  N   UNL     1      37.521 -22.999 -13.458  0.00  0.00    -0.022 NA
ATOM     20  C   UNL     1      35.584 -23.564 -14.197  0.00  0.00    +0.109 C 
ATOM     21  H   UNL     1      38.387 -23.476 -15.242  0.00  0.00    +0.197 HD
ENDBRANCH  14  20
ENDBRANCH   2   8
BRANCH   3  23
ATOM     22  C   UNL     1      34.903 -19.716 -20.863  0.00  0.00    +0.139 C 
ATOM     23  C   UNL     1      33.731 -21.579 -19.149  0.00  0.00    +0.054 C 
ATOM     24  C   UNL     1      33.513 -19.806 -20.775  0.00  0.00    +0.037 C 
ATOM     25  C   UNL     1      35.706 -20.558 -20.095  0.00  0.00    +0.037 C 
ATOM     26  C   UNL     1      32.927 -20.738 -19.918  0.00  0.00    +0.008 C 
ATOM     27  C   UNL     1      35.121 -21.489 -19.237  0.00  0.00    +0.008 C 
BRANCH  22  28
ATOM     28  O   UNL     1      35.474 -18.806 -21.698  0.00  0.00    -0.475 OA
BRANCH  28  29
ATOM     29  C   UNL     1      35.067 -18.834 -23.065  0.00  0.00    +0.205 C 
BRANCH  29  30
ATOM     30  C   UNL     1      34.959 -17.404 -23.576  0.00  0.00    +0.048 C 
BRANCH  30  31
ATOM     31  C   UNL     1      34.987 -16.394 -22.430  0.00  0.00    +0.009 C 
BRANCH  31  32
ATOM     32  C   UNL     1      34.906 -14.958 -22.955  0.00  0.00    +0.026 C 
BRANCH  32  33
ATOM     33  C   UNL     1      33.929 -14.129 -22.159  0.00  0.00    -0.022 C 
ATOM     34  C   UNL     1      33.104 -13.211 -22.808  0.00  0.00    -0.004 C 
ATOM     35  C   UNL     1      33.852 -14.280 -20.775  0.00  0.00    -0.004 C 
ATOM     36  C   UNL     1      32.201 -12.444 -22.072  0.00  0.00    -0.000 C 
ATOM     37  C   UNL     1      32.949 -13.513 -20.039  0.00  0.00    -0.000 C 
ATOM     38  C   UNL     1      32.123 -12.595 -20.688  0.00  0.00    -0.000 C 
ENDBRANCH  32  33
ENDBRANCH  31  32
ENDBRANCH  30  31
ENDBRANCH  29  30
ENDBRANCH  28  29
ENDBRANCH  22  28
ENDBRANCH   3  23
TORSDOF 9
ENDMDL
MODEL 3
REMARK VINA RESULT:     -11.6      1.609      2.329
REMARK  Name = 4887
REMARK  9 active torsions:
REMARK  status: ('A' for Active; 'I' for Inactive)
REMARK    1  A    between atoms: N_2  and  C_8
REMARK    2  A    between atoms: C_3  and  C_23
REMARK    3  A    between atoms: C_14  and  C_20
REMARK    4  A    between atoms: C_22  and  O_28
REMARK    5  A    between atoms: O_28  and  C_29
REMARK    6  A    between atoms: C_29  and  C_30
REMARK    7  A    between atoms: C_30  and  C_31
REMARK    8  A    between atoms: C_31  and  C_32
REMARK    9  A    between atoms: C_32  and  C_33
REMARK                            x       y       z     vdW  Elec       q    Type
REMARK                         _______ _______ _______ _____ _____    ______ ____
ROOT
ATOM      1  O   UNL     1      37.574 -21.661 -17.811  0.00  0.00    -0.270 OA
ATOM      2  N   UNL     1      35.430 -22.094 -16.951  0.00  0.00    -0.278 N 
ATOM      3  C   UNL     1      36.352 -21.603 -17.884  0.00  0.00    +0.250 C 
ATOM      4  H   UNL     1      34.480 -21.961 -17.172  0.00  0.00    +0.155 HD
ENDROOT
BRANCH   2   8
ATOM      5  O   UNL     1      33.375 -22.930 -15.338  0.00  0.00    -0.442 OA
ATOM      6  O   UNL     1      34.013 -24.848 -11.803  0.00  0.00    -0.286 OA
ATOM      7  C   UNL     1      34.656 -23.178 -14.916  0.00  0.00    +0.163 C 
ATOM      8  C   UNL     1      35.694 -22.748 -15.744  0.00  0.00    +0.086 C 
ATOM      9  C   UNL     1      34.947 -23.828 -13.719  0.00  0.00    +0.075 C 
ATOM     10  C   UNL     1      37.019 -22.970 -15.369  0.00  0.00    +0.018 C 
ATOM     11  C   UNL     1      36.272 -24.053 -13.339  0.00  0.00    +0.006 C 
ATOM     12  C   UNL     1      33.834 -24.270 -12.867  0.00  0.00    +0.202 C 
ATOM     13  C   UNL     1      37.307 -23.622 -14.169  0.00  0.00    +0.002 C 
ATOM     14  C   UNL     1      32.315 -23.343 -14.539  0.00  0.00    +0.213 C 
ATOM     15  C   UNL     1      32.475 -23.979 -13.366  0.00  0.00    +0.090 C 
BRANCH  14  20
ATOM     16  N   UNL     1      29.867 -22.937 -14.443  0.00  0.00    -0.107 NA
ATOM     17  N   UNL     1      30.925 -22.757 -16.437  0.00  0.00    -0.084 NA
ATOM     18  N   UNL     1      29.060 -22.611 -15.462  0.00  0.00    -0.140 N 
ATOM     19  N   UNL     1      29.644 -22.495 -16.663  0.00  0.00    -0.022 NA
ATOM     20  C   UNL     1      31.026 -23.017 -15.102  0.00  0.00    +0.109 C 
ATOM     21  H   UNL     1      28.094 -22.467 -15.337  0.00  0.00    +0.197 HD
ENDBRANCH  14  20
ENDBRANCH   2   8
BRANCH   3  23
ATOM     22  C   UNL     1      34.647 -19.654 -21.286  0.00  0.00    +0.139 C 
ATOM     23  C   UNL     1      35.760 -20.925 -19.066  0.00  0.00    +0.054 C 
ATOM     24  C   UNL     1      33.846 -20.443 -20.460  0.00  0.00    +0.037 C 
ATOM     25  C   UNL     1      36.004 -19.501 -21.003  0.00  0.00    +0.037 C 
ATOM     26  C   UNL     1      34.403 -21.079 -19.350  0.00  0.00    +0.008 C 
ATOM     27  C   UNL     1      36.561 -20.136 -19.893  0.00  0.00    +0.008 C 
BRANCH  22  28
ATOM     28  O   UNL     1      34.104 -19.032 -22.368  0.00  0.00    -0.475 OA
BRANCH  28  29
ATOM     29  C   UNL     1      34.890 -18.022 -22.999  0.00  0.00    +0.205 C 
BRANCH  29  30
ATOM     30  C   UNL     1      34.182 -17.570 -24.268  0.00  0.00    +0.048 C 
BRANCH  30  31
ATOM     31  C   UNL     1      34.212 -16.050 -24.418  0.00  0.00    +0.009 C 
BRANCH  31  32
ATOM     32  C   UNL     1      35.009 -15.397 -23.287  0.00  0.00    +0.026 C 
BRANCH  32  33
ATOM     33  C   UNL     1      34.141 -14.503 -22.438  0.00  0.00    -0.022 C 
ATOM     34  C   UNL     1      33.264 -13.603 -23.045  0.00  0.00    -0.004 C 
ATOM     35  C   UNL     1      34.214 -14.574 -21.048  0.00  0.00    -0.004 C 
ATOM     36  C   UNL     1      32.461 -12.775 -22.261  0.00  0.00    -0.000 C 
ATOM     37  C   UNL     1      33.411 -13.747 -20.263  0.00  0.00    -0.000 C 
ATOM     38  C   UNL     1      32.535 -12.847 -20.869  0.00  0.00    -0.000 C 
ENDBRANCH  32  33
ENDBRANCH  31  32
ENDBRANCH  30  31
ENDBRANCH  29  30
ENDBRANCH  28  29
ENDBRANCH  22  28
ENDBRANCH   3  23
TORSDOF 9
ENDMDL
MODEL 4
REMARK VINA RESULT:     -11.0      2.163      4.613
REMARK  Name = 4887
REMARK  9 active torsions:
REMARK  status: ('A' for Active; 'I' for Inactive)
REMARK    1  A    between atoms: N_2  and  C_8
REMARK    2  A    between atoms: C_3  and  C_23
REMARK    3  A    between atoms: C_14  and  C_20
REMARK    4  A    between atoms: C_22  and  O_28
REMARK    5  A    between atoms: O_28  and  C_29
REMARK    6  A    between atoms: C_29  and  C_30
REMARK    7  A    between atoms: C_30  and  C_31
REMARK    8  A    between atoms: C_31  and  C_32
REMARK    9  A    between atoms: C_32  and  C_33
REMARK                            x       y       z     vdW  Elec       q    Type
REMARK                         _______ _______ _______ _____ _____    ______ ____
ROOT
ATOM      1  O   UNL     1      33.362 -23.915 -17.972  0.00  0.00    -0.270 OA
ATOM      2  N   UNL     1      33.214 -22.159 -16.416  0.00  0.00    -0.278 N 
ATOM      3  C   UNL     1      33.426 -22.726 -17.678  0.00  0.00    +0.250 C 
ATOM      4  H   UNL     1      33.306 -21.181 -16.361  0.00  0.00    +0.155 HD
ENDROOT
BRANCH   2   8
ATOM      5  O   UNL     1      35.174 -23.293 -14.867  0.00  0.00    -0.442 OA
ATOM      6  O   UNL     1      34.355 -25.222 -11.375  0.00  0.00    -0.286 OA
ATOM      7  C   UNL     1      33.878 -23.394 -14.428  0.00  0.00    +0.163 C 
ATOM      8  C   UNL     1      32.889 -22.814 -15.224  0.00  0.00    +0.086 C 
ATOM      9  C   UNL     1      33.527 -24.039 -13.245  0.00  0.00    +0.075 C 
ATOM     10  C   UNL     1      31.553 -22.883 -14.832  0.00  0.00    +0.018 C 
ATOM     11  C   UNL     1      32.190 -24.111 -12.847  0.00  0.00    +0.006 C 
ATOM     12  C   UNL     1      34.589 -24.641 -12.426  0.00  0.00    +0.202 C 
ATOM     13  C   UNL     1      31.204 -23.530 -13.645  0.00  0.00    +0.002 C 
ATOM     14  C   UNL     1      36.186 -23.860 -14.100  0.00  0.00    +0.213 C 
ATOM     15  C   UNL     1      35.965 -24.506 -12.943  0.00  0.00    +0.090 C 
BRANCH  14  20
ATOM     16  N   UNL     1      37.832 -22.808 -15.632  0.00  0.00    -0.107 NA
ATOM     17  N   UNL     1      38.531 -24.460 -14.249  0.00  0.00    -0.084 NA
ATOM     18  N   UNL     1      39.134 -23.105 -15.750  0.00  0.00    -0.140 N 
ATOM     19  N   UNL     1      39.591 -24.078 -14.949  0.00  0.00    -0.022 NA
ATOM     20  C   UNL     1      37.496 -23.682 -14.680  0.00  0.00    +0.109 C 
ATOM     21  H   UNL     1      39.720 -22.636 -16.386  0.00  0.00    +0.197 HD
ENDBRANCH  14  20
ENDBRANCH   2   8
BRANCH   3  23
ATOM     22  C   UNL     1      34.466 -19.964 -20.772  0.00  0.00    +0.139 C 
ATOM     23  C   UNL     1      33.788 -21.766 -18.754  0.00  0.00    +0.054 C 
ATOM     24  C   UNL     1      33.126 -20.174 -20.446  0.00  0.00    +0.037 C 
ATOM     25  C   UNL     1      35.467 -20.654 -20.089  0.00  0.00    +0.037 C 
ATOM     26  C   UNL     1      32.787 -21.076 -19.437  0.00  0.00    +0.008 C 
ATOM     27  C   UNL     1      35.129 -21.555 -19.079  0.00  0.00    +0.008 C 
BRANCH  22  28
ATOM     28  O   UNL     1      34.797 -19.083 -21.755  0.00  0.00    -0.475 OA
BRANCH  28  29
ATOM     29  C   UNL     1      34.271 -19.336 -23.057  0.00  0.00    +0.205 C 
BRANCH  29  30
ATOM     30  C   UNL     1      34.901 -18.358 -24.039  0.00  0.00    +0.048 C 
BRANCH  30  31
ATOM     31  C   UNL     1      34.182 -17.010 -24.031  0.00  0.00    +0.009 C 
BRANCH  31  32
ATOM     32  C   UNL     1      35.098 -15.897 -23.515  0.00  0.00    +0.026 C 
BRANCH  32  33
ATOM     33  C   UNL     1      34.325 -14.846 -22.759  0.00  0.00    -0.022 C 
ATOM     34  C   UNL     1      34.404 -14.788 -21.368  0.00  0.00    -0.004 C 
ATOM     35  C   UNL     1      33.530 -13.933 -23.451  0.00  0.00    -0.004 C 
ATOM     36  C   UNL     1      33.689 -13.817 -20.668  0.00  0.00    -0.000 C 
ATOM     37  C   UNL     1      32.815 -12.960 -22.752  0.00  0.00    -0.000 C 
ATOM     38  C   UNL     1      32.894 -12.902 -21.361  0.00  0.00    -0.000 C 
ENDBRANCH  32  33
ENDBRANCH  31  32
ENDBRANCH  30  31
ENDBRANCH  29  30
ENDBRANCH  28  29
ENDBRANCH  22  28
ENDBRANCH   3  23
TORSDOF 9
ENDMDL
