MODEL 1
REMARK VINA RESULT:     -11.9      0.000      0.000
REMARK  Name = 93184
REMARK  8 active torsions:
REMARK  status: ('A' for Active; 'I' for Inactive)
REMARK    1  A    between atoms: C_1  and  C_2
REMARK    2  A    between atoms: C_1  and  C_10
REMARK    3  A    between atoms: C_1  and  C_27
REMARK    4  A    between atoms: N_9  and  CA_18
REMARK    5  A    between atoms: CA_17  and  C_23
REMARK    6  A    between atoms: C_23  and  O_24
REMARK    7  A    between atoms: C_27  and  O_28
REMARK    8  A    between atoms: O_28  and  C_35
REMARK                            x       y       z     vdW  Elec       q    Type
REMARK                         _______ _______ _______ _____ _____    ______ ____
ROOT
ATOM      1  C   UNL     1      32.665 -23.583 -16.339  0.00  0.00    +0.198 C 
ENDROOT
BRANCH   1   2
ATOM      2  C   UNL     1      31.209 -23.618 -15.909  0.00  0.00    -0.003 C 
ATOM      3  C   UNL     1      30.408 -22.522 -16.167  0.00  0.00    -0.003 C 
ATOM      4  C   UNL     1      30.725 -24.744 -15.272  0.00  0.00    -0.003 C 
ATOM      5  C   UNL     1      29.070 -22.553 -15.772  0.00  0.00    -0.000 C 
ATOM      6  C   UNL     1      29.388 -24.776 -14.877  0.00  0.00    -0.000 C 
ATOM      7  C   UNL     1      28.560 -23.680 -15.127  0.00  0.00    -0.000 C 
ENDBRANCH   1   2
BRANCH   1  10
ATOM      8  O   UNL     1      33.074 -22.882 -14.055  0.00  0.00    -0.274 OA
ATOM      9  N   UNL     1      34.909 -23.369 -15.386  0.00  0.00    -0.296 N 
ATOM     10  C   UNL     1      33.543 -23.233 -15.136  0.00  0.00    +0.237 C 
ATOM     11  H   UNL     1      35.197 -23.656 -16.282  0.00  0.00    +0.150 HD
BRANCH   9  18
ATOM     12  S   UNL     1      35.883 -25.956 -14.049  0.00  0.00    -0.118 S 
ATOM     13  O   UNL     1      37.956 -22.488 -15.807  0.00  0.00    -0.273 OA
ATOM     14  N   UNL     1      37.727 -24.133 -14.130  0.00  0.00    -0.260 N 
ATOM     15  C   UNL     1      36.407 -24.287 -13.511  0.00  0.00    +0.151 C 
ATOM     16  C   UNL     1      37.650 -26.545 -14.073  0.00  0.00    +0.068 C 
ATOM     17  CA  UNL     1      38.438 -25.315 -14.574  0.00  0.00    +0.184 C 
ATOM     18  CA  UNL     1      35.937 -23.105 -14.371  0.00  0.00    +0.178 C 
ATOM     19  C   UNL     1      37.376 -23.081 -14.926  0.00  0.00    +0.247 C 
ATOM     20  C   UNL     1      38.015 -27.000 -12.653  0.00  0.00    +0.013 C 
ATOM     21  C   UNL     1      37.770 -27.719 -15.047  0.00  0.00    +0.013 C 
BRANCH  17  23
ATOM     22  OXT UNL     1      40.163 -24.691 -13.005  0.00  0.00    -0.248 OA
ATOM     23  C   UNL     1      39.840 -25.204 -14.065  0.00  0.00    +0.333 C 
BRANCH  23  24
ATOM     24  O   UNL     1      40.713 -25.750 -14.947  0.00  0.00    -0.479 OA
ATOM     25  H   UNL     1      40.887 -26.670 -14.925  0.00  0.00    +0.295 HD
ENDBRANCH  23  24
ENDBRANCH  17  23
ENDBRANCH   9  18
ENDBRANCH   1  10
BRANCH   1  27
ATOM     26  O   UNL     1      32.183 -21.719 -17.837  0.00  0.00    -0.249 OA
ATOM     27  C   UNL     1      32.893 -22.671 -17.538  0.00  0.00    +0.334 C 
BRANCH  27  28
ATOM     28  O   UNL     1      34.056 -23.067 -18.198  0.00  0.00    -0.424 OA
BRANCH  28  35
ATOM     29  C   UNL     1      35.474 -18.789 -22.094  0.00  0.00    +0.009 C 
ATOM     30  C   UNL     1      34.166 -19.394 -21.561  0.00  0.00    +0.026 C 
ATOM     31  C   UNL     1      36.466 -18.778 -20.921  0.00  0.00    +0.026 C 
ATOM     32  C   UNL     1      34.682 -20.302 -20.489  0.00  0.00    -0.023 C 
ATOM     33  C   UNL     1      35.988 -19.952 -20.127  0.00  0.00    -0.026 C 
ATOM     34  C   UNL     1      34.017 -21.336 -19.853  0.00  0.00    +0.033 C 
ATOM     35  C   UNL     1      34.687 -22.033 -18.846  0.00  0.00    +0.148 C 
ATOM     36  C   UNL     1      36.655 -20.630 -19.120  0.00  0.00    -0.001 C 
ATOM     37  C   UNL     1      35.996 -21.682 -18.481  0.00  0.00    +0.037 C 
ENDBRANCH  28  35
ENDBRANCH  27  28
ENDBRANCH   1  27
TORSDOF 8
ENDMDL
MODEL 2
REMARK VINA RESULT:     -11.4      2.479      5.877
REMARK  Name = 93184
REMARK  8 active torsions:
REMARK  status: ('A' for Active; 'I' for Inactive)
REMARK    1  A    between atoms: C_1  and  C_2
REMARK    2  A    between atoms: C_1  and  C_10
REMARK    3  A    between atoms: C_1  and  C_27
REMARK    4  A    between atoms: N_9  and  CA_18
REMARK    5  A    between atoms: CA_17  and  C_23
REMARK    6  A    between atoms: C_23  and  O_24
REMARK    7  A    between atoms: C_27  and  O_28
REMARK    8  A    between atoms: O_28  and  C_35
REMARK                            x       y       z     vdW  Elec       q    Type
REMARK                         _______ _______ _______ _____ _____    ______ ____
ROOT
ATOM      1  C   UNL     1      35.685 -22.961 -13.809  0.00  0.00    +0.198 C 
ENDROOT
BRANCH   1   2
ATOM      2  C   UNL     1      35.922 -22.501 -15.237  0.00  0.00    -0.003 C 
ATOM      3  C   UNL     1      37.091 -21.829 -15.538  0.00  0.00    -0.003 C 
ATOM      4  C   UNL     1      34.963 -22.766 -16.195  0.00  0.00    -0.003 C 
ATOM      5  C   UNL     1      37.309 -21.405 -16.850  0.00  0.00    -0.000 C 
ATOM      6  C   UNL     1      35.180 -22.343 -17.506  0.00  0.00    -0.000 C 
ATOM      7  C   UNL     1      36.353 -21.662 -17.834  0.00  0.00    -0.000 C 
ENDBRANCH   1   2
BRANCH   1  10
ATOM      8  O   UNL     1      37.590 -22.736 -12.327  0.00  0.00    -0.274 OA
ATOM      9  N   UNL     1      37.484 -24.616 -13.681  0.00  0.00    -0.296 N 
ATOM     10  C   UNL     1      37.013 -23.397 -13.188  0.00  0.00    +0.237 C 
ATOM     11  H   UNL     1      36.957 -25.079 -14.371  0.00  0.00    +0.150 HD
BRANCH   9  18
ATOM     12  S   UNL     1      37.354 -27.680 -13.831  0.00  0.00    -0.118 S 
ATOM     13  O   UNL     1      40.336 -24.706 -15.128  0.00  0.00    -0.273 OA
ATOM     14  N   UNL     1      39.765 -26.778 -14.151  0.00  0.00    -0.260 N 
ATOM     15  C   UNL     1      38.756 -26.767 -13.088  0.00  0.00    +0.151 C 
ATOM     16  C   UNL     1      38.519 -28.728 -14.837  0.00  0.00    +0.068 C 
ATOM     17  CA  UNL     1      39.652 -27.751 -15.219  0.00  0.00    +0.184 C 
ATOM     18  CA  UNL     1      38.730 -25.238 -13.215  0.00  0.00    +0.178 C 
ATOM     19  C   UNL     1      39.789 -25.424 -14.321  0.00  0.00    +0.247 C 
ATOM     20  C   UNL     1      38.964 -29.910 -13.963  0.00  0.00    +0.013 C 
ATOM     21  C   UNL     1      37.783 -29.240 -16.076  0.00  0.00    +0.013 C 
BRANCH  17  23
ATOM     22  OXT UNL     1      41.891 -28.366 -14.556  0.00  0.00    -0.248 OA
ATOM     23  C   UNL     1      41.001 -28.373 -15.393  0.00  0.00    +0.333 C 
BRANCH  23  24
ATOM     24  O   UNL     1      41.107 -28.949 -16.616  0.00  0.00    -0.479 OA
ATOM     25  H   UNL     1      41.800 -28.695 -17.194  0.00  0.00    +0.295 HD
ENDBRANCH  23  24
ENDBRANCH  17  23
ENDBRANCH   9  18
ENDBRANCH   1  10
BRANCH   1  27
ATOM     26  O   UNL     1      34.681 -25.153 -14.181  0.00  0.00    -0.249 OA
ATOM     27  C   UNL     1      34.597 -24.023 -13.717  0.00  0.00    +0.334 C 
BRANCH  27  28
ATOM     28  O   UNL     1      33.525 -23.515 -12.983  0.00  0.00    -0.424 OA
BRANCH  28  35
ATOM     29  C   UNL     1      28.447 -23.027 -16.059  0.00  0.00    +0.009 C 
ATOM     30  C   UNL     1      29.873 -22.476 -16.208  0.00  0.00    +0.026 C 
ATOM     31  C   UNL     1      28.578 -24.448 -15.489  0.00  0.00    +0.026 C 
ATOM     32  C   UNL     1      30.583 -23.210 -15.113  0.00  0.00    -0.023 C 
ATOM     33  C   UNL     1      29.847 -24.329 -14.705  0.00  0.00    -0.026 C 
ATOM     34  C   UNL     1      31.817 -22.923 -14.554  0.00  0.00    +0.033 C 
ATOM     35  C   UNL     1      32.306 -23.774 -13.560  0.00  0.00    +0.148 C 
ATOM     36  C   UNL     1      30.331 -25.184 -13.730  0.00  0.00    -0.001 C 
ATOM     37  C   UNL     1      31.569 -24.897 -13.152  0.00  0.00    +0.037 C 
ENDBRANCH  28  35
ENDBRANCH  27  28
ENDBRANCH   1  27
TORSDOF 8
ENDMDL
MODEL 3
REMARK VINA RESULT:     -10.0      2.169      6.603
REMARK  Name = 93184
REMARK  8 active torsions:
REMARK  status: ('A' for Active; 'I' for Inactive)
REMARK    1  A    between atoms: C_1  and  C_2
REMARK    2  A    between atoms: C_1  and  C_10
REMARK    3  A    between atoms: C_1  and  C_27
REMARK    4  A    between atoms: N_9  and  CA_18
REMARK    5  A    between atoms: CA_17  and  C_23
REMARK    6  A    between atoms: C_23  and  O_24
REMARK    7  A    between atoms: C_27  and  O_28
REMARK    8  A    between atoms: O_28  and  C_35
REMARK                            x       y       z     vdW  Elec       q    Type
REMARK                         _______ _______ _______ _____ _____    ______ ____
ROOT
ATOM      1  C   UNL     1      36.284 -22.595 -15.055  0.00  0.00    +0.198 C 
ENDROOT
BRANCH   1   2
ATOM      2  C   UNL     1      37.288 -23.365 -14.213  0.00  0.00    -0.003 C 
ATOM      3  C   UNL     1      37.159 -23.350 -12.838  0.00  0.00    -0.003 C 
ATOM      4  C   UNL     1      38.302 -24.058 -14.846  0.00  0.00    -0.003 C 
ATOM      5  C   UNL     1      38.081 -24.056 -12.065  0.00  0.00    -0.000 C 
ATOM      6  C   UNL     1      39.223 -24.763 -14.073  0.00  0.00    -0.000 C 
ATOM      7  C   UNL     1      39.113 -24.763 -12.683  0.00  0.00    -0.000 C 
ENDBRANCH   1   2
BRANCH   1  10
ATOM      8  O   UNL     1      35.340 -24.776 -15.530  0.00  0.00    -0.274 OA
ATOM      9  N   UNL     1      34.077 -22.906 -16.064  0.00  0.00    -0.296 N 
ATOM     10  C   UNL     1      35.210 -23.554 -15.569  0.00  0.00    +0.237 C 
ATOM     11  H   UNL     1      34.057 -21.922 -16.058  0.00  0.00    +0.150 HD
BRANCH   9  18
ATOM     12  S   UNL     1      32.381 -24.137 -13.819  0.00  0.00    -0.118 S 
ATOM     13  O   UNL     1      31.410 -21.713 -17.370  0.00  0.00    -0.273 OA
ATOM     14  N   UNL     1      30.959 -23.499 -15.893  0.00  0.00    -0.260 N 
ATOM     15  C   UNL     1      32.057 -24.424 -15.598  0.00  0.00    +0.151 C 
ATOM     16  C   UNL     1      30.588 -23.729 -13.519  0.00  0.00    +0.068 C 
ATOM     17  CA  UNL     1      30.166 -22.976 -14.800  0.00  0.00    +0.184 C 
ATOM     18  CA  UNL     1      32.911 -23.627 -16.593  0.00  0.00    +0.178 C 
ATOM     19  C   UNL     1      31.662 -22.743 -16.787  0.00  0.00    +0.247 C 
ATOM     20  C   UNL     1      29.838 -25.047 -13.280  0.00  0.00    +0.013 C 
ATOM     21  C   UNL     1      30.482 -22.833 -12.284  0.00  0.00    +0.013 C 
BRANCH  17  23
ATOM     22  OXT UNL     1      28.266 -24.064 -15.816  0.00  0.00    -0.248 OA
ATOM     23  C   UNL     1      28.729 -23.126 -15.185  0.00  0.00    +0.333 C 
BRANCH  23  24
ATOM     24  O   UNL     1      28.001 -22.072 -14.740  0.00  0.00    -0.479 OA
ATOM     25  H   UNL     1      27.969 -21.879 -13.824  0.00  0.00    +0.295 HD
ENDBRANCH  23  24
ENDBRANCH  17  23
ENDBRANCH   9  18
ENDBRANCH   1  10
BRANCH   1  27
ATOM     26  O   UNL     1      37.589 -20.756 -15.987  0.00  0.00    -0.249 OA
ATOM     27  C   UNL     1      36.954 -21.789 -16.160  0.00  0.00    +0.334 C 
BRANCH  27  28
ATOM     28  O   UNL     1      36.765 -22.441 -17.378  0.00  0.00    -0.424 OA
BRANCH  28  35
ATOM     29  C   UNL     1      35.894 -18.067 -21.327  0.00  0.00    +0.009 C 
ATOM     30  C   UNL     1      37.114 -18.836 -20.798  0.00  0.00    +0.026 C 
ATOM     31  C   UNL     1      34.733 -19.071 -21.394  0.00  0.00    +0.026 C 
ATOM     32  C   UNL     1      36.454 -19.881 -19.955  0.00  0.00    -0.023 C 
ATOM     33  C   UNL     1      35.102 -20.014 -20.294  0.00  0.00    -0.026 C 
ATOM     34  C   UNL     1      37.030 -20.687 -18.987  0.00  0.00    +0.033 C 
ATOM     35  C   UNL     1      36.224 -21.630 -18.346  0.00  0.00    +0.148 C 
ATOM     36  C   UNL     1      34.300 -20.956 -19.672  0.00  0.00    -0.001 C 
ATOM     37  C   UNL     1      34.869 -21.764 -18.686  0.00  0.00    +0.037 C 
ENDBRANCH  28  35
ENDBRANCH  27  28
ENDBRANCH   1  27
TORSDOF 8
ENDMDL
MODEL 4
REMARK VINA RESULT:      -9.7      9.475     14.206
REMARK  Name = 93184
REMARK  8 active torsions:
REMARK  status: ('A' for Active; 'I' for Inactive)
REMARK    1  A    between atoms: C_1  and  C_2
REMARK    2  A    between atoms: C_1  and  C_10
REMARK    3  A    between atoms: C_1  and  C_27
REMARK    4  A    between atoms: N_9  and  CA_18
REMARK    5  A    between atoms: CA_17  and  C_23
REMARK    6  A    between atoms: C_23  and  O_24
REMARK    7  A    between atoms: C_27  and  O_28
REMARK    8  A    between atoms: O_28  and  C_35
REMARK                            x       y       z     vdW  Elec       q    Type
REMARK                         _______ _______ _______ _____ _____    ______ ____
ROOT
ATOM      1  C   UNL     1      34.389 -14.044 -23.482  0.00  0.00    +0.198 C 
ENDROOT
BRANCH   1   2
ATOM      2  C   UNL     1      33.728 -13.899 -22.122  0.00  0.00    -0.003 C 
ATOM      3  C   UNL     1      34.345 -14.453 -21.016  0.00  0.00    -0.003 C 
ATOM      4  C   UNL     1      32.530 -13.218 -22.027  0.00  0.00    -0.003 C 
ATOM      5  C   UNL     1      33.738 -14.320 -19.767  0.00  0.00    -0.000 C 
ATOM      6  C   UNL     1      31.924 -13.086 -20.779  0.00  0.00    -0.000 C 
ATOM      7  C   UNL     1      32.527 -13.637 -19.648  0.00  0.00    -0.000 C 
ENDBRANCH   1   2
BRANCH   1  10
ATOM      8  O   UNL     1      33.482 -13.012 -25.480  0.00  0.00    -0.274 OA
ATOM      9  N   UNL     1      34.244 -11.620 -23.789  0.00  0.00    -0.296 N 
ATOM     10  C   UNL     1      33.990 -12.864 -24.370  0.00  0.00    +0.237 C 
ATOM     11  H   UNL     1      34.655 -11.594 -22.894  0.00  0.00    +0.150 HD
BRANCH   9  18
ATOM     12  S   UNL     1      32.061 -10.068 -22.288  0.00  0.00    -0.118 S 
ATOM     13  O   UNL     1      35.994  -8.945 -23.929  0.00  0.00    -0.273 OA
ATOM     14  N   UNL     1      33.710  -8.498 -23.531  0.00  0.00    -0.260 N 
ATOM     15  C   UNL     1      32.745  -9.538 -23.901  0.00  0.00    +0.151 C 
ATOM     16  C   UNL     1      32.289  -8.357 -21.585  0.00  0.00    +0.068 C 
ATOM     17  CA  UNL     1      33.605  -7.871 -22.230  0.00  0.00    +0.184 C 
ATOM     18  CA  UNL     1      33.926 -10.349 -24.451  0.00  0.00    +0.178 C 
ATOM     19  C   UNL     1      34.806  -9.166 -23.996  0.00  0.00    +0.247 C 
ATOM     20  C   UNL     1      31.053  -7.527 -21.957  0.00  0.00    +0.013 C 
ATOM     21  C   UNL     1      32.416  -8.458 -20.064  0.00  0.00    +0.013 C 
BRANCH  17  23
ATOM     22  OXT UNL     1      33.044  -5.554 -21.850  0.00  0.00    -0.248 OA
ATOM     23  C   UNL     1      33.705  -6.394 -22.442  0.00  0.00    +0.333 C 
BRANCH  23  24
ATOM     24  O   UNL     1      34.632  -6.108 -23.388  0.00  0.00    -0.479 OA
ATOM     25  H   UNL     1      34.770  -6.699 -24.102  0.00  0.00    +0.295 HD
ENDBRANCH  23  24
ENDBRANCH  17  23
ENDBRANCH   9  18
ENDBRANCH   1  10
BRANCH   1  27
ATOM     26  O   UNL     1      33.038 -15.737 -24.605  0.00  0.00    -0.249 OA
ATOM     27  C   UNL     1      34.110 -15.399 -24.119  0.00  0.00    +0.334 C 
BRANCH  27  28
ATOM     28  O   UNL     1      35.278 -16.162 -24.098  0.00  0.00    -0.424 OA
BRANCH  28  35
ATOM     29  C   UNL     1      36.488 -20.230 -19.918  0.00  0.00    +0.009 C 
ATOM     30  C   UNL     1      36.792 -18.738 -20.112  0.00  0.00    +0.026 C 
ATOM     31  C   UNL     1      35.085 -20.475 -20.494  0.00  0.00    +0.026 C 
ATOM     32  C   UNL     1      35.990 -18.435 -21.338  0.00  0.00    -0.023 C 
ATOM     33  C   UNL     1      35.021 -19.422 -21.555  0.00  0.00    -0.026 C 
ATOM     34  C   UNL     1      36.089 -17.335 -22.173  0.00  0.00    +0.033 C 
ATOM     35  C   UNL     1      35.203 -17.239 -23.248  0.00  0.00    +0.148 C 
ATOM     36  C   UNL     1      34.131 -19.327 -22.611  0.00  0.00    -0.001 C 
ATOM     37  C   UNL     1      34.231 -18.228 -23.466  0.00  0.00    +0.037 C 
ENDBRANCH  28  35
ENDBRANCH  27  28
ENDBRANCH   1  27
TORSDOF 8
ENDMDL
MODEL 5
REMARK VINA RESULT:      -9.6      1.287      5.218
REMARK  Name = 93184
REMARK  8 active torsions:
REMARK  status: ('A' for Active; 'I' for Inactive)
REMARK    1  A    between atoms: C_1  and  C_2
REMARK    2  A    between atoms: C_1  and  C_10
REMARK    3  A    between atoms: C_1  and  C_27
REMARK    4  A    between atoms: N_9  and  CA_18
REMARK    5  A    between atoms: CA_17  and  C_23
REMARK    6  A    between atoms: C_23  and  O_24
REMARK    7  A    between atoms: C_27  and  O_28
REMARK    8  A    between atoms: O_28  and  C_35
REMARK                            x       y       z     vdW  Elec       q    Type
REMARK                         _______ _______ _______ _____ _____    ______ ____
ROOT
ATOM      1  C   UNL     1      34.338 -22.098 -17.375  0.00  0.00    +0.198 C 
ENDROOT
BRANCH   1   2
ATOM      2  C   UNL     1      34.354 -21.336 -18.689  0.00  0.00    -0.003 C 
ATOM      3  C   UNL     1      35.565 -21.094 -19.308  0.00  0.00    -0.003 C 
ATOM      4  C   UNL     1      33.157 -20.905 -19.228  0.00  0.00    -0.003 C 
ATOM      5  C   UNL     1      35.580 -20.394 -20.514  0.00  0.00    -0.000 C 
ATOM      6  C   UNL     1      33.172 -20.205 -20.434  0.00  0.00    -0.000 C 
ATOM      7  C   UNL     1      34.383 -19.949 -21.077  0.00  0.00    -0.000 C 
ENDBRANCH   1   2
BRANCH   1  10
ATOM      8  O   UNL     1      36.678 -21.476 -17.262  0.00  0.00    -0.274 OA
ATOM      9  N   UNL     1      35.735 -22.496 -15.406  0.00  0.00    -0.296 N 
ATOM     10  C   UNL     1      35.708 -21.985 -16.704  0.00  0.00    +0.237 C 
ATOM     11  H   UNL     1      34.911 -22.887 -15.036  0.00  0.00    +0.150 HD
BRANCH   9  18
ATOM     12  S   UNL     1      35.864 -24.933 -13.541  0.00  0.00    -0.118 S 
ATOM     13  O   UNL     1      38.774 -23.034 -16.251  0.00  0.00    -0.273 OA
ATOM     14  N   UNL     1      38.219 -24.074 -14.206  0.00  0.00    -0.260 N 
ATOM     15  C   UNL     1      37.062 -23.550 -13.475  0.00  0.00    +0.151 C 
ATOM     16  C   UNL     1      37.246 -26.182 -13.546  0.00  0.00    +0.068 C 
ATOM     17  CA  UNL     1      38.346 -25.505 -14.392  0.00  0.00    +0.184 C 
ATOM     18  CA  UNL     1      36.940 -22.477 -14.565  0.00  0.00    +0.178 C 
ATOM     19  C   UNL     1      38.167 -23.152 -15.211  0.00  0.00    +0.247 C 
ATOM     20  C   UNL     1      37.640 -26.453 -12.087  0.00  0.00    +0.013 C 
ATOM     21  C   UNL     1      36.749 -27.470 -14.204  0.00  0.00    +0.013 C 
BRANCH  17  23
ATOM     22  OXT UNL     1      40.289 -26.935 -14.309  0.00  0.00    -0.248 OA
ATOM     23  C   UNL     1      39.749 -25.876 -14.030  0.00  0.00    +0.333 C 
BRANCH  23  24
ATOM     24  O   UNL     1      40.346 -24.872 -13.341  0.00  0.00    -0.479 OA
ATOM     25  H   UNL     1      40.206 -24.789 -12.418  0.00  0.00    +0.295 HD
ENDBRANCH  23  24
ENDBRANCH  17  23
ENDBRANCH   9  18
ENDBRANCH   1  10
BRANCH   1  27
ATOM     26  O   UNL     1      33.778 -24.121 -18.619  0.00  0.00    -0.249 OA
ATOM     27  C   UNL     1      33.867 -23.536 -17.546  0.00  0.00    +0.334 C 
BRANCH  27  28
ATOM     28  O   UNL     1      33.603 -24.083 -16.290  0.00  0.00    -0.424 OA
BRANCH  28  35
ATOM     29  C   UNL     1      27.967 -22.304 -15.544  0.00  0.00    +0.009 C 
ATOM     30  C   UNL     1      28.684 -23.315 -16.452  0.00  0.00    +0.026 C 
ATOM     31  C   UNL     1      28.689 -22.337 -14.188  0.00  0.00    +0.026 C 
ATOM     32  C   UNL     1      30.071 -23.274 -15.891  0.00  0.00    -0.023 C 
ATOM     33  C   UNL     1      30.073 -22.718 -14.606  0.00  0.00    -0.026 C 
ATOM     34  C   UNL     1      31.239 -23.741 -16.470  0.00  0.00    +0.033 C 
ATOM     35  C   UNL     1      32.427 -23.633 -15.743  0.00  0.00    +0.148 C 
ATOM     36  C   UNL     1      31.244 -22.619 -13.874  0.00  0.00    -0.001 C 
ATOM     37  C   UNL     1      32.429 -23.076 -14.454  0.00  0.00    +0.037 C 
ENDBRANCH  28  35
ENDBRANCH  27  28
ENDBRANCH   1  27
TORSDOF 8
ENDMDL
MODEL 6
REMARK VINA RESULT:      -9.4     12.071     17.338
REMARK  Name = 93184
REMARK  8 active torsions:
REMARK  status: ('A' for Active; 'I' for Inactive)
REMARK    1  A    between atoms: C_1  and  C_2
REMARK    2  A    between atoms: C_1  and  C_10
REMARK    3  A    between atoms: C_1  and  C_27
REMARK    4  A    between atoms: N_9  and  CA_18
REMARK    5  A    between atoms: CA_17  and  C_23
REMARK    6  A    between atoms: C_23  and  O_24
REMARK    7  A    between atoms: C_27  and  O_28
REMARK    8  A    between atoms: O_28  and  C_35
REMARK                            x       y       z     vdW  Elec       q    Type
REMARK                         _______ _______ _______ _____ _____    ______ ____
ROOT
ATOM      1  C   UNL     1      32.550 -10.721 -22.957  0.00  0.00    +0.198 C 
ENDROOT
BRANCH   1   2
ATOM      2  C   UNL     1      33.611 -10.583 -24.035  0.00  0.00    -0.003 C 
ATOM      3  C   UNL     1      34.695  -9.758 -23.805  0.00  0.00    -0.003 C 
ATOM      4  C   UNL     1      33.463 -11.286 -25.215  0.00  0.00    -0.003 C 
ATOM      5  C   UNL     1      35.669  -9.630 -24.795  0.00  0.00    -0.000 C 
ATOM      6  C   UNL     1      34.437 -11.158 -26.205  0.00  0.00    -0.000 C 
ATOM      7  C   UNL     1      35.540 -10.330 -25.995  0.00  0.00    -0.000 C 
ENDBRANCH   1   2
BRANCH   1  10
ATOM      8  O   UNL     1      32.364  -9.528 -20.854  0.00  0.00    -0.274 OA
ATOM      9  N   UNL     1      32.838  -8.299 -22.763  0.00  0.00    -0.296 N 
ATOM     10  C   UNL     1      32.563  -9.477 -22.067  0.00  0.00    +0.237 C 
ATOM     11  H   UNL     1      32.984  -8.350 -23.735  0.00  0.00    +0.150 HD
BRANCH   9  18
ATOM     12  S   UNL     1      33.981  -6.158 -24.644  0.00  0.00    -0.118 S 
ATOM     13  O   UNL     1      30.463  -6.297 -21.993  0.00  0.00    -0.273 OA
ATOM     14  N   UNL     1      32.319  -5.167 -22.916  0.00  0.00    -0.260 N 
ATOM     15  C   UNL     1      33.614  -5.853 -22.877  0.00  0.00    +0.151 C 
ATOM     16  C   UNL     1      33.073  -4.609 -25.140  0.00  0.00    +0.068 C 
ATOM     17  CA  UNL     1      31.887  -4.549 -24.153  0.00  0.00    +0.184 C 
ATOM     18  CA  UNL     1      32.919  -6.985 -22.109  0.00  0.00    +0.178 C 
ATOM     19  C   UNL     1      31.637  -6.139 -22.242  0.00  0.00    +0.247 C 
ATOM     20  C   UNL     1      34.053  -3.432 -25.030  0.00  0.00    +0.013 C 
ATOM     21  C   UNL     1      32.591  -4.756 -26.584  0.00  0.00    +0.013 C 
BRANCH  17  23
ATOM     22  OXT UNL     1      31.846  -2.478 -22.913  0.00  0.00    -0.248 OA
ATOM     23  C   UNL     1      31.405  -3.174 -23.816  0.00  0.00    +0.333 C 
BRANCH  23  24
ATOM     24  O   UNL     1      30.403  -2.800 -24.648  0.00  0.00    -0.479 OA
ATOM     25  H   UNL     1      29.521  -3.058 -24.465  0.00  0.00    +0.295 HD
ENDBRANCH  23  24
ENDBRANCH  17  23
ENDBRANCH   9  18
ENDBRANCH   1  10
BRANCH   1  27
ATOM     26  O   UNL     1      31.751 -12.636 -21.672  0.00  0.00    -0.249 OA
ATOM     27  C   UNL     1      32.684 -12.023 -22.177  0.00  0.00    +0.334 C 
BRANCH  27  28
ATOM     28  O   UNL     1      34.021 -12.418 -22.176  0.00  0.00    -0.424 OA
BRANCH  28  35
ATOM     29  C   UNL     1      35.701 -18.130 -22.363  0.00  0.00    +0.009 C 
ATOM     30  C   UNL     1      35.363 -17.125 -21.252  0.00  0.00    +0.026 C 
ATOM     31  C   UNL     1      34.761 -17.823 -23.539  0.00  0.00    +0.026 C 
ATOM     32  C   UNL     1      34.876 -15.960 -22.054  0.00  0.00    -0.023 C 
ATOM     33  C   UNL     1      34.534 -16.357 -23.352  0.00  0.00    -0.026 C 
ATOM     34  C   UNL     1      34.707 -14.650 -21.639  0.00  0.00    +0.033 C 
ATOM     35  C   UNL     1      34.197 -13.727 -22.554  0.00  0.00    +0.148 C 
ATOM     36  C   UNL     1      34.016 -15.450 -24.262  0.00  0.00    -0.001 C 
ATOM     37  C   UNL     1      33.854 -14.124 -23.856  0.00  0.00    +0.037 C 
ENDBRANCH  28  35
ENDBRANCH  27  28
ENDBRANCH   1  27
TORSDOF 8
ENDMDL
