MODEL 1
REMARK VINA RESULT:     -11.2      0.000      0.000
REMARK  Name = 9889200
REMARK  5 active torsions:
REMARK  status: ('A' for Active; 'I' for Inactive)
REMARK    1  A    between atoms: C_1  and  C_21
REMARK    2  A    between atoms: C_4  and  O_7
REMARK    3  A    between atoms: O_7  and  C_8
REMARK    4  A    between atoms: C_8  and  C_12
REMARK    5  A    between atoms: C_21  and  C_26
REMARK                            x       y       z     vdW  Elec       q    Type
REMARK                         _______ _______ _______ _____ _____    ______ ____
ROOT
ATOM      1  C   UNL     1      35.529 -19.854 -20.415  0.00  0.00    -0.021 C 
ATOM      2  C   UNL     1      36.501 -20.548 -19.695  0.00  0.00    -0.001 C 
ATOM      3  C   UNL     1      34.182 -20.181 -20.265  0.00  0.00    -0.001 C 
ATOM      4  C   UNL     1      34.781 -21.890 -18.683  0.00  0.00    +0.139 C 
ATOM      5  C   UNL     1      36.125 -21.572 -18.824  0.00  0.00    +0.037 C 
ATOM      6  C   UNL     1      33.806 -21.204 -19.395  0.00  0.00    +0.037 C 
ENDROOT
BRANCH   4   7
ATOM      7  O   UNL     1      34.411 -22.898 -17.824  0.00  0.00    -0.466 OA
BRANCH   7   8
ATOM      8  C   UNL     1      34.656 -22.697 -16.449  0.00  0.00    +0.279 C 
BRANCH   8  12
ATOM      9  O   UNL     1      32.840 -24.673 -12.432  0.00  0.00    -0.274 OA
ATOM     10  N   UNL     1      33.741 -23.717 -14.369  0.00  0.00    -0.232 N 
ATOM     11  N   UNL     1      32.319 -23.206 -16.205  0.00  0.00    -0.391 NA
ATOM     12  C   UNL     1      33.491 -23.230 -15.650  0.00  0.00    +0.210 C 
ATOM     13  C   UNL     1      31.365 -24.207 -14.184  0.00  0.00    +0.151 C 
ATOM     14  C   UNL     1      31.228 -23.697 -15.477  0.00  0.00    +0.123 C 
ATOM     15  C   UNL     1      32.708 -24.227 -13.568  0.00  0.00    +0.241 C 
ATOM     16  C   UNL     1      35.095 -23.710 -13.815  0.00  0.00    +0.122 C 
ATOM     17  C   UNL     1      30.254 -24.690 -13.484  0.00  0.00    -0.010 C 
ATOM     18  C   UNL     1      29.958 -23.676 -16.064  0.00  0.00    +0.028 C 
ATOM     19  C   UNL     1      28.995 -24.662 -14.081  0.00  0.00    -0.004 C 
ATOM     20  C   UNL     1      28.846 -24.156 -15.371  0.00  0.00    +0.002 C 
ENDBRANCH   8  12
ENDBRANCH   7   8
ENDBRANCH   4   7
BRANCH   1  21
ATOM     21  C   UNL     1      35.931 -18.760 -21.346  0.00  0.00    +0.047 C 
BRANCH  21  26
ATOM     22  S   UNL     1      34.531 -18.240 -23.668  0.00  0.00    -0.048 S 
ATOM     23  O   UNL     1      35.110 -15.964 -20.605  0.00  0.00    -0.274 OA
ATOM     24  O   UNL     1      34.501 -16.090 -25.182  0.00  0.00    -0.263 OA
ATOM     25  N   UNL     1      34.807 -15.821 -22.894  0.00  0.00    -0.246 N 
ATOM     26  C   UNL     1      34.729 -17.984 -21.879  0.00  0.00    +0.137 C 
ATOM     27  C   UNL     1      34.907 -16.493 -21.693  0.00  0.00    +0.239 C 
ATOM     28  C   UNL     1      34.608 -16.533 -24.048  0.00  0.00    +0.279 C 
ATOM     29  H   UNL     1      34.878 -14.840 -22.921  0.00  0.00    +0.158 HD
ENDBRANCH  21  26
ENDBRANCH   1  21
TORSDOF 5
ENDMDL
MODEL 2
REMARK VINA RESULT:     -11.2      4.236     11.228
REMARK  Name = 9889200
REMARK  5 active torsions:
REMARK  status: ('A' for Active; 'I' for Inactive)
REMARK    1  A    between atoms: C_1  and  C_21
REMARK    2  A    between atoms: C_4  and  O_7
REMARK    3  A    between atoms: O_7  and  C_8
REMARK    4  A    between atoms: C_8  and  C_12
REMARK    5  A    between atoms: C_21  and  C_26
REMARK                            x       y       z     vdW  Elec       q    Type
REMARK                         _______ _______ _______ _____ _____    ______ ____
ROOT
ATOM      1  C   UNL     1      34.995 -18.743 -21.896  0.00  0.00    -0.021 C 
ATOM      2  C   UNL     1      34.666 -18.487 -23.227  0.00  0.00    -0.001 C 
ATOM      3  C   UNL     1      35.307 -17.688 -21.039  0.00  0.00    -0.001 C 
ATOM      4  C   UNL     1      34.963 -16.132 -22.840  0.00  0.00    +0.139 C 
ATOM      5  C   UNL     1      34.651 -17.175 -23.701  0.00  0.00    +0.037 C 
ATOM      6  C   UNL     1      35.290 -16.377 -21.512  0.00  0.00    +0.037 C 
ENDROOT
BRANCH   4   7
ATOM      7  O   UNL     1      34.946 -14.840 -23.307  0.00  0.00    -0.466 OA
BRANCH   7   8
ATOM      8  C   UNL     1      33.759 -14.393 -23.926  0.00  0.00    +0.279 C 
BRANCH   8  12
ATOM      9  O   UNL     1      33.277  -9.592 -24.185  0.00  0.00    -0.274 OA
ATOM     10  N   UNL     1      33.521 -11.918 -24.081  0.00  0.00    -0.232 N 
ATOM     11  N   UNL     1      32.848 -13.089 -22.123  0.00  0.00    -0.391 NA
ATOM     12  C   UNL     1      33.345 -13.073 -23.321  0.00  0.00    +0.210 C 
ATOM     13  C   UNL     1      32.590 -10.655 -22.220  0.00  0.00    +0.151 C 
ATOM     14  C   UNL     1      32.459 -11.873 -21.547  0.00  0.00    +0.123 C 
ATOM     15  C   UNL     1      33.158 -10.656 -23.584  0.00  0.00    +0.241 C 
ATOM     16  C   UNL     1      34.090 -11.984 -25.426  0.00  0.00    +0.122 C 
ATOM     17  C   UNL     1      32.192  -9.458 -21.616  0.00  0.00    -0.010 C 
ATOM     18  C   UNL     1      31.922 -11.877 -20.255  0.00  0.00    +0.028 C 
ATOM     19  C   UNL     1      31.657  -9.477 -20.329  0.00  0.00    -0.004 C 
ATOM     20  C   UNL     1      31.522 -10.686 -19.649  0.00  0.00    +0.002 C 
ENDBRANCH   8  12
ENDBRANCH   7   8
ENDBRANCH   4   7
BRANCH   1  21
ATOM     21  C   UNL     1      35.013 -20.145 -21.390  0.00  0.00    +0.047 C 
BRANCH  21  26
ATOM     22  S   UNL     1      35.313 -21.502 -19.003  0.00  0.00    -0.048 S 
ATOM     23  O   UNL     1      32.098 -20.149 -20.654  0.00  0.00    -0.274 OA
ATOM     24  O   UNL     1      33.889 -23.459 -17.976  0.00  0.00    -0.263 OA
ATOM     25  N   UNL     1      32.803 -21.879 -19.290  0.00  0.00    -0.246 N 
ATOM     26  C   UNL     1      34.419 -20.261 -19.987  0.00  0.00    +0.137 C 
ATOM     27  C   UNL     1      32.981 -20.730 -20.033  0.00  0.00    +0.239 C 
ATOM     28  C   UNL     1      33.880 -22.449 -18.665  0.00  0.00    +0.279 C 
ATOM     29  H   UNL     1      31.909 -22.283 -19.209  0.00  0.00    +0.158 HD
ENDBRANCH  21  26
ENDBRANCH   1  21
TORSDOF 5
ENDMDL
MODEL 3
REMARK VINA RESULT:     -11.1      1.961      4.154
REMARK  Name = 9889200
REMARK  5 active torsions:
REMARK  status: ('A' for Active; 'I' for Inactive)
REMARK    1  A    between atoms: C_1  and  C_21
REMARK    2  A    between atoms: C_4  and  O_7
REMARK    3  A    between atoms: O_7  and  C_8
REMARK    4  A    between atoms: C_8  and  C_12
REMARK    5  A    between atoms: C_21  and  C_26
REMARK                            x       y       z     vdW  Elec       q    Type
REMARK                         _______ _______ _______ _____ _____    ______ ____
ROOT
ATOM      1  C   UNL     1      34.127 -20.217 -20.606  0.00  0.00    -0.021 C 
ATOM      2  C   UNL     1      33.172 -20.823 -19.790  0.00  0.00    -0.001 C 
ATOM      3  C   UNL     1      35.484 -20.378 -20.331  0.00  0.00    -0.001 C 
ATOM      4  C   UNL     1      34.929 -21.744 -18.431  0.00  0.00    +0.139 C 
ATOM      5  C   UNL     1      33.576 -21.591 -18.696  0.00  0.00    +0.037 C 
ATOM      6  C   UNL     1      35.888 -21.146 -19.239  0.00  0.00    +0.037 C 
ENDROOT
BRANCH   4   7
ATOM      7  O   UNL     1      35.327 -22.502 -17.355  0.00  0.00    -0.466 OA
BRANCH   7   8
ATOM      8  C   UNL     1      34.315 -22.998 -16.506  0.00  0.00    +0.279 C 
BRANCH   8  12
ATOM      9  O   UNL     1      34.033 -24.311 -11.865  0.00  0.00    -0.274 OA
ATOM     10  N   UNL     1      34.147 -23.668 -14.113  0.00  0.00    -0.232 N 
ATOM     11  N   UNL     1      36.193 -23.896 -15.303  0.00  0.00    -0.391 NA
ATOM     12  C   UNL     1      34.942 -23.555 -15.251  0.00  0.00    +0.210 C 
ATOM     13  C   UNL     1      36.086 -24.571 -12.952  0.00  0.00    +0.151 C 
ATOM     14  C   UNL     1      36.791 -24.414 -14.148  0.00  0.00    +0.123 C 
ATOM     15  C   UNL     1      34.662 -24.177 -12.910  0.00  0.00    +0.241 C 
ATOM     16  C   UNL     1      32.743 -23.259 -14.135  0.00  0.00    +0.122 C 
ATOM     17  C   UNL     1      36.713 -25.092 -11.815  0.00  0.00    -0.010 C 
ATOM     18  C   UNL     1      38.139 -24.786 -14.191  0.00  0.00    +0.028 C 
ATOM     19  C   UNL     1      38.056 -25.459 -11.873  0.00  0.00    -0.004 C 
ATOM     20  C   UNL     1      38.769 -25.306 -13.061  0.00  0.00    +0.002 C 
ENDBRANCH   8  12
ENDBRANCH   7   8
ENDBRANCH   4   7
BRANCH   1  21
ATOM     21  C   UNL     1      33.695 -19.396 -21.774  0.00  0.00    +0.047 C 
BRANCH  21  26
ATOM     22  S   UNL     1      35.263 -17.137 -21.520  0.00  0.00    -0.048 S 
ATOM     23  O   UNL     1      34.165 -18.999 -24.717  0.00  0.00    -0.274 OA
ATOM     24  O   UNL     1      35.236 -14.894 -22.891  0.00  0.00    -0.263 OA
ATOM     25  N   UNL     1      34.678 -16.864 -23.992  0.00  0.00    -0.246 N 
ATOM     26  C   UNL     1      34.864 -18.662 -22.428  0.00  0.00    +0.137 C 
ATOM     27  C   UNL     1      34.525 -18.226 -23.836  0.00  0.00    +0.239 C 
ATOM     28  C   UNL     1      35.060 -16.103 -22.918  0.00  0.00    +0.279 C 
ATOM     29  H   UNL     1      34.516 -16.443 -24.867  0.00  0.00    +0.158 HD
ENDBRANCH  21  26
ENDBRANCH   1  21
TORSDOF 5
ENDMDL
MODEL 4
REMARK VINA RESULT:     -11.1      1.038      3.194
REMARK  Name = 9889200
REMARK  5 active torsions:
REMARK  status: ('A' for Active; 'I' for Inactive)
REMARK    1  A    between atoms: C_1  and  C_21
REMARK    2  A    between atoms: C_4  and  O_7
REMARK    3  A    between atoms: O_7  and  C_8
REMARK    4  A    between atoms: C_8  and  C_12
REMARK    5  A    between atoms: C_21  and  C_26
REMARK                            x       y       z     vdW  Elec       q    Type
REMARK                         _______ _______ _______ _____ _____    ______ ____
ROOT
ATOM      1  C   UNL     1      35.095 -20.161 -20.279  0.00  0.00    -0.021 C 
ATOM      2  C   UNL     1      33.710 -20.323 -20.247  0.00  0.00    -0.001 C 
ATOM      3  C   UNL     1      35.915 -21.025 -19.554  0.00  0.00    -0.001 C 
ATOM      4  C   UNL     1      33.970 -22.204 -18.772  0.00  0.00    +0.139 C 
ATOM      5  C   UNL     1      33.145 -21.349 -19.489  0.00  0.00    +0.037 C 
ATOM      6  C   UNL     1      35.351 -22.052 -18.797  0.00  0.00    +0.037 C 
ENDROOT
BRANCH   4   7
ATOM      7  O   UNL     1      33.414 -23.216 -18.027  0.00  0.00    -0.466 OA
BRANCH   7   8
ATOM      8  C   UNL     1      32.539 -22.844 -16.984  0.00  0.00    +0.279 C 
BRANCH   8  12
ATOM      9  O   UNL     1      32.200 -24.736 -12.551  0.00  0.00    -0.274 OA
ATOM     10  N   UNL     1      32.341 -23.823 -14.702  0.00  0.00    -0.232 N 
ATOM     11  N   UNL     1      34.413 -22.953 -15.481  0.00  0.00    -0.391 NA
ATOM     12  C   UNL     1      33.155 -23.218 -15.657  0.00  0.00    +0.210 C 
ATOM     13  C   UNL     1      34.276 -23.904 -13.228  0.00  0.00    +0.151 C 
ATOM     14  C   UNL     1      35.000 -23.293 -14.255  0.00  0.00    +0.123 C 
ATOM     15  C   UNL     1      32.845 -24.199 -13.447  0.00  0.00    +0.241 C 
ATOM     16  C   UNL     1      30.930 -24.088 -14.978  0.00  0.00    +0.122 C 
ATOM     17  C   UNL     1      34.893 -24.232 -12.016  0.00  0.00    -0.010 C 
ATOM     18  C   UNL     1      36.355 -23.012 -14.053  0.00  0.00    +0.028 C 
ATOM     19  C   UNL     1      36.245 -23.947 -11.828  0.00  0.00    -0.004 C 
ATOM     20  C   UNL     1      36.975 -23.337 -12.846  0.00  0.00    +0.002 C 
ENDBRANCH   8  12
ENDBRANCH   7   8
ENDBRANCH   4   7
BRANCH   1  21
ATOM     21  C   UNL     1      35.698 -19.063 -21.087  0.00  0.00    +0.047 C 
BRANCH  21  26
ATOM     22  S   UNL     1      34.593 -18.410 -23.532  0.00  0.00    -0.048 S 
ATOM     23  O   UNL     1      35.100 -16.195 -20.413  0.00  0.00    -0.274 OA
ATOM     24  O   UNL     1      34.931 -16.274 -25.028  0.00  0.00    -0.263 OA
ATOM     25  N   UNL     1      35.039 -16.030 -22.719  0.00  0.00    -0.246 N 
ATOM     26  C   UNL     1      34.640 -18.169 -21.730  0.00  0.00    +0.137 C 
ATOM     27  C   UNL     1      34.951 -16.704 -21.519  0.00  0.00    +0.239 C 
ATOM     28  C   UNL     1      34.881 -16.721 -23.891  0.00  0.00    +0.279 C 
ATOM     29  H   UNL     1      35.212 -15.061 -22.732  0.00  0.00    +0.158 HD
ENDBRANCH  21  26
ENDBRANCH   1  21
TORSDOF 5
ENDMDL
MODEL 5
REMARK VINA RESULT:     -11.1      1.428      1.798
REMARK  Name = 9889200
REMARK  5 active torsions:
REMARK  status: ('A' for Active; 'I' for Inactive)
REMARK    1  A    between atoms: C_1  and  C_21
REMARK    2  A    between atoms: C_4  and  O_7
REMARK    3  A    between atoms: O_7  and  C_8
REMARK    4  A    between atoms: C_8  and  C_12
REMARK    5  A    between atoms: C_21  and  C_26
REMARK                            x       y       z     vdW  Elec       q    Type
REMARK                         _______ _______ _______ _____ _____    ______ ____
ROOT
ATOM      1  C   UNL     1      34.311 -20.314 -20.288  0.00  0.00    -0.021 C 
ATOM      2  C   UNL     1      35.677 -20.432 -20.033  0.00  0.00    -0.001 C 
ATOM      3  C   UNL     1      33.393 -21.020 -19.511  0.00  0.00    -0.001 C 
ATOM      4  C   UNL     1      35.203 -21.956 -18.235  0.00  0.00    +0.139 C 
ATOM      5  C   UNL     1      36.125 -21.258 -19.001  0.00  0.00    +0.037 C 
ATOM      6  C   UNL     1      33.841 -21.845 -18.479  0.00  0.00    +0.037 C 
ENDROOT
BRANCH   4   7
ATOM      7  O   UNL     1      35.645 -22.768 -17.217  0.00  0.00    -0.466 OA
BRANCH   7   8
ATOM      8  C   UNL     1      35.643 -22.228 -15.914  0.00  0.00    +0.279 C 
BRANCH   8  12
ATOM      9  O   UNL     1      34.238 -24.511 -11.894  0.00  0.00    -0.274 OA
ATOM     10  N   UNL     1      34.941 -23.404 -13.833  0.00  0.00    -0.232 N 
ATOM     11  N   UNL     1      33.394 -23.014 -15.597  0.00  0.00    -0.391 NA
ATOM     12  C   UNL     1      34.583 -22.916 -15.088  0.00  0.00    +0.210 C 
ATOM     13  C   UNL     1      32.647 -24.175 -13.574  0.00  0.00    +0.151 C 
ATOM     14  C   UNL     1      32.398 -23.650 -14.844  0.00  0.00    +0.123 C 
ATOM     15  C   UNL     1      34.008 -24.054 -13.010  0.00  0.00    +0.241 C 
ATOM     16  C   UNL     1      36.306 -23.253 -13.331  0.00  0.00    +0.122 C 
ATOM     17  C   UNL     1      31.630 -24.804 -12.847  0.00  0.00    -0.010 C 
ATOM     18  C   UNL     1      31.111 -23.762 -15.381  0.00  0.00    +0.028 C 
ATOM     19  C   UNL     1      30.352 -24.908 -13.395  0.00  0.00    -0.004 C 
ATOM     20  C   UNL     1      30.093 -24.388 -14.661  0.00  0.00    +0.002 C 
ENDBRANCH   8  12
ENDBRANCH   7   8
ENDBRANCH   4   7
BRANCH   1  21
ATOM     21  C   UNL     1      33.832 -19.433 -21.391  0.00  0.00    +0.047 C 
BRANCH  21  26
ATOM     22  S   UNL     1      35.339 -17.120 -21.429  0.00  0.00    -0.048 S 
ATOM     23  O   UNL     1      34.301 -19.405 -24.361  0.00  0.00    -0.274 OA
ATOM     24  O   UNL     1      35.259 -15.072 -23.077  0.00  0.00    -0.263 OA
ATOM     25  N   UNL     1      34.756 -17.181 -23.915  0.00  0.00    -0.246 N 
ATOM     26  C   UNL     1      34.983 -18.758 -22.134  0.00  0.00    +0.137 C 
ATOM     27  C   UNL     1      34.638 -18.515 -23.586  0.00  0.00    +0.239 C 
ATOM     28  C   UNL     1      35.114 -16.279 -22.948  0.00  0.00    +0.279 C 
ATOM     29  H   UNL     1      34.587 -16.881 -24.837  0.00  0.00    +0.158 HD
ENDBRANCH  21  26
ENDBRANCH   1  21
TORSDOF 5
ENDMDL
MODEL 6
REMARK VINA RESULT:     -10.9      2.705     10.172
REMARK  Name = 9889200
REMARK  5 active torsions:
REMARK  status: ('A' for Active; 'I' for Inactive)
REMARK    1  A    between atoms: C_1  and  C_21
REMARK    2  A    between atoms: C_4  and  O_7
REMARK    3  A    between atoms: O_7  and  C_8
REMARK    4  A    between atoms: C_8  and  C_12
REMARK    5  A    between atoms: C_21  and  C_26
REMARK                            x       y       z     vdW  Elec       q    Type
REMARK                         _______ _______ _______ _____ _____    ______ ____
ROOT
ATOM      1  C   UNL     1      33.882 -22.177 -18.409  0.00  0.00    -0.021 C 
ATOM      2  C   UNL     1      35.267 -22.028 -18.343  0.00  0.00    -0.001 C 
ATOM      3  C   UNL     1      33.125 -21.318 -19.205  0.00  0.00    -0.001 C 
ATOM      4  C   UNL     1      35.133 -20.168 -19.860  0.00  0.00    +0.139 C 
ATOM      5  C   UNL     1      35.896 -21.018 -19.072  0.00  0.00    +0.037 C 
ATOM      6  C   UNL     1      33.753 -20.308 -19.934  0.00  0.00    +0.037 C 
ENDROOT
BRANCH   4   7
ATOM      7  O   UNL     1      35.752 -19.174 -20.580  0.00  0.00    -0.466 OA
BRANCH   7   8
ATOM      8  C   UNL     1      35.528 -19.150 -21.973  0.00  0.00    +0.279 C 
BRANCH   8  12
ATOM      9  O   UNL     1      33.991 -16.028 -25.325  0.00  0.00    -0.274 OA
ATOM     10  N   UNL     1      34.738 -17.557 -23.717  0.00  0.00    -0.232 N 
ATOM     11  N   UNL     1      35.057 -16.846 -21.470  0.00  0.00    -0.391 NA
ATOM     12  C   UNL     1      35.086 -17.766 -22.385  0.00  0.00    +0.210 C 
ATOM     13  C   UNL     1      34.277 -15.237 -23.144  0.00  0.00    +0.151 C 
ATOM     14  C   UNL     1      34.650 -15.557 -21.836  0.00  0.00    +0.123 C 
ATOM     15  C   UNL     1      34.317 -16.298 -24.172  0.00  0.00    +0.241 C 
ATOM     16  C   UNL     1      34.798 -18.649 -24.688  0.00  0.00    +0.122 C 
ATOM     17  C   UNL     1      33.875 -13.939 -23.476  0.00  0.00    -0.010 C 
ATOM     18  C   UNL     1      34.614 -14.556 -20.859  0.00  0.00    +0.028 C 
ATOM     19  C   UNL     1      33.843 -12.952 -22.492  0.00  0.00    -0.004 C 
ATOM     20  C   UNL     1      34.213 -13.260 -21.184  0.00  0.00    +0.002 C 
ENDBRANCH   8  12
ENDBRANCH   7   8
ENDBRANCH   4   7
BRANCH   1  21
ATOM     21  C   UNL     1      33.210 -23.256 -17.629  0.00  0.00    +0.047 C 
BRANCH  21  26
ATOM     22  S   UNL     1      33.511 -23.773 -14.934  0.00  0.00    -0.048 S 
ATOM     23  O   UNL     1      30.434 -22.422 -16.831  0.00  0.00    -0.274 OA
ATOM     24  O   UNL     1      31.876 -24.945 -13.240  0.00  0.00    -0.263 OA
ATOM     25  N   UNL     1      30.958 -23.705 -14.979  0.00  0.00    -0.246 N 
ATOM     26  C   UNL     1      32.754 -22.776 -16.253  0.00  0.00    +0.137 C 
ATOM     27  C   UNL     1      31.259 -22.931 -16.080  0.00  0.00    +0.239 C 
ATOM     28  C   UNL     1      31.976 -24.242 -14.235  0.00  0.00    +0.279 C 
ATOM     29  H   UNL     1      30.020 -23.869 -14.730  0.00  0.00    +0.158 HD
ENDBRANCH  21  26
ENDBRANCH   1  21
TORSDOF 5
ENDMDL
MODEL 7
REMARK VINA RESULT:     -10.6      3.048     10.254
REMARK  Name = 9889200
REMARK  5 active torsions:
REMARK  status: ('A' for Active; 'I' for Inactive)
REMARK    1  A    between atoms: C_1  and  C_21
REMARK    2  A    between atoms: C_4  and  O_7
REMARK    3  A    between atoms: O_7  and  C_8
REMARK    4  A    between atoms: C_8  and  C_12
REMARK    5  A    between atoms: C_21  and  C_26
REMARK                            x       y       z     vdW  Elec       q    Type
REMARK                         _______ _______ _______ _____ _____    ______ ____
ROOT
ATOM      1  C   UNL     1      34.481 -22.543 -17.546  0.00  0.00    -0.021 C 
ATOM      2  C   UNL     1      35.660 -21.980 -18.033  0.00  0.00    -0.001 C 
ATOM      3  C   UNL     1      33.256 -22.202 -18.119  0.00  0.00    -0.001 C 
ATOM      4  C   UNL     1      34.390 -20.741 -19.656  0.00  0.00    +0.139 C 
ATOM      5  C   UNL     1      35.615 -21.074 -19.094  0.00  0.00    +0.037 C 
ATOM      6  C   UNL     1      33.210 -21.297 -19.180  0.00  0.00    +0.037 C 
ENDROOT
BRANCH   4   7
ATOM      7  O   UNL     1      34.346 -19.850 -20.702  0.00  0.00    -0.466 OA
BRANCH   7   8
ATOM      8  C   UNL     1      35.487 -19.049 -20.917  0.00  0.00    +0.279 C 
BRANCH   8  12
ATOM      9  O   UNL     1      34.261 -16.947 -25.091  0.00  0.00    -0.274 OA
ATOM     10  N   UNL     1      34.858 -17.986 -23.080  0.00  0.00    -0.232 N 
ATOM     11  N   UNL     1      35.014 -16.698 -21.087  0.00  0.00    -0.391 NA
ATOM     12  C   UNL     1      35.099 -17.829 -21.717  0.00  0.00    +0.210 C 
ATOM     13  C   UNL     1      34.390 -15.600 -23.185  0.00  0.00    +0.151 C 
ATOM     14  C   UNL     1      34.656 -15.556 -21.814  0.00  0.00    +0.123 C 
ATOM     15  C   UNL     1      34.492 -16.897 -23.887  0.00  0.00    +0.241 C 
ATOM     16  C   UNL     1      34.976 -19.297 -23.716  0.00  0.00    +0.122 C 
ATOM     17  C   UNL     1      34.034 -14.441 -23.882  0.00  0.00    -0.010 C 
ATOM     18  C   UNL     1      34.560 -14.330 -21.146  0.00  0.00    +0.028 C 
ATOM     19  C   UNL     1      33.942 -13.226 -23.204  0.00  0.00    -0.004 C 
ATOM     20  C   UNL     1      34.205 -13.171 -21.836  0.00  0.00    +0.002 C 
ENDBRANCH   8  12
ENDBRANCH   7   8
ENDBRANCH   4   7
BRANCH   1  21
ATOM     21  C   UNL     1      34.530 -23.510 -16.412  0.00  0.00    +0.047 C 
BRANCH  21  26
ATOM     22  S   UNL     1      35.670 -23.428 -13.899  0.00  0.00    -0.048 S 
ATOM     23  O   UNL     1      31.994 -22.868 -14.930  0.00  0.00    -0.274 OA
ATOM     24  O   UNL     1      34.815 -24.416 -11.617  0.00  0.00    -0.263 OA
ATOM     25  N   UNL     1      33.239 -23.675 -13.156  0.00  0.00    -0.246 N 
ATOM     26  C   UNL     1      34.407 -22.817 -15.056  0.00  0.00    +0.137 C 
ATOM     27  C   UNL     1      33.075 -23.111 -14.404  0.00  0.00    +0.239 C 
ATOM     28  C   UNL     1      34.504 -23.924 -12.692  0.00  0.00    +0.279 C 
ATOM     29  H   UNL     1      32.454 -23.895 -12.604  0.00  0.00    +0.158 HD
ENDBRANCH  21  26
ENDBRANCH   1  21
TORSDOF 5
ENDMDL
MODEL 8
REMARK VINA RESULT:     -10.6      3.176      4.675
REMARK  Name = 9889200
REMARK  5 active torsions:
REMARK  status: ('A' for Active; 'I' for Inactive)
REMARK    1  A    between atoms: C_1  and  C_21
REMARK    2  A    between atoms: C_4  and  O_7
REMARK    3  A    between atoms: O_7  and  C_8
REMARK    4  A    between atoms: C_8  and  C_12
REMARK    5  A    between atoms: C_21  and  C_26
REMARK                            x       y       z     vdW  Elec       q    Type
REMARK                         _______ _______ _______ _____ _____    ______ ____
ROOT
ATOM      1  C   UNL     1      35.657 -21.517 -19.024  0.00  0.00    -0.021 C 
ATOM      2  C   UNL     1      36.635 -21.518 -18.031  0.00  0.00    -0.001 C 
ATOM      3  C   UNL     1      34.394 -22.048 -18.762  0.00  0.00    -0.001 C 
ATOM      4  C   UNL     1      35.092 -22.580 -16.523  0.00  0.00    +0.139 C 
ATOM      5  C   UNL     1      36.351 -22.053 -16.773  0.00  0.00    +0.037 C 
ATOM      6  C   UNL     1      34.110 -22.582 -17.505  0.00  0.00    +0.037 C 
ENDROOT
BRANCH   4   7
ATOM      7  O   UNL     1      34.812 -23.105 -15.283  0.00  0.00    -0.466 OA
BRANCH   7   8
ATOM      8  C   UNL     1      35.783 -22.930 -14.275  0.00  0.00    +0.279 C 
BRANCH   8  12
ATOM      9  O   UNL     1      37.151 -26.007 -10.809  0.00  0.00    -0.274 OA
ATOM     10  N   UNL     1      36.485 -24.500 -12.471  0.00  0.00    -0.232 N 
ATOM     11  N   UNL     1      36.531 -25.165 -14.754  0.00  0.00    -0.391 NA
ATOM     12  C   UNL     1      36.295 -24.281 -13.834  0.00  0.00    +0.210 C 
ATOM     13  C   UNL     1      37.231 -26.749 -13.023  0.00  0.00    +0.151 C 
ATOM     14  C   UNL     1      37.007 -26.423 -14.363  0.00  0.00    +0.123 C 
ATOM     15  C   UNL     1      36.957 -25.730 -11.989  0.00  0.00    +0.241 C 
ATOM     16  C   UNL     1      36.195 -23.449 -11.496  0.00  0.00    +0.122 C 
ATOM     17  C   UNL     1      37.707 -28.015 -12.666  0.00  0.00    -0.010 C 
ATOM     18  C   UNL     1      37.265 -27.384 -15.346  0.00  0.00    +0.028 C 
ATOM     19  C   UNL     1      37.959 -28.964 -13.656  0.00  0.00    -0.004 C 
ATOM     20  C   UNL     1      37.739 -28.649 -14.995  0.00  0.00    +0.002 C 
ENDBRANCH   8  12
ENDBRANCH   7   8
ENDBRANCH   4   7
BRANCH   1  21
ATOM     21  C   UNL     1      35.960 -20.947 -20.368  0.00  0.00    +0.047 C 
BRANCH  21  26
ATOM     22  S   UNL     1      34.355 -19.351 -21.951  0.00  0.00    -0.048 S 
ATOM     23  O   UNL     1      37.559 -18.426 -20.009  0.00  0.00    -0.274 OA
ATOM     24  O   UNL     1      35.007 -17.557 -23.759  0.00  0.00    -0.263 OA
ATOM     25  N   UNL     1      36.415 -17.840 -21.932  0.00  0.00    -0.246 N 
ATOM     26  C   UNL     1      35.459 -19.511 -20.514  0.00  0.00    +0.137 C 
ATOM     27  C   UNL     1      36.600 -18.550 -20.763  0.00  0.00    +0.239 C 
ATOM     28  C   UNL     1      35.312 -18.093 -22.704  0.00  0.00    +0.279 C 
ATOM     29  H   UNL     1      37.069 -17.158 -22.207  0.00  0.00    +0.158 HD
ENDBRANCH  21  26
ENDBRANCH   1  21
TORSDOF 5
ENDMDL
MODEL 9
REMARK VINA RESULT:     -10.5      7.490     11.678
REMARK  Name = 9889200
REMARK  5 active torsions:
REMARK  status: ('A' for Active; 'I' for Inactive)
REMARK    1  A    between atoms: C_1  and  C_21
REMARK    2  A    between atoms: C_4  and  O_7
REMARK    3  A    between atoms: O_7  and  C_8
REMARK    4  A    between atoms: C_8  and  C_12
REMARK    5  A    between atoms: C_21  and  C_26
REMARK                            x       y       z     vdW  Elec       q    Type
REMARK                         _______ _______ _______ _____ _____    ______ ____
ROOT
ATOM      1  C   UNL     1      31.684  -9.095 -22.629  0.00  0.00    -0.021 C 
ATOM      2  C   UNL     1      31.063  -9.876 -21.655  0.00  0.00    -0.001 C 
ATOM      3  C   UNL     1      32.759  -9.609 -23.355  0.00  0.00    -0.001 C 
ATOM      4  C   UNL     1      32.586 -11.674 -22.135  0.00  0.00    +0.139 C 
ATOM      5  C   UNL     1      31.517 -11.172 -21.406  0.00  0.00    +0.037 C 
ATOM      6  C   UNL     1      33.211 -10.905 -23.107  0.00  0.00    +0.037 C 
ENDROOT
BRANCH   4   7
ATOM      7  O   UNL     1      33.032 -12.951 -21.891  0.00  0.00    -0.466 OA
BRANCH   7   8
ATOM      8  C   UNL     1      34.361 -13.252 -22.257  0.00  0.00    +0.279 C 
BRANCH   8  12
ATOM      9  O   UNL     1      33.829 -17.034 -25.217  0.00  0.00    -0.274 OA
ATOM     10  N   UNL     1      34.077 -15.188 -23.800  0.00  0.00    -0.232 N 
ATOM     11  N   UNL     1      34.947 -15.491 -21.607  0.00  0.00    -0.391 NA
ATOM     12  C   UNL     1      34.478 -14.729 -22.547  0.00  0.00    +0.210 C 
ATOM     13  C   UNL     1      34.690 -17.430 -23.081  0.00  0.00    +0.151 C 
ATOM     14  C   UNL     1      35.062 -16.864 -21.859  0.00  0.00    +0.123 C 
ATOM     15  C   UNL     1      34.158 -16.547 -24.140  0.00  0.00    +0.241 C 
ATOM     16  C   UNL     1      33.557 -14.262 -24.806  0.00  0.00    +0.122 C 
ATOM     17  C   UNL     1      34.818 -18.806 -23.300  0.00  0.00    -0.010 C 
ATOM     18  C   UNL     1      35.566 -17.697 -20.854  0.00  0.00    +0.028 C 
ATOM     19  C   UNL     1      35.323 -19.624 -22.290  0.00  0.00    -0.004 C 
ATOM     20  C   UNL     1      35.697 -19.069 -21.067  0.00  0.00    +0.002 C 
ENDBRANCH   8  12
ENDBRANCH   7   8
ENDBRANCH   4   7
BRANCH   1  21
ATOM     21  C   UNL     1      31.201  -7.710 -22.894  0.00  0.00    +0.047 C 
BRANCH  21  26
ATOM     22  S   UNL     1      33.114  -7.357 -20.934  0.00  0.00    -0.048 S 
ATOM     23  O   UNL     1      30.497  -4.854 -22.268  0.00  0.00    -0.274 OA
ATOM     24  O   UNL     1      32.937  -6.195 -18.582  0.00  0.00    -0.263 OA
ATOM     25  N   UNL     1      31.635  -5.366 -20.321  0.00  0.00    -0.246 N 
ATOM     26  C   UNL     1      32.114  -6.651 -22.279  0.00  0.00    +0.137 C 
ATOM     27  C   UNL     1      31.317  -5.528 -21.653  0.00  0.00    +0.239 C 
ATOM     28  C   UNL     1      32.550  -6.206 -19.742  0.00  0.00    +0.279 C 
ATOM     29  H   UNL     1      31.210  -4.653 -19.792  0.00  0.00    +0.158 HD
ENDBRANCH  21  26
ENDBRANCH   1  21
TORSDOF 5
ENDMDL
