MODEL 1
REMARK VINA RESULT:     -11.7      0.000      0.000
REMARK  Name = 9976892
REMARK  4 active torsions:
REMARK  status: ('A' for Active; 'I' for Inactive)
REMARK    1  A    between atoms: N_1  and  C_13
REMARK    2  A    between atoms: C_10  and  O_17
REMARK    3  A    between atoms: O_17  and  C_20
REMARK    4  A    between atoms: C_19  and  N_25
REMARK                            x       y       z     vdW  Elec       q    Type
REMARK                         _______ _______ _______ _____ _____    ______ ____
ROOT
ATOM      1  N   UNL     1      32.890  -6.427 -22.345  0.00  0.00    +0.389 N 
ATOM      2  C   UNL     1      31.943  -7.541 -22.497  0.00  0.00    -0.073 C 
ATOM      3  C   UNL     1      33.977  -6.447 -23.337  0.00  0.00    -0.073 C 
ATOM      4  C   UNL     1      32.531  -8.898 -22.093  0.00  0.00    +0.003 C 
ATOM      5  C   UNL     1      34.989  -7.574 -23.108  0.00  0.00    +0.003 C 
ATOM      6  C   UNL     1      33.373  -9.532 -23.172  0.00  0.00    -0.025 C 
ATOM      7  C   UNL     1      34.536  -8.905 -23.652  0.00  0.00    -0.028 C 
ATOM      8  C   UNL     1      32.998 -10.778 -23.698  0.00  0.00    +0.033 C 
ATOM      9  C   UNL     1      35.299  -9.540 -24.647  0.00  0.00    -0.002 C 
ATOM     10  C   UNL     1      33.761 -11.396 -24.689  0.00  0.00    +0.147 C 
ATOM     11  C   UNL     1      34.912 -10.776 -25.162  0.00  0.00    +0.037 C 
ATOM     12  H   UNL     1      33.322  -6.516 -21.425  0.00  0.00    -0.080 HD
ENDROOT
BRANCH   1  13
ATOM     13  C   UNL     1      32.162  -5.193 -22.488  0.00  0.00    -0.058 C 
ATOM     14  C   UNL     1      32.772  -4.319 -23.602  0.00  0.00    -0.021 C 
ATOM     15  C   UNL     1      30.938  -5.379 -23.409  0.00  0.00    -0.021 C 
ATOM     16  C   UNL     1      31.328  -4.039 -24.068  0.00  0.00    -0.004 C 
ENDBRANCH   1  13
BRANCH  10  17
ATOM     17  O   UNL     1      33.381 -12.603 -25.188  0.00  0.00    -0.436 OA
BRANCH  17  20
ATOM     18  N   UNL     1      33.773 -14.890 -25.191  0.00  0.00    -0.209 NA
ATOM     19  C   UNL     1      34.541 -15.980 -23.174  0.00  0.00    +0.073 C 
ATOM     20  C   UNL     1      33.775 -13.738 -24.497  0.00  0.00    +0.230 C 
ATOM     21  C   UNL     1      34.527 -14.762 -22.503  0.00  0.00    +0.021 C 
ATOM     22  C   UNL     1      34.159 -15.990 -24.505  0.00  0.00    +0.117 C 
ATOM     23  C   UNL     1      34.135 -13.609 -23.173  0.00  0.00    +0.059 C 
BRANCH  19  25
ATOM     24  O   UNL     1      34.078 -18.905 -23.919  0.00  0.00    -0.275 OA
ATOM     25  N   UNL     1      34.938 -17.179 -22.512  0.00  0.00    -0.257 N 
ATOM     26  C   UNL     1      36.197 -18.563 -21.113  0.00  0.00    +0.031 C 
ATOM     27  C   UNL     1      35.620 -17.169 -21.232  0.00  0.00    +0.099 C 
ATOM     28  C   UNL     1      35.197 -19.424 -21.859  0.00  0.00    +0.087 C 
ATOM     29  C   UNL     1      34.670 -18.497 -22.931  0.00  0.00    +0.229 C 
ENDBRANCH  19  25
ENDBRANCH  17  20
ENDBRANCH  10  17
TORSDOF 4
ENDMDL
MODEL 2
REMARK VINA RESULT:     -11.5      2.091      3.656
REMARK  Name = 9976892
REMARK  4 active torsions:
REMARK  status: ('A' for Active; 'I' for Inactive)
REMARK    1  A    between atoms: N_1  and  C_13
REMARK    2  A    between atoms: C_10  and  O_17
REMARK    3  A    between atoms: O_17  and  C_20
REMARK    4  A    between atoms: C_19  and  N_25
REMARK                            x       y       z     vdW  Elec       q    Type
REMARK                         _______ _______ _______ _____ _____    ______ ____
ROOT
ATOM      1  N   UNL     1      32.410  -8.639 -22.117  0.00  0.00    +0.389 N 
ATOM      2  C   UNL     1      33.499  -9.129 -22.975  0.00  0.00    -0.073 C 
ATOM      3  C   UNL     1      32.128  -9.522 -20.974  0.00  0.00    -0.073 C 
ATOM      4  C   UNL     1      33.118 -10.367 -23.794  0.00  0.00    +0.003 C 
ATOM      5  C   UNL     1      31.459 -10.840 -21.375  0.00  0.00    +0.003 C 
ATOM      6  C   UNL     1      33.218 -11.655 -23.015  0.00  0.00    -0.025 C 
ATOM      7  C   UNL     1      32.433 -11.878 -21.871  0.00  0.00    -0.028 C 
ATOM      8  C   UNL     1      34.101 -12.657 -23.449  0.00  0.00    +0.033 C 
ATOM      9  C   UNL     1      32.549 -13.100 -21.186  0.00  0.00    -0.002 C 
ATOM     10  C   UNL     1      34.210 -13.863 -22.757  0.00  0.00    +0.147 C 
ATOM     11  C   UNL     1      33.433 -14.084 -21.626  0.00  0.00    +0.037 C 
ATOM     12  H   UNL     1      31.564  -8.605 -22.686  0.00  0.00    -0.080 HD
ENDROOT
BRANCH   1  13
ATOM     13  C   UNL     1      32.781  -7.342 -21.613  0.00  0.00    -0.058 C 
ATOM     14  C   UNL     1      31.595  -6.359 -21.699  0.00  0.00    -0.021 C 
ATOM     15  C   UNL     1      32.622  -7.281 -20.080  0.00  0.00    -0.021 C 
ATOM     16  C   UNL     1      31.979  -5.892 -20.279  0.00  0.00    -0.004 C 
ENDBRANCH   1  13
BRANCH  10  17
ATOM     17  O   UNL     1      35.072 -14.821 -23.191  0.00  0.00    -0.436 OA
BRANCH  17  20
ATOM     18  N   UNL     1      35.254 -15.995 -21.197  0.00  0.00    -0.209 NA
ATOM     19  C   UNL     1      35.066 -18.406 -21.202  0.00  0.00    +0.073 C 
ATOM     20  C   UNL     1      35.068 -16.038 -22.529  0.00  0.00    +0.230 C 
ATOM     21  C   UNL     1      34.878 -18.395 -22.580  0.00  0.00    +0.021 C 
ATOM     22  C   UNL     1      35.248 -17.190 -20.563  0.00  0.00    +0.117 C 
ATOM     23  C   UNL     1      34.878 -17.187 -23.267  0.00  0.00    +0.059 C 
BRANCH  19  25
ATOM     24  O   UNL     1      32.770 -20.263 -20.418  0.00  0.00    -0.275 OA
ATOM     25  N   UNL     1      35.071 -19.630 -20.470  0.00  0.00    -0.257 N 
ATOM     26  C   UNL     1      35.925 -21.615 -19.580  0.00  0.00    +0.031 C 
ATOM     27  C   UNL     1      36.280 -20.173 -19.879  0.00  0.00    +0.099 C 
ATOM     28  C   UNL     1      34.441 -21.557 -19.279  0.00  0.00    +0.087 C 
ATOM     29  C   UNL     1      33.952 -20.421 -20.147  0.00  0.00    +0.229 C 
ENDBRANCH  19  25
ENDBRANCH  17  20
ENDBRANCH  10  17
TORSDOF 4
ENDMDL
MODEL 3
REMARK VINA RESULT:     -11.4      8.446     15.312
REMARK  Name = 9976892
REMARK  4 active torsions:
REMARK  status: ('A' for Active; 'I' for Inactive)
REMARK    1  A    between atoms: N_1  and  C_13
REMARK    2  A    between atoms: C_10  and  O_17
REMARK    3  A    between atoms: O_17  and  C_20
REMARK    4  A    between atoms: C_19  and  N_25
REMARK                            x       y       z     vdW  Elec       q    Type
REMARK                         _______ _______ _______ _____ _____    ______ ____
ROOT
ATOM      1  N   UNL     1      37.924 -24.392 -13.160  0.00  0.00    +0.389 N 
ATOM      2  C   UNL     1      37.853 -24.147 -14.608  0.00  0.00    -0.073 C 
ATOM      3  C   UNL     1      36.649 -24.849 -12.584  0.00  0.00    -0.073 C 
ATOM      4  C   UNL     1      37.034 -22.905 -14.976  0.00  0.00    +0.003 C 
ATOM      5  C   UNL     1      35.580 -23.754 -12.527  0.00  0.00    +0.003 C 
ATOM      6  C   UNL     1      35.546 -23.152 -14.995  0.00  0.00    -0.025 C 
ATOM      7  C   UNL     1      34.859 -23.554 -13.836  0.00  0.00    -0.028 C 
ATOM      8  C   UNL     1      34.831 -22.964 -16.188  0.00  0.00    +0.033 C 
ATOM      9  C   UNL     1      33.469 -23.757 -13.897  0.00  0.00    -0.002 C 
ATOM     10  C   UNL     1      33.453 -23.174 -16.236  0.00  0.00    +0.147 C 
ATOM     11  C   UNL     1      32.772 -23.570 -15.090  0.00  0.00    +0.037 C 
ATOM     12  H   UNL     1      38.155 -23.506 -12.711  0.00  0.00    -0.080 HD
ENDROOT
BRANCH   1  13
ATOM     13  C   UNL     1      38.923 -25.401 -12.921  0.00  0.00    -0.058 C 
ATOM     14  C   UNL     1      38.488 -26.758 -13.510  0.00  0.00    -0.021 C 
ATOM     15  C   UNL     1      40.014 -25.364 -14.011  0.00  0.00    -0.021 C 
ATOM     16  C   UNL     1      39.930 -26.905 -14.039  0.00  0.00    -0.004 C 
ENDBRANCH   1  13
BRANCH  10  17
ATOM     17  O   UNL     1      32.776 -22.989 -17.401  0.00  0.00    -0.436 OA
BRANCH  17  20
ATOM     18  N   UNL     1      32.447 -21.286 -18.943  0.00  0.00    -0.209 NA
ATOM     19  C   UNL     1      34.337 -20.370 -20.142  0.00  0.00    +0.073 C 
ATOM     20  C   UNL     1      33.314 -22.108 -18.325  0.00  0.00    +0.230 C 
ATOM     21  C   UNL     1      35.190 -21.241 -19.474  0.00  0.00    +0.021 C 
ATOM     22  C   UNL     1      32.985 -20.432 -19.843  0.00  0.00    +0.117 C 
ATOM     23  C   UNL     1      34.675 -22.135 -18.543  0.00  0.00    +0.059 C 
BRANCH  19  25
ATOM     24  O   UNL     1      36.712 -18.454 -20.007  0.00  0.00    -0.275 OA
ATOM     25  N   UNL     1      34.836 -19.443 -21.103  0.00  0.00    -0.257 N 
ATOM     26  C   UNL     1      35.220 -18.507 -23.209  0.00  0.00    +0.031 C 
ATOM     27  C   UNL     1      34.173 -19.212 -22.372  0.00  0.00    +0.099 C 
ATOM     28  C   UNL     1      36.020 -17.724 -22.187  0.00  0.00    +0.087 C 
ATOM     29  C   UNL     1      35.944 -18.587 -20.949  0.00  0.00    +0.229 C 
ENDBRANCH  19  25
ENDBRANCH  17  20
ENDBRANCH  10  17
TORSDOF 4
ENDMDL
MODEL 4
REMARK VINA RESULT:     -11.2      8.951     14.176
REMARK  Name = 9976892
REMARK  4 active torsions:
REMARK  status: ('A' for Active; 'I' for Inactive)
REMARK    1  A    between atoms: N_1  and  C_13
REMARK    2  A    between atoms: C_10  and  O_17
REMARK    3  A    between atoms: O_17  and  C_20
REMARK    4  A    between atoms: C_19  and  N_25
REMARK                            x       y       z     vdW  Elec       q    Type
REMARK                         _______ _______ _______ _____ _____    ______ ____
ROOT
ATOM      1  N   UNL     1      34.661 -20.150 -20.644  0.00  0.00    +0.389 N 
ATOM      2  C   UNL     1      35.800 -20.213 -19.717  0.00  0.00    -0.073 C 
ATOM      3  C   UNL     1      33.366 -20.400 -19.993  0.00  0.00    -0.073 C 
ATOM      4  C   UNL     1      36.114 -21.633 -19.233  0.00  0.00    +0.003 C 
ATOM      5  C   UNL     1      33.170 -21.859 -19.568  0.00  0.00    +0.003 C 
ATOM      6  C   UNL     1      35.230 -22.088 -18.099  0.00  0.00    -0.025 C 
ATOM      7  C   UNL     1      33.836 -22.195 -18.258  0.00  0.00    -0.028 C 
ATOM      8  C   UNL     1      35.808 -22.426 -16.865  0.00  0.00    +0.033 C 
ATOM      9  C   UNL     1      33.054 -22.639 -17.179  0.00  0.00    -0.002 C 
ATOM     10  C   UNL     1      35.018 -22.861 -15.801  0.00  0.00    +0.147 C 
ATOM     11  C   UNL     1      33.641 -22.968 -15.958  0.00  0.00    +0.037 C 
ATOM     12  H   UNL     1      34.794 -20.884 -21.341  0.00  0.00    -0.080 HD
ENDROOT
BRANCH   1  13
ATOM     13  C   UNL     1      34.632 -18.838 -21.236  0.00  0.00    -0.058 C 
ATOM     14  C   UNL     1      36.060 -18.309 -21.476  0.00  0.00    -0.021 C 
ATOM     15  C   UNL     1      34.489 -18.928 -22.769  0.00  0.00    -0.021 C 
ATOM     16  C   UNL     1      35.568 -17.828 -22.857  0.00  0.00    -0.004 C 
ENDBRANCH   1  13
BRANCH  10  17
ATOM     17  O   UNL     1      35.596 -23.182 -14.611  0.00  0.00    -0.436 OA
BRANCH  17  20
ATOM     18  N   UNL     1      35.897 -25.466 -14.884  0.00  0.00    -0.209 NA
ATOM     19  C   UNL     1      38.084 -26.439 -14.537  0.00  0.00    +0.073 C 
ATOM     20  C   UNL     1      36.445 -24.276 -14.583  0.00  0.00    +0.230 C 
ATOM     21  C   UNL     1      38.601 -25.185 -14.234  0.00  0.00    +0.021 C 
ATOM     22  C   UNL     1      36.737 -26.526 -14.853  0.00  0.00    +0.117 C 
ATOM     23  C   UNL     1      37.769 -24.071 -14.255  0.00  0.00    +0.059 C 
BRANCH  19  25
ATOM     24  O   UNL     1      40.682 -27.043 -16.025  0.00  0.00    -0.275 OA
ATOM     25  N   UNL     1      38.912 -27.599 -14.523  0.00  0.00    -0.257 N 
ATOM     26  C   UNL     1      39.853 -29.576 -13.705  0.00  0.00    +0.031 C 
ATOM     27  C   UNL     1      38.558 -28.795 -13.781  0.00  0.00    +0.099 C 
ATOM     28  C   UNL     1      40.562 -29.208 -14.993  0.00  0.00    +0.087 C 
ATOM     29  C   UNL     1      40.100 -27.793 -15.255  0.00  0.00    +0.229 C 
ENDBRANCH  19  25
ENDBRANCH  17  20
ENDBRANCH  10  17
TORSDOF 4
ENDMDL
MODEL 5
REMARK VINA RESULT:     -10.8      4.016      6.602
REMARK  Name = 9976892
REMARK  4 active torsions:
REMARK  status: ('A' for Active; 'I' for Inactive)
REMARK    1  A    between atoms: N_1  and  C_13
REMARK    2  A    between atoms: C_10  and  O_17
REMARK    3  A    between atoms: O_17  and  C_20
REMARK    4  A    between atoms: C_19  and  N_25
REMARK                            x       y       z     vdW  Elec       q    Type
REMARK                         _______ _______ _______ _____ _____    ______ ____
ROOT
ATOM      1  N   UNL     1      32.817 -12.662 -21.396  0.00  0.00    +0.389 N 
ATOM      2  C   UNL     1      33.409 -13.692 -20.531  0.00  0.00    -0.073 C 
ATOM      3  C   UNL     1      32.384 -13.177 -22.704  0.00  0.00    -0.073 C 
ATOM      4  C   UNL     1      34.789 -14.164 -21.003  0.00  0.00    +0.003 C 
ATOM      5  C   UNL     1      33.549 -13.540 -23.630  0.00  0.00    +0.003 C 
ATOM      6  C   UNL     1      34.726 -15.194 -22.103  0.00  0.00    -0.025 C 
ATOM      7  C   UNL     1      34.139 -14.898 -23.347  0.00  0.00    -0.028 C 
ATOM      8  C   UNL     1      35.275 -16.468 -21.889  0.00  0.00    +0.033 C 
ATOM      9  C   UNL     1      34.117 -15.884 -24.348  0.00  0.00    -0.002 C 
ATOM     10  C   UNL     1      35.242 -17.438 -22.890  0.00  0.00    +0.147 C 
ATOM     11  C   UNL     1      34.664 -17.146 -24.120  0.00  0.00    +0.037 C 
ATOM     12  H   UNL     1      33.537 -11.960 -21.573  0.00  0.00    -0.080 HD
ENDROOT
BRANCH   1  13
ATOM     13  C   UNL     1      31.673 -12.107 -20.720  0.00  0.00    -0.058 C 
ATOM     14  C   UNL     1      32.108 -11.243 -19.519  0.00  0.00    -0.021 C 
ATOM     15  C   UNL     1      31.214 -10.800 -21.397  0.00  0.00    -0.021 C 
ATOM     16  C   UNL     1      31.057 -10.211 -19.979  0.00  0.00    -0.004 C 
ENDBRANCH   1  13
BRANCH  10  17
ATOM     17  O   UNL     1      35.779 -18.668 -22.664  0.00  0.00    -0.436 OA
BRANCH  17  20
ATOM     18  N   UNL     1      36.143 -19.944 -20.761  0.00  0.00    -0.209 NA
ATOM     19  C   UNL     1      34.262 -20.892 -19.573  0.00  0.00    +0.073 C 
ATOM     20  C   UNL     1      35.255 -19.418 -21.624  0.00  0.00    +0.230 C 
ATOM     21  C   UNL     1      33.387 -20.325 -20.493  0.00  0.00    +0.021 C 
ATOM     22  C   UNL     1      35.619 -20.674 -19.750  0.00  0.00    +0.117 C 
ATOM     23  C   UNL     1      33.887 -19.568 -21.546  0.00  0.00    +0.059 C 
BRANCH  19  25
ATOM     24  O   UNL     1      35.768 -22.358 -17.357  0.00  0.00    -0.275 OA
ATOM     25  N   UNL     1      33.778 -21.673 -18.482  0.00  0.00    -0.257 N 
ATOM     26  C   UNL     1      32.270 -22.434 -16.868  0.00  0.00    +0.031 C 
ATOM     27  C   UNL     1      32.368 -21.964 -18.304  0.00  0.00    +0.099 C 
ATOM     28  C   UNL     1      33.607 -23.105 -16.624  0.00  0.00    +0.087 C 
ATOM     29  C   UNL     1      34.556 -22.323 -17.505  0.00  0.00    +0.229 C 
ENDBRANCH  19  25
ENDBRANCH  17  20
ENDBRANCH  10  17
TORSDOF 4
ENDMDL
MODEL 6
REMARK VINA RESULT:     -10.7      1.717      2.348
REMARK  Name = 9976892
REMARK  4 active torsions:
REMARK  status: ('A' for Active; 'I' for Inactive)
REMARK    1  A    between atoms: N_1  and  C_13
REMARK    2  A    between atoms: C_10  and  O_17
REMARK    3  A    between atoms: O_17  and  C_20
REMARK    4  A    between atoms: C_19  and  N_25
REMARK                            x       y       z     vdW  Elec       q    Type
REMARK                         _______ _______ _______ _____ _____    ______ ____
ROOT
ATOM      1  N   UNL     1      32.447  -8.778 -22.105  0.00  0.00    +0.389 N 
ATOM      2  C   UNL     1      31.967 -10.149 -21.876  0.00  0.00    -0.073 C 
ATOM      3  C   UNL     1      32.886  -8.538 -23.489  0.00  0.00    -0.073 C 
ATOM      4  C   UNL     1      33.086 -11.196 -21.894  0.00  0.00    +0.003 C 
ATOM      5  C   UNL     1      34.196  -9.248 -23.843  0.00  0.00    +0.003 C 
ATOM      6  C   UNL     1      33.486 -11.621 -23.284  0.00  0.00    -0.025 C 
ATOM      7  C   UNL     1      34.012 -10.699 -24.207  0.00  0.00    -0.028 C 
ATOM      8  C   UNL     1      33.346 -12.966 -23.663  0.00  0.00    +0.033 C 
ATOM      9  C   UNL     1      34.386 -11.144 -25.486  0.00  0.00    -0.002 C 
ATOM     10  C   UNL     1      33.717 -13.393 -24.937  0.00  0.00    +0.147 C 
ATOM     11  C   UNL     1      34.238 -12.482 -25.848  0.00  0.00    +0.037 C 
ATOM     12  H   UNL     1      33.259  -8.634 -21.504  0.00  0.00    -0.080 HD
ENDROOT
BRANCH   1  13
ATOM     13  C   UNL     1      31.375  -7.867 -21.800  0.00  0.00    -0.058 C 
ATOM     14  C   UNL     1      31.892  -6.659 -20.992  0.00  0.00    -0.021 C 
ATOM     15  C   UNL     1      31.136  -6.887 -22.967  0.00  0.00    -0.021 C 
ATOM     16  C   UNL     1      31.021  -5.772 -21.907  0.00  0.00    -0.004 C 
ENDBRANCH   1  13
BRANCH  10  17
ATOM     17  O   UNL     1      33.572 -14.700 -25.287  0.00  0.00    -0.436 OA
BRANCH  17  20
ATOM     18  N   UNL     1      33.832 -16.942 -24.748  0.00  0.00    -0.209 NA
ATOM     19  C   UNL     1      34.902 -17.562 -22.670  0.00  0.00    +0.073 C 
ATOM     20  C   UNL     1      34.026 -15.659 -24.395  0.00  0.00    +0.230 C 
ATOM     21  C   UNL     1      35.078 -16.219 -22.353  0.00  0.00    +0.021 C 
ATOM     22  C   UNL     1      34.279 -17.868 -23.869  0.00  0.00    +0.117 C 
ATOM     23  C   UNL     1      34.631 -15.238 -23.230  0.00  0.00    +0.059 C 
BRANCH  19  25
ATOM     24  O   UNL     1      37.694 -18.189 -21.601  0.00  0.00    -0.275 OA
ATOM     25  N   UNL     1      35.349 -18.590 -21.789  0.00  0.00    -0.257 N 
ATOM     26  C   UNL     1      35.211 -20.218 -20.119  0.00  0.00    +0.031 C 
ATOM     27  C   UNL     1      34.460 -19.622 -21.291  0.00  0.00    +0.099 C 
ATOM     28  C   UNL     1      36.665 -20.070 -20.520  0.00  0.00    +0.087 C 
ATOM     29  C   UNL     1      36.670 -18.808 -21.353  0.00  0.00    +0.229 C 
ENDBRANCH  19  25
ENDBRANCH  17  20
ENDBRANCH  10  17
TORSDOF 4
ENDMDL
MODEL 7
REMARK VINA RESULT:     -10.6      5.991     13.941
REMARK  Name = 9976892
REMARK  4 active torsions:
REMARK  status: ('A' for Active; 'I' for Inactive)
REMARK    1  A    between atoms: N_1  and  C_13
REMARK    2  A    between atoms: C_10  and  O_17
REMARK    3  A    between atoms: O_17  and  C_20
REMARK    4  A    between atoms: C_19  and  N_25
REMARK                            x       y       z     vdW  Elec       q    Type
REMARK                         _______ _______ _______ _____ _____    ______ ____
ROOT
ATOM      1  N   UNL     1      36.340 -23.778 -13.929  0.00  0.00    +0.389 N 
ATOM      2  C   UNL     1      37.420 -23.354 -14.832  0.00  0.00    -0.073 C 
ATOM      3  C   UNL     1      35.096 -24.127 -14.632  0.00  0.00    -0.073 C 
ATOM      4  C   UNL     1      37.179 -21.980 -15.465  0.00  0.00    +0.003 C 
ATOM      5  C   UNL     1      34.369 -22.914 -15.222  0.00  0.00    +0.003 C 
ATOM      6  C   UNL     1      36.263 -22.023 -16.661  0.00  0.00    -0.025 C 
ATOM      7  C   UNL     1      34.933 -22.465 -16.546  0.00  0.00    -0.028 C 
ATOM      8  C   UNL     1      36.739 -21.600 -17.912  0.00  0.00    +0.033 C 
ATOM      9  C   UNL     1      34.110 -22.473 -17.685  0.00  0.00    -0.002 C 
ATOM     10  C   UNL     1      35.913 -21.618 -19.036  0.00  0.00    +0.147 C 
ATOM     11  C   UNL     1      34.599 -22.054 -18.922  0.00  0.00    +0.037 C 
ATOM     12  H   UNL     1      36.127 -22.990 -13.316  0.00  0.00    -0.080 HD
ENDROOT
BRANCH   1  13
ATOM     13  C   UNL     1      36.791 -24.932 -13.195  0.00  0.00    -0.058 C 
ATOM     14  C   UNL     1      37.077 -26.112 -14.146  0.00  0.00    -0.021 C 
ATOM     15  C   UNL     1      38.312 -24.865 -12.944  0.00  0.00    -0.021 C 
ATOM     16  C   UNL     1      38.364 -26.358 -13.330  0.00  0.00    -0.004 C 
ENDBRANCH   1  13
BRANCH  10  17
ATOM     17  O   UNL     1      36.393 -21.206 -20.241  0.00  0.00    -0.436 OA
BRANCH  17  20
ATOM     18  N   UNL     1      36.619 -18.898 -20.158  0.00  0.00    -0.209 NA
ATOM     19  C   UNL     1      35.243 -17.506 -21.578  0.00  0.00    +0.073 C 
ATOM     20  C   UNL     1      35.997 -19.961 -20.700  0.00  0.00    +0.230 C 
ATOM     21  C   UNL     1      34.632 -18.637 -22.107  0.00  0.00    +0.021 C 
ATOM     22  C   UNL     1      36.222 -17.688 -20.615  0.00  0.00    +0.117 C 
ATOM     23  C   UNL     1      35.011 -19.899 -21.662  0.00  0.00    +0.059 C 
BRANCH  19  25
ATOM     24  O   UNL     1      35.038 -16.333 -24.392  0.00  0.00    -0.275 OA
ATOM     25  N   UNL     1      34.874 -16.199 -22.014  0.00  0.00    -0.257 N 
ATOM     26  C   UNL     1      33.866 -14.093 -21.924  0.00  0.00    +0.031 C 
ATOM     27  C   UNL     1      34.588 -15.125 -21.083  0.00  0.00    +0.099 C 
ATOM     28  C   UNL     1      34.478 -14.270 -23.299  0.00  0.00    +0.087 C 
ATOM     29  C   UNL     1      34.815 -15.743 -23.345  0.00  0.00    +0.229 C 
ENDBRANCH  19  25
ENDBRANCH  17  20
ENDBRANCH  10  17
TORSDOF 4
ENDMDL
MODEL 8
REMARK VINA RESULT:     -10.2      7.161     13.271
REMARK  Name = 9976892
REMARK  4 active torsions:
REMARK  status: ('A' for Active; 'I' for Inactive)
REMARK    1  A    between atoms: N_1  and  C_13
REMARK    2  A    between atoms: C_10  and  O_17
REMARK    3  A    between atoms: O_17  and  C_20
REMARK    4  A    between atoms: C_19  and  N_25
REMARK                            x       y       z     vdW  Elec       q    Type
REMARK                         _______ _______ _______ _____ _____    ______ ____
ROOT
ATOM      1  N   UNL     1      31.674 -23.457 -15.475  0.00  0.00    +0.389 N 
ATOM      2  C   UNL     1      31.911 -22.704 -16.716  0.00  0.00    -0.073 C 
ATOM      3  C   UNL     1      32.707 -23.232 -14.452  0.00  0.00    -0.073 C 
ATOM      4  C   UNL     1      33.093 -23.235 -17.534  0.00  0.00    +0.003 C 
ATOM      5  C   UNL     1      34.054 -23.875 -14.796  0.00  0.00    +0.003 C 
ATOM      6  C   UNL     1      34.431 -22.746 -17.040  0.00  0.00    -0.025 C 
ATOM      7  C   UNL     1      34.886 -23.049 -15.744  0.00  0.00    -0.028 C 
ATOM      8  C   UNL     1      35.247 -21.986 -17.894  0.00  0.00    +0.033 C 
ATOM      9  C   UNL     1      36.147 -22.585 -15.333  0.00  0.00    -0.002 C 
ATOM     10  C   UNL     1      36.494 -21.528 -17.471  0.00  0.00    +0.147 C 
ATOM     11  C   UNL     1      36.944 -21.829 -16.190  0.00  0.00    +0.037 C 
ATOM     12  H   UNL     1      31.696 -24.450 -15.711  0.00  0.00    -0.080 HD
ENDROOT
BRANCH   1  13
ATOM     13  C   UNL     1      30.401 -23.053 -14.938  0.00  0.00    -0.058 C 
ATOM     14  C   UNL     1      29.424 -22.666 -16.067  0.00  0.00    -0.021 C 
ATOM     15  C   UNL     1      29.499 -24.278 -14.681  0.00  0.00    -0.021 C 
ATOM     16  C   UNL     1      28.346 -23.463 -15.303  0.00  0.00    -0.004 C 
ENDBRANCH   1  13
BRANCH  10  17
ATOM     17  O   UNL     1      37.270 -20.791 -18.311  0.00  0.00    -0.436 OA
BRANCH  17  20
ATOM     18  N   UNL     1      37.256 -19.081 -19.878  0.00  0.00    -0.209 NA
ATOM     19  C   UNL     1      35.460 -18.946 -21.493  0.00  0.00    +0.073 C 
ATOM     20  C   UNL     1      36.650 -20.176 -19.386  0.00  0.00    +0.230 C 
ATOM     21  C   UNL     1      34.875 -20.083 -20.947  0.00  0.00    +0.021 C 
ATOM     22  C   UNL     1      36.640 -18.489 -20.928  0.00  0.00    +0.117 C 
ATOM     23  C   UNL     1      35.477 -20.719 -19.867  0.00  0.00    +0.059 C 
BRANCH  19  25
ATOM     24  O   UNL     1      35.558 -16.006 -22.315  0.00  0.00    -0.275 OA
ATOM     25  N   UNL     1      34.865 -18.272 -22.600  0.00  0.00    -0.257 N 
ATOM     26  C   UNL     1      33.930 -18.012 -24.725  0.00  0.00    +0.031 C 
ATOM     27  C   UNL     1      33.987 -18.948 -23.536  0.00  0.00    +0.099 C 
ATOM     28  C   UNL     1      34.083 -16.639 -24.101  0.00  0.00    +0.087 C 
ATOM     29  C   UNL     1      34.960 -16.899 -22.897  0.00  0.00    +0.229 C 
ENDBRANCH  19  25
ENDBRANCH  17  20
ENDBRANCH  10  17
TORSDOF 4
ENDMDL
MODEL 9
REMARK VINA RESULT:     -10.1      2.213     10.137
REMARK  Name = 9976892
REMARK  4 active torsions:
REMARK  status: ('A' for Active; 'I' for Inactive)
REMARK    1  A    between atoms: N_1  and  C_13
REMARK    2  A    between atoms: C_10  and  O_17
REMARK    3  A    between atoms: O_17  and  C_20
REMARK    4  A    between atoms: C_19  and  N_25
REMARK                            x       y       z     vdW  Elec       q    Type
REMARK                         _______ _______ _______ _____ _____    ______ ____
ROOT
ATOM      1  N   UNL     1      34.981 -19.178 -21.740  0.00  0.00    +0.389 N 
ATOM      2  C   UNL     1      34.240 -18.712 -22.921  0.00  0.00    -0.073 C 
ATOM      3  C   UNL     1      34.961 -18.218 -20.625  0.00  0.00    -0.073 C 
ATOM      4  C   UNL     1      34.932 -17.563 -23.661  0.00  0.00    +0.003 C 
ATOM      5  C   UNL     1      35.806 -16.967 -20.884  0.00  0.00    +0.003 C 
ATOM      6  C   UNL     1      34.686 -16.213 -23.035  0.00  0.00    -0.025 C 
ATOM      7  C   UNL     1      35.099 -15.931 -21.721  0.00  0.00    -0.028 C 
ATOM      8  C   UNL     1      34.044 -15.212 -23.783  0.00  0.00    +0.033 C 
ATOM      9  C   UNL     1      34.862 -14.654 -21.185  0.00  0.00    -0.002 C 
ATOM     10  C   UNL     1      33.810 -13.950 -23.237  0.00  0.00    +0.147 C 
ATOM     11  C   UNL     1      34.220 -13.671 -21.938  0.00  0.00    +0.037 C 
ATOM     12  H   UNL     1      35.957 -19.295 -22.018  0.00  0.00    -0.080 HD
ENDROOT
BRANCH   1  13
ATOM     13  C   UNL     1      34.391 -20.413 -21.293  0.00  0.00    -0.058 C 
ATOM     14  C   UNL     1      34.939 -20.816 -19.909  0.00  0.00    -0.021 C 
ATOM     15  C   UNL     1      33.038 -20.155 -20.598  0.00  0.00    -0.021 C 
ATOM     16  C   UNL     1      33.487 -21.166 -19.521  0.00  0.00    -0.004 C 
ENDBRANCH   1  13
BRANCH  10  17
ATOM     17  O   UNL     1      33.186 -12.994 -23.975  0.00  0.00    -0.436 OA
BRANCH  17  20
ATOM     18  N   UNL     1      32.101 -11.643 -22.433  0.00  0.00    -0.209 NA
ATOM     19  C   UNL     1      32.686  -9.302 -22.265  0.00  0.00    +0.073 C 
ATOM     20  C   UNL     1      33.025 -11.742 -23.404  0.00  0.00    +0.230 C 
ATOM     21  C   UNL     1      33.629  -9.459 -23.274  0.00  0.00    +0.021 C 
ATOM     22  C   UNL     1      31.953 -10.415 -21.884  0.00  0.00    +0.117 C 
ATOM     23  C   UNL     1      33.809 -10.705 -23.864  0.00  0.00    +0.059 C 
BRANCH  19  25
ATOM     24  O   UNL     1      32.697  -8.514 -19.314  0.00  0.00    -0.275 OA
ATOM     25  N   UNL     1      32.478  -8.036 -21.642  0.00  0.00    -0.257 N 
ATOM     26  C   UNL     1      32.408  -5.709 -21.443  0.00  0.00    +0.031 C 
ATOM     27  C   UNL     1      32.128  -6.849 -22.399  0.00  0.00    +0.099 C 
ATOM     28  C   UNL     1      32.123  -6.313 -20.082  0.00  0.00    +0.087 C 
ATOM     29  C   UNL     1      32.495  -7.767 -20.260  0.00  0.00    +0.229 C 
ENDBRANCH  19  25
ENDBRANCH  17  20
ENDBRANCH  10  17
TORSDOF 4
ENDMDL
