MODEL 1
REMARK VINA RESULT:     -11.7      0.000      0.000
REMARK  Name = 11610526
REMARK  3 active torsions:
REMARK  status: ('A' for Active; 'I' for Inactive)
REMARK    1  A    between atoms: C_2  and  C_21
REMARK    2  A    between atoms: C_9  and  C_14
REMARK    3  A    between atoms: C_21  and  C_23
REMARK                            x       y       z     vdW  Elec       q    Type
REMARK                         _______ _______ _______ _____ _____    ______ ____
ROOT
ATOM      1  N   UNL     1      34.980 -16.623 -21.994  0.00  0.00    -0.388 NA
ATOM      2  C   UNL     1      35.277 -17.907 -22.213  0.00  0.00    +0.167 C 
ATOM      3  C   UNL     1      35.120 -18.596 -23.383  0.00  0.00    +0.031 C 
ATOM      4  C   UNL     1      34.470 -15.966 -23.059  0.00  0.00    +0.167 C 
ATOM      5  C   UNL     1      34.594 -17.887 -24.457  0.00  0.00    -0.015 C 
ATOM      6  C   UNL     1      34.260 -16.546 -24.300  0.00  0.00    +0.101 C 
ATOM      7  O   UNL     1      33.321 -14.029 -25.039  0.00  0.00    -0.270 OA
ATOM      8  N   UNL     1      34.132 -14.616 -22.912  0.00  0.00    -0.259 N 
ATOM      9  C   UNL     1      33.596 -13.756 -23.875  0.00  0.00    +0.255 C 
ATOM     10  H   UNL     1      34.290 -14.225 -22.023  0.00  0.00    +0.157 HD
ENDROOT
BRANCH   9  14
ATOM     11  F   UNL     1      32.033 -13.154 -21.624  0.00  0.00    -0.204 F 
ATOM     12  F   UNL     1      34.702 -11.552 -25.213  0.00  0.00    -0.204 F 
ATOM     13  F   UNL     1      32.742  -8.508 -22.168  0.00  0.00    -0.204 F 
ATOM     14  C   UNL     1      33.368 -12.359 -23.420  0.00  0.00    +0.109 C 
ATOM     15  C   UNL     1      32.588 -12.141 -22.304  0.00  0.00    +0.149 C 
ATOM     16  C   UNL     1      33.945 -11.326 -24.129  0.00  0.00    +0.149 C 
ATOM     17  C   UNL     1      32.374 -10.829 -21.878  0.00  0.00    +0.060 C 
ATOM     18  C   UNL     1      33.731 -10.015 -23.703  0.00  0.00    +0.060 C 
ATOM     19  C   UNL     1      32.945  -9.767 -22.578  0.00  0.00    +0.145 C 
ENDBRANCH   9  14
BRANCH   2  21
ATOM     20  O   UNL     1      36.746 -18.108 -20.378  0.00  0.00    -0.289 OA
ATOM     21  C   UNL     1      35.836 -18.617 -21.028  0.00  0.00    +0.202 C 
BRANCH  21  23
ATOM     22  N   UNL     1      34.066 -21.620 -18.573  0.00  0.00    +0.386 N 
ATOM     23  C   UNL     1      35.274 -19.952 -20.648  0.00  0.00    +0.060 C 
ATOM     24  C   UNL     1      33.816 -19.789 -20.217  0.00  0.00    -0.015 C 
ATOM     25  C   UNL     1      36.096 -20.569 -19.518  0.00  0.00    -0.015 C 
ATOM     26  C   UNL     1      33.248 -21.104 -19.678  0.00  0.00    -0.077 C 
ATOM     27  C   UNL     1      35.451 -21.857 -19.003  0.00  0.00    -0.077 C 
ATOM     28  C   UNL     1      33.481 -22.848 -18.035  0.00  0.00    -0.101 C 
ATOM     29  H   UNL     1      34.082 -20.915 -17.836  0.00  0.00    -0.080 HD
ENDBRANCH  21  23
ENDBRANCH   2  21
TORSDOF 3
ENDMDL
MODEL 2
REMARK VINA RESULT:     -10.7      3.434      6.108
REMARK  Name = 11610526
REMARK  3 active torsions:
REMARK  status: ('A' for Active; 'I' for Inactive)
REMARK    1  A    between atoms: C_2  and  C_21
REMARK    2  A    between atoms: C_9  and  C_14
REMARK    3  A    between atoms: C_21  and  C_23
REMARK                            x       y       z     vdW  Elec       q    Type
REMARK                         _______ _______ _______ _____ _____    ______ ____
ROOT
ATOM      1  N   UNL     1      33.231 -11.617 -23.711  0.00  0.00    -0.388 NA
ATOM      2  C   UNL     1      32.979 -12.824 -23.198  0.00  0.00    +0.167 C 
ATOM      3  C   UNL     1      32.360 -13.096 -22.010  0.00  0.00    +0.031 C 
ATOM      4  C   UNL     1      32.820 -10.577 -22.952  0.00  0.00    +0.167 C 
ATOM      5  C   UNL     1      31.951 -12.001 -21.256  0.00  0.00    -0.015 C 
ATOM      6  C   UNL     1      32.182 -10.714 -21.730  0.00  0.00    +0.101 C 
ATOM      7  O   UNL     1      32.141  -7.929 -21.721  0.00  0.00    -0.270 OA
ATOM      8  N   UNL     1      33.047  -9.277 -23.419  0.00  0.00    -0.259 N 
ATOM      9  C   UNL     1      32.707  -8.071 -22.800  0.00  0.00    +0.255 C 
ATOM     10  H   UNL     1      33.502  -9.204 -24.289  0.00  0.00    +0.157 HD
ENDROOT
BRANCH   9  14
ATOM     11  F   UNL     1      30.796  -6.620 -24.250  0.00  0.00    -0.204 F 
ATOM     12  F   UNL     1      35.323  -7.062 -22.884  0.00  0.00    -0.204 F 
ATOM     13  F   UNL     1      34.025  -3.468 -25.672  0.00  0.00    -0.204 F 
ATOM     14  C   UNL     1      33.058  -6.846 -23.564  0.00  0.00    +0.109 C 
ATOM     15  C   UNL     1      32.063  -6.184 -24.254  0.00  0.00    +0.149 C 
ATOM     16  C   UNL     1      34.366  -6.410 -23.559  0.00  0.00    +0.149 C 
ATOM     17  C   UNL     1      32.393  -5.034 -24.972  0.00  0.00    +0.060 C 
ATOM     18  C   UNL     1      34.695  -5.260 -24.277  0.00  0.00    +0.060 C 
ATOM     19  C   UNL     1      33.708  -4.572 -24.984  0.00  0.00    +0.145 C 
ENDBRANCH   9  14
BRANCH   2  21
ATOM     20  O   UNL     1      33.551 -13.813 -25.262  0.00  0.00    -0.289 OA
ATOM     21  C   UNL     1      33.440 -13.959 -24.047  0.00  0.00    +0.202 C 
BRANCH  21  23
ATOM     22  N   UNL     1      35.784 -17.292 -22.790  0.00  0.00    +0.386 N 
ATOM     23  C   UNL     1      33.762 -15.269 -23.398  0.00  0.00    +0.060 C 
ATOM     24  C   UNL     1      34.828 -15.059 -22.322  0.00  0.00    -0.015 C 
ATOM     25  C   UNL     1      34.251 -16.270 -24.442  0.00  0.00    -0.015 C 
ATOM     26  C   UNL     1      35.295 -16.393 -21.737  0.00  0.00    -0.077 C 
ATOM     27  C   UNL     1      34.737 -17.563 -23.785  0.00  0.00    -0.077 C 
ATOM     28  C   UNL     1      36.275 -18.541 -22.210  0.00  0.00    -0.101 C 
ATOM     29  H   UNL     1      36.557 -16.826 -23.267  0.00  0.00    -0.080 HD
ENDBRANCH  21  23
ENDBRANCH   2  21
TORSDOF 3
ENDMDL
MODEL 3
REMARK VINA RESULT:     -10.7      3.051      5.527
REMARK  Name = 11610526
REMARK  3 active torsions:
REMARK  status: ('A' for Active; 'I' for Inactive)
REMARK    1  A    between atoms: C_2  and  C_21
REMARK    2  A    between atoms: C_9  and  C_14
REMARK    3  A    between atoms: C_21  and  C_23
REMARK                            x       y       z     vdW  Elec       q    Type
REMARK                         _______ _______ _______ _____ _____    ______ ____
ROOT
ATOM      1  N   UNL     1      33.939 -20.585 -19.517  0.00  0.00    -0.388 NA
ATOM      2  C   UNL     1      34.283 -21.584 -18.699  0.00  0.00    +0.167 C 
ATOM      3  C   UNL     1      35.547 -22.046 -18.457  0.00  0.00    +0.031 C 
ATOM      4  C   UNL     1      34.970 -19.991 -20.157  0.00  0.00    +0.167 C 
ATOM      5  C   UNL     1      36.582 -21.410 -19.134  0.00  0.00    -0.015 C 
ATOM      6  C   UNL     1      36.296 -20.361 -20.002  0.00  0.00    +0.101 C 
ATOM      7  O   UNL     1      36.819 -18.322 -21.826  0.00  0.00    -0.270 OA
ATOM      8  N   UNL     1      34.693 -18.934 -21.032  0.00  0.00    -0.259 N 
ATOM      9  C   UNL     1      35.600 -18.187 -21.790  0.00  0.00    +0.255 C 
ATOM     10  H   UNL     1      33.745 -18.688 -21.128  0.00  0.00    +0.157 HD
ENDROOT
BRANCH   9  14
ATOM     11  F   UNL     1      35.202 -15.601 -20.783  0.00  0.00    -0.204 F 
ATOM     12  F   UNL     1      34.793 -18.598 -24.445  0.00  0.00    -0.204 F 
ATOM     13  F   UNL     1      33.342 -14.116 -24.872  0.00  0.00    -0.204 F 
ATOM     14  C   UNL     1      35.000 -17.104 -22.610  0.00  0.00    +0.109 C 
ATOM     15  C   UNL     1      34.834 -15.855 -22.046  0.00  0.00    +0.149 C 
ATOM     16  C   UNL     1      34.627 -17.381 -23.909  0.00  0.00    +0.149 C 
ATOM     17  C   UNL     1      34.270 -14.839 -22.817  0.00  0.00    +0.060 C 
ATOM     18  C   UNL     1      34.062 -16.363 -24.678  0.00  0.00    +0.060 C 
ATOM     19  C   UNL     1      33.883 -15.092 -24.132  0.00  0.00    +0.145 C 
ENDBRANCH   9  14
BRANCH   2  21
ATOM     20  O   UNL     1      31.986 -22.020 -18.386  0.00  0.00    -0.289 OA
ATOM     21  C   UNL     1      33.135 -22.228 -18.003  0.00  0.00    +0.202 C 
BRANCH  21  23
ATOM     22  N   UNL     1      33.770 -23.378 -13.945  0.00  0.00    +0.386 N 
ATOM     23  C   UNL     1      33.404 -23.127 -16.836  0.00  0.00    +0.060 C 
ATOM     24  C   UNL     1      32.232 -23.060 -15.857  0.00  0.00    -0.015 C 
ATOM     25  C   UNL     1      34.701 -22.718 -16.141  0.00  0.00    -0.015 C 
ATOM     26  C   UNL     1      32.531 -23.847 -14.579  0.00  0.00    -0.077 C 
ATOM     27  C   UNL     1      34.917 -23.517 -14.854  0.00  0.00    -0.077 C 
ATOM     28  C   UNL     1      34.014 -24.103 -12.699  0.00  0.00    -0.101 C 
ATOM     29  H   UNL     1      33.658 -22.386 -13.730  0.00  0.00    -0.080 HD
ENDBRANCH  21  23
ENDBRANCH   2  21
TORSDOF 3
ENDMDL
MODEL 4
REMARK VINA RESULT:     -10.7      3.053      5.602
REMARK  Name = 11610526
REMARK  3 active torsions:
REMARK  status: ('A' for Active; 'I' for Inactive)
REMARK    1  A    between atoms: C_2  and  C_21
REMARK    2  A    between atoms: C_9  and  C_14
REMARK    3  A    between atoms: C_21  and  C_23
REMARK                            x       y       z     vdW  Elec       q    Type
REMARK                         _______ _______ _______ _____ _____    ______ ____
ROOT
ATOM      1  N   UNL     1      33.940 -20.585 -19.519  0.00  0.00    -0.388 NA
ATOM      2  C   UNL     1      34.285 -21.583 -18.700  0.00  0.00    +0.167 C 
ATOM      3  C   UNL     1      35.549 -22.044 -18.457  0.00  0.00    +0.031 C 
ATOM      4  C   UNL     1      34.971 -19.992 -20.160  0.00  0.00    +0.167 C 
ATOM      5  C   UNL     1      36.584 -21.408 -19.134  0.00  0.00    -0.015 C 
ATOM      6  C   UNL     1      36.298 -20.361 -20.004  0.00  0.00    +0.101 C 
ATOM      7  O   UNL     1      36.820 -18.323 -21.830  0.00  0.00    -0.270 OA
ATOM      8  N   UNL     1      34.694 -18.936 -21.036  0.00  0.00    -0.259 N 
ATOM      9  C   UNL     1      35.601 -18.190 -21.795  0.00  0.00    +0.255 C 
ATOM     10  H   UNL     1      33.746 -18.691 -21.132  0.00  0.00    +0.157 HD
ENDROOT
BRANCH   9  14
ATOM     11  F   UNL     1      34.796 -18.604 -24.449  0.00  0.00    -0.204 F 
ATOM     12  F   UNL     1      35.199 -15.601 -20.790  0.00  0.00    -0.204 F 
ATOM     13  F   UNL     1      33.343 -14.122 -24.882  0.00  0.00    -0.204 F 
ATOM     14  C   UNL     1      35.000 -17.107 -22.616  0.00  0.00    +0.109 C 
ATOM     15  C   UNL     1      34.628 -17.386 -23.915  0.00  0.00    +0.149 C 
ATOM     16  C   UNL     1      34.833 -15.859 -22.054  0.00  0.00    +0.149 C 
ATOM     17  C   UNL     1      34.064 -16.369 -24.686  0.00  0.00    +0.060 C 
ATOM     18  C   UNL     1      34.270 -14.843 -22.826  0.00  0.00    +0.060 C 
ATOM     19  C   UNL     1      33.885 -15.098 -24.142  0.00  0.00    +0.145 C 
ENDBRANCH   9  14
BRANCH   2  21
ATOM     20  O   UNL     1      31.988 -22.019 -18.386  0.00  0.00    -0.289 OA
ATOM     21  C   UNL     1      33.137 -22.227 -18.003  0.00  0.00    +0.202 C 
BRANCH  21  23
ATOM     22  N   UNL     1      33.770 -23.376 -13.945  0.00  0.00    +0.386 N 
ATOM     23  C   UNL     1      33.406 -23.126 -16.836  0.00  0.00    +0.060 C 
ATOM     24  C   UNL     1      32.233 -23.061 -15.858  0.00  0.00    -0.015 C 
ATOM     25  C   UNL     1      34.702 -22.714 -16.140  0.00  0.00    -0.015 C 
ATOM     26  C   UNL     1      32.533 -23.847 -14.580  0.00  0.00    -0.077 C 
ATOM     27  C   UNL     1      34.918 -23.513 -14.853  0.00  0.00    -0.077 C 
ATOM     28  C   UNL     1      34.014 -24.101 -12.699  0.00  0.00    -0.101 C 
ATOM     29  H   UNL     1      33.657 -22.385 -13.730  0.00  0.00    -0.080 HD
ENDBRANCH  21  23
ENDBRANCH   2  21
TORSDOF 3
ENDMDL
MODEL 5
REMARK VINA RESULT:     -10.7      3.653      6.449
REMARK  Name = 11610526
REMARK  3 active torsions:
REMARK  status: ('A' for Active; 'I' for Inactive)
REMARK    1  A    between atoms: C_2  and  C_21
REMARK    2  A    between atoms: C_9  and  C_14
REMARK    3  A    between atoms: C_21  and  C_23
REMARK                            x       y       z     vdW  Elec       q    Type
REMARK                         _______ _______ _______ _____ _____    ______ ____
ROOT
ATOM      1  N   UNL     1      34.340 -21.320 -19.130  0.00  0.00    -0.388 NA
ATOM      2  C   UNL     1      34.688 -22.143 -18.137  0.00  0.00    +0.167 C 
ATOM      3  C   UNL     1      35.914 -22.231 -17.538  0.00  0.00    +0.031 C 
ATOM      4  C   UNL     1      35.324 -20.504 -19.566  0.00  0.00    +0.167 C 
ATOM      5  C   UNL     1      36.902 -21.375 -18.014  0.00  0.00    -0.015 C 
ATOM      6  C   UNL     1      36.609 -20.492 -19.047  0.00  0.00    +0.101 C 
ATOM      7  O   UNL     1      37.079 -18.487 -20.923  0.00  0.00    -0.270 OA
ATOM      8  N   UNL     1      35.039 -19.610 -20.605  0.00  0.00    -0.259 N 
ATOM      9  C   UNL     1      35.902 -18.686 -21.203  0.00  0.00    +0.255 C 
ATOM     10  H   UNL     1      34.121 -19.636 -20.958  0.00  0.00    +0.157 HD
ENDROOT
BRANCH   9  14
ATOM     11  F   UNL     1      35.153 -19.754 -23.686  0.00  0.00    -0.204 F 
ATOM     12  F   UNL     1      35.430 -15.942 -20.866  0.00  0.00    -0.204 F 
ATOM     13  F   UNL     1      33.618 -15.549 -25.218  0.00  0.00    -0.204 F 
ATOM     14  C   UNL     1      35.293 -17.851 -22.272  0.00  0.00    +0.109 C 
ATOM     15  C   UNL     1      34.951 -18.447 -23.468  0.00  0.00    +0.149 C 
ATOM     16  C   UNL     1      35.092 -16.508 -22.033  0.00  0.00    +0.149 C 
ATOM     17  C   UNL     1      34.380 -17.663 -24.471  0.00  0.00    +0.060 C 
ATOM     18  C   UNL     1      34.522 -15.725 -23.037  0.00  0.00    +0.060 C 
ATOM     19  C   UNL     1      34.166 -16.302 -24.256  0.00  0.00    +0.145 C 
ENDBRANCH   9  14
BRANCH   2  21
ATOM     20  O   UNL     1      33.224 -23.977 -18.368  0.00  0.00    -0.289 OA
ATOM     21  C   UNL     1      33.592 -23.037 -17.669  0.00  0.00    +0.202 C 
BRANCH  21  23
ATOM     22  N   UNL     1      31.489 -23.840 -14.047  0.00  0.00    +0.386 N 
ATOM     23  C   UNL     1      32.953 -22.770 -16.341  0.00  0.00    +0.060 C 
ATOM     24  C   UNL     1      33.630 -23.621 -15.267  0.00  0.00    -0.015 C 
ATOM     25  C   UNL     1      31.459 -23.082 -16.401  0.00  0.00    -0.015 C 
ATOM     26  C   UNL     1      32.911 -23.493 -13.922  0.00  0.00    -0.077 C 
ATOM     27  C   UNL     1      30.813 -22.970 -15.019  0.00  0.00    -0.077 C 
ATOM     28  C   UNL     1      30.828 -23.763 -12.744  0.00  0.00    -0.101 C 
ATOM     29  H   UNL     1      31.429 -24.800 -14.388  0.00  0.00    -0.080 HD
ENDBRANCH  21  23
ENDBRANCH   2  21
TORSDOF 3
ENDMDL
MODEL 6
REMARK VINA RESULT:     -10.5      3.466      9.263
REMARK  Name = 11610526
REMARK  3 active torsions:
REMARK  status: ('A' for Active; 'I' for Inactive)
REMARK    1  A    between atoms: C_2  and  C_21
REMARK    2  A    between atoms: C_9  and  C_14
REMARK    3  A    between atoms: C_21  and  C_23
REMARK                            x       y       z     vdW  Elec       q    Type
REMARK                         _______ _______ _______ _____ _____    ______ ____
ROOT
ATOM      1  N   UNL     1      33.906 -14.388 -22.420  0.00  0.00    -0.388 NA
ATOM      2  C   UNL     1      33.500 -13.416 -23.241  0.00  0.00    +0.167 C 
ATOM      3  C   UNL     1      33.428 -13.473 -24.606  0.00  0.00    +0.031 C 
ATOM      4  C   UNL     1      34.279 -15.534 -23.033  0.00  0.00    +0.167 C 
ATOM      5  C   UNL     1      33.819 -14.668 -25.200  0.00  0.00    -0.015 C 
ATOM      6  C   UNL     1      34.254 -15.723 -24.405  0.00  0.00    +0.101 C 
ATOM      7  O   UNL     1      35.214 -18.271 -23.820  0.00  0.00    -0.270 OA
ATOM      8  N   UNL     1      34.717 -16.602 -22.242  0.00  0.00    -0.259 N 
ATOM      9  C   UNL     1      35.145 -17.864 -22.665  0.00  0.00    +0.255 C 
ATOM     10  H   UNL     1      34.727 -16.445 -21.270  0.00  0.00    +0.157 HD
ENDROOT
BRANCH   9  14
ATOM     11  F   UNL     1      37.743 -17.953 -21.613  0.00  0.00    -0.204 F 
ATOM     12  F   UNL     1      33.311 -19.658 -21.532  0.00  0.00    -0.204 F 
ATOM     13  F   UNL     1      36.575 -21.388 -18.577  0.00  0.00    -0.204 F 
ATOM     14  C   UNL     1      35.526 -18.802 -21.577  0.00  0.00    +0.109 C 
ATOM     15  C   UNL     1      36.824 -18.788 -21.110  0.00  0.00    +0.149 C 
ATOM     16  C   UNL     1      34.569 -19.655 -21.069  0.00  0.00    +0.149 C 
ATOM     17  C   UNL     1      37.181 -19.669 -20.088  0.00  0.00    +0.060 C 
ATOM     18  C   UNL     1      34.927 -20.536 -20.048  0.00  0.00    +0.060 C 
ATOM     19  C   UNL     1      36.233 -20.543 -19.558  0.00  0.00    +0.145 C 
ENDBRANCH   9  14
BRANCH   2  21
ATOM     20  O   UNL     1      32.681 -12.199 -21.394  0.00  0.00    -0.289 OA
ATOM     21  C   UNL     1      33.095 -12.160 -22.551  0.00  0.00    +0.202 C 
BRANCH  21  23
ATOM     22  N   UNL     1      34.122  -8.084 -23.271  0.00  0.00    +0.386 N 
ATOM     23  C   UNL     1      33.200 -10.859 -23.285  0.00  0.00    +0.060 C 
ATOM     24  C   UNL     1      34.672 -10.489 -23.462  0.00  0.00    -0.015 C 
ATOM     25  C   UNL     1      32.463  -9.760 -22.521  0.00  0.00    -0.015 C 
ATOM     26  C   UNL     1      34.823  -9.094 -24.074  0.00  0.00    -0.077 C 
ATOM     27  C   UNL     1      32.689  -8.391 -23.166  0.00  0.00    -0.077 C 
ATOM     28  C   UNL     1      34.319  -6.751 -23.840  0.00  0.00    -0.101 C 
ATOM     29  H   UNL     1      34.517  -8.100 -22.330  0.00  0.00    -0.080 HD
ENDBRANCH  21  23
ENDBRANCH   2  21
TORSDOF 3
ENDMDL
MODEL 7
REMARK VINA RESULT:     -10.3      6.035     11.501
REMARK  Name = 11610526
REMARK  3 active torsions:
REMARK  status: ('A' for Active; 'I' for Inactive)
REMARK    1  A    between atoms: C_2  and  C_21
REMARK    2  A    between atoms: C_9  and  C_14
REMARK    3  A    between atoms: C_21  and  C_23
REMARK                            x       y       z     vdW  Elec       q    Type
REMARK                         _______ _______ _______ _____ _____    ______ ____
ROOT
ATOM      1  N   UNL     1      35.575 -21.335 -18.486  0.00  0.00    -0.388 NA
ATOM      2  C   UNL     1      34.873 -20.763 -19.467  0.00  0.00    +0.167 C 
ATOM      3  C   UNL     1      33.527 -20.873 -19.684  0.00  0.00    +0.031 C 
ATOM      4  C   UNL     1      34.852 -22.098 -17.637  0.00  0.00    +0.167 C 
ATOM      5  C   UNL     1      32.816 -21.666 -18.790  0.00  0.00    -0.015 C 
ATOM      6  C   UNL     1      33.484 -22.294 -17.744  0.00  0.00    +0.101 C 
ATOM      7  O   UNL     1      33.787 -23.884 -15.477  0.00  0.00    -0.270 OA
ATOM      8  N   UNL     1      35.514 -22.734 -16.580  0.00  0.00    -0.259 N 
ATOM      9  C   UNL     1      34.965 -23.561 -15.596  0.00  0.00    +0.255 C 
ATOM     10  H   UNL     1      36.485 -22.581 -16.524  0.00  0.00    +0.157 HD
ENDROOT
BRANCH   9  14
ATOM     11  F   UNL     1      36.241 -21.859 -13.769  0.00  0.00    -0.204 F 
ATOM     12  F   UNL     1      35.621 -26.280 -15.391  0.00  0.00    -0.204 F 
ATOM     13  F   UNL     1      38.583 -25.465 -11.794  0.00  0.00    -0.204 F 
ATOM     14  C   UNL     1      35.927 -24.068 -14.584  0.00  0.00    +0.109 C 
ATOM     15  C   UNL     1      36.517 -23.170 -13.718  0.00  0.00    +0.149 C 
ATOM     16  C   UNL     1      36.201 -25.419 -14.544  0.00  0.00    +0.149 C 
ATOM     17  C   UNL     1      37.421 -23.646 -12.768  0.00  0.00    +0.060 C 
ATOM     18  C   UNL     1      37.106 -25.894 -13.594  0.00  0.00    +0.060 C 
ATOM     19  C   UNL     1      37.716 -25.008 -12.706  0.00  0.00    +0.145 C 
ENDBRANCH   9  14
BRANCH   2  21
ATOM     20  O   UNL     1      36.905 -20.069 -20.445  0.00  0.00    -0.289 OA
ATOM     21  C   UNL     1      35.685 -19.926 -20.395  0.00  0.00    +0.202 C 
BRANCH  21  23
ATOM     22  N   UNL     1      35.176 -17.051 -23.503  0.00  0.00    +0.386 N 
ATOM     23  C   UNL     1      34.995 -18.916 -21.258  0.00  0.00    +0.060 C 
ATOM     24  C   UNL     1      35.009 -19.389 -22.711  0.00  0.00    -0.015 C 
ATOM     25  C   UNL     1      35.681 -17.557 -21.134  0.00  0.00    -0.015 C 
ATOM     26  C   UNL     1      34.447 -18.318 -23.648  0.00  0.00    -0.077 C 
ATOM     27  C   UNL     1      35.096 -16.549 -22.124  0.00  0.00    -0.077 C 
ATOM     28  C   UNL     1      34.662 -16.055 -24.442  0.00  0.00    -0.101 C 
ATOM     29  H   UNL     1      36.158 -17.226 -23.717  0.00  0.00    -0.080 HD
ENDBRANCH  21  23
ENDBRANCH   2  21
TORSDOF 3
ENDMDL
MODEL 8
REMARK VINA RESULT:     -10.2      4.585     11.175
REMARK  Name = 11610526
REMARK  3 active torsions:
REMARK  status: ('A' for Active; 'I' for Inactive)
REMARK    1  A    between atoms: C_2  and  C_21
REMARK    2  A    between atoms: C_9  and  C_14
REMARK    3  A    between atoms: C_21  and  C_23
REMARK                            x       y       z     vdW  Elec       q    Type
REMARK                         _______ _______ _______ _____ _____    ______ ____
ROOT
ATOM      1  N   UNL     1      33.834  -9.094 -23.117  0.00  0.00    -0.388 NA
ATOM      2  C   UNL     1      33.352  -7.868 -22.897  0.00  0.00    +0.167 C 
ATOM      3  C   UNL     1      32.174  -7.550 -22.279  0.00  0.00    +0.031 C 
ATOM      4  C   UNL     1      33.052 -10.103 -22.673  0.00  0.00    +0.167 C 
ATOM      5  C   UNL     1      31.397  -8.614 -21.835  0.00  0.00    -0.015 C 
ATOM      6  C   UNL     1      31.838  -9.918 -22.032  0.00  0.00    +0.101 C 
ATOM      7  O   UNL     1      31.762 -12.700 -21.913  0.00  0.00    -0.270 OA
ATOM      8  N   UNL     1      33.487 -11.419 -22.866  0.00  0.00    -0.259 N 
ATOM      9  C   UNL     1      32.840 -12.600 -22.489  0.00  0.00    +0.255 C 
ATOM     10  H   UNL     1      34.352 -11.527 -23.323  0.00  0.00    +0.157 HD
ENDROOT
BRANCH   9  14
ATOM     11  F   UNL     1      34.271 -14.030 -20.546  0.00  0.00    -0.204 F 
ATOM     12  F   UNL     1      32.881 -13.687 -25.075  0.00  0.00    -0.204 F 
ATOM     13  F   UNL     1      35.592 -17.308 -23.692  0.00  0.00    -0.204 F 
ATOM     14  C   UNL     1      33.573 -13.853 -22.809  0.00  0.00    +0.109 C 
ATOM     15  C   UNL     1      34.255 -14.502 -21.800  0.00  0.00    +0.149 C 
ATOM     16  C   UNL     1      33.547 -14.327 -24.104  0.00  0.00    +0.149 C 
ATOM     17  C   UNL     1      34.942 -15.678 -22.101  0.00  0.00    +0.060 C 
ATOM     18  C   UNL     1      34.235 -15.503 -24.404  0.00  0.00    +0.060 C 
ATOM     19  C   UNL     1      34.933 -16.178 -23.403  0.00  0.00    +0.145 C 
ENDBRANCH   9  14
BRANCH   2  21
ATOM     20  O   UNL     1      35.375  -6.657 -22.974  0.00  0.00    -0.289 OA
ATOM     21  C   UNL     1      34.225  -6.768 -23.393  0.00  0.00    +0.202 C 
BRANCH  21  23
ATOM     22  N   UNL     1      33.709  -3.095 -25.498  0.00  0.00    +0.386 N 
ATOM     23  C   UNL     1      33.681  -5.807 -24.404  0.00  0.00    +0.060 C 
ATOM     24  C   UNL     1      34.817  -5.297 -25.291  0.00  0.00    -0.015 C 
ATOM     25  C   UNL     1      32.988  -4.639 -23.704  0.00  0.00    -0.015 C 
ATOM     26  C   UNL     1      34.331  -4.200 -26.240  0.00  0.00    -0.077 C 
ATOM     27  C   UNL     1      32.563  -3.565 -24.707  0.00  0.00    -0.077 C 
ATOM     28  C   UNL     1      33.298  -2.032 -26.415  0.00  0.00    -0.101 C 
ATOM     29  H   UNL     1      34.404  -2.719 -24.852  0.00  0.00    -0.080 HD
ENDBRANCH  21  23
ENDBRANCH   2  21
TORSDOF 3
ENDMDL
MODEL 9
REMARK VINA RESULT:     -10.2      4.590     11.246
REMARK  Name = 11610526
REMARK  3 active torsions:
REMARK  status: ('A' for Active; 'I' for Inactive)
REMARK    1  A    between atoms: C_2  and  C_21
REMARK    2  A    between atoms: C_9  and  C_14
REMARK    3  A    between atoms: C_21  and  C_23
REMARK                            x       y       z     vdW  Elec       q    Type
REMARK                         _______ _______ _______ _____ _____    ______ ____
ROOT
ATOM      1  N   UNL     1      33.800  -9.085 -23.122  0.00  0.00    -0.388 NA
ATOM      2  C   UNL     1      33.305  -7.862 -22.917  0.00  0.00    +0.167 C 
ATOM      3  C   UNL     1      32.110  -7.548 -22.331  0.00  0.00    +0.031 C 
ATOM      4  C   UNL     1      33.013 -10.097 -22.695  0.00  0.00    +0.167 C 
ATOM      5  C   UNL     1      31.328  -8.616 -21.904  0.00  0.00    -0.015 C 
ATOM      6  C   UNL     1      31.781  -9.918 -22.086  0.00  0.00    +0.101 C 
ATOM      7  O   UNL     1      31.718 -12.701 -21.961  0.00  0.00    -0.270 OA
ATOM      8  N   UNL     1      33.460 -11.412 -22.872  0.00  0.00    -0.259 N 
ATOM      9  C   UNL     1      32.811 -12.596 -22.509  0.00  0.00    +0.255 C 
ATOM     10  H   UNL     1      34.337 -11.516 -23.307  0.00  0.00    +0.157 HD
ENDROOT
BRANCH   9  14
ATOM     11  F   UNL     1      32.874 -13.722 -25.077  0.00  0.00    -0.204 F 
ATOM     12  F   UNL     1      34.249 -13.979 -20.538  0.00  0.00    -0.204 F 
ATOM     13  F   UNL     1      35.619 -17.291 -23.626  0.00  0.00    -0.204 F 
ATOM     14  C   UNL     1      33.559 -13.845 -22.807  0.00  0.00    +0.109 C 
ATOM     15  C   UNL     1      33.543 -14.340 -24.095  0.00  0.00    +0.149 C 
ATOM     16  C   UNL     1      34.243 -14.470 -21.785  0.00  0.00    +0.149 C 
ATOM     17  C   UNL     1      34.245 -15.513 -24.373  0.00  0.00    +0.060 C 
ATOM     18  C   UNL     1      34.944 -15.644 -22.065  0.00  0.00    +0.060 C 
ATOM     19  C   UNL     1      34.945 -16.165 -23.358  0.00  0.00    +0.145 C 
ENDBRANCH   9  14
BRANCH   2  21
ATOM     20  O   UNL     1      35.319  -6.634 -22.939  0.00  0.00    -0.289 OA
ATOM     21  C   UNL     1      34.184  -6.758 -23.394  0.00  0.00    +0.202 C 
BRANCH  21  23
ATOM     22  N   UNL     1      33.661  -3.091 -25.507  0.00  0.00    +0.386 N 
ATOM     23  C   UNL     1      33.664  -5.809 -24.430  0.00  0.00    +0.060 C 
ATOM     24  C   UNL     1      34.830  -5.255 -25.248  0.00  0.00    -0.015 C 
ATOM     25  C   UNL     1      32.894  -4.670 -23.764  0.00  0.00    -0.015 C 
ATOM     26  C   UNL     1      34.360  -4.169 -26.218  0.00  0.00    -0.077 C 
ATOM     27  C   UNL     1      32.489  -3.604 -24.784  0.00  0.00    -0.077 C 
ATOM     28  C   UNL     1      33.264  -2.036 -26.440  0.00  0.00    -0.101 C 
ATOM     29  H   UNL     1      34.305  -2.696 -24.821  0.00  0.00    -0.080 HD
ENDBRANCH  21  23
ENDBRANCH   2  21
TORSDOF 3
ENDMDL
