MODEL 1
REMARK VINA RESULT:     -11.5      0.000      0.000
REMARK  Name = 158376
REMARK  11 active torsions:
REMARK  status: ('A' for Active; 'I' for Inactive)
REMARK    1  A    between atoms: C_1  and  N_22
REMARK    2  A    between atoms: C_2  and  C_9
REMARK    3  A    between atoms: N_8  and  CA_11
REMARK    4  A    between atoms: CA_11  and  C_13
REMARK    5  A    between atoms: CA_11  and  CB_16
REMARK    6  A    between atoms: C_13  and  O_14
REMARK    7  A    between atoms: CB_16  and  CG_17
REMARK    8  A    between atoms: CG_17  and  CD_19
REMARK    9  A    between atoms: CD_19  and  OE1_20
REMARK   10  A    between atoms: N_22  and  C_24
REMARK   11  A    between atoms: C_24  and  C_29
REMARK                            x       y       z     vdW  Elec       q    Type
REMARK                         _______ _______ _______ _____ _____    ______ ____
ROOT
ATOM      1  C   UNL     1      35.377 -19.808 -20.226  0.00  0.00    +0.048 C 
ATOM      2  C   UNL     1      34.108 -21.821 -18.768  0.00  0.00    +0.053 C 
ATOM      3  C   UNL     1      33.989 -19.942 -20.284  0.00  0.00    +0.015 C 
ATOM      4  C   UNL     1      36.130 -20.680 -19.439  0.00  0.00    +0.015 C 
ATOM      5  C   UNL     1      33.356 -20.948 -19.555  0.00  0.00    +0.006 C 
ATOM      6  C   UNL     1      35.495 -21.686 -18.711  0.00  0.00    +0.006 C 
ENDROOT
BRANCH   2   9
ATOM      7  O   UNL     1      33.551 -24.060 -18.353  0.00  0.00    -0.270 OA
ATOM      8  N   UNL     1      32.721 -22.476 -16.875  0.00  0.00    -0.293 N 
ATOM      9  C   ACE A   0      33.433 -22.892 -17.992  0.00  0.00    +0.246 C 
ATOM     10  H   UNL     1      32.684 -21.515 -16.667  0.00  0.00    +0.150 HD
BRANCH   8  11
ATOM     11  CA  UNL     1      32.033 -23.398 -16.007  0.00  0.00    +0.172 C 
BRANCH  11  13
ATOM     12  OXT UNL     1      29.931 -22.467 -16.812  0.00  0.00    -0.248 OA
ATOM     13  C   UNL     1      30.594 -22.937 -15.896  0.00  0.00    +0.332 C 
BRANCH  13  14
ATOM     14  O   UNL     1      30.092 -23.138 -14.649  0.00  0.00    -0.479 OA
ATOM     15  H   UNL     1      29.287 -23.602 -14.538  0.00  0.00    +0.295 HD
ENDBRANCH  13  14
ENDBRANCH  11  13
BRANCH  11  16
ATOM     16  CB  UNL     1      32.733 -23.575 -14.654  0.00  0.00    +0.043 C 
BRANCH  16  17
ATOM     17  CG  UNL     1      34.194 -23.112 -14.593  0.00  0.00    +0.112 C 
BRANCH  17  19
ATOM     18  OE2 UNL     1      36.195 -24.269 -15.364  0.00  0.00    -0.250 OA
ATOM     19  CD  UNL     1      35.195 -24.245 -14.659  0.00  0.00    +0.314 C 
BRANCH  19  20
ATOM     20  OE1 UNL     1      34.833 -25.280 -13.857  0.00  0.00    -0.480 OA
ATOM     21  HE1 UNL     1      34.105 -25.188 -13.274  0.00  0.00    +0.295 HD
ENDBRANCH  19  20
ENDBRANCH  17  19
ENDBRANCH  16  17
ENDBRANCH  11  16
ENDBRANCH   8  11
ENDBRANCH   2   9
BRANCH   1  22
ATOM     22  N   UNL     1      36.019 -18.790 -20.961  0.00  0.00    -0.302 N 
ATOM     23  C   UNL     1      37.323 -19.021 -21.550  0.00  0.00    +0.112 C 
BRANCH  22  24
ATOM     24  C   UNL     1      35.375 -17.505 -21.150  0.00  0.00    +0.118 C 
BRANCH  24  29
ATOM     25  O   UNL     1      34.512 -17.444 -24.744  0.00  0.00    -0.427 OA
ATOM     26  N   UNL     1      33.868 -15.214 -25.303  0.00  0.00    -0.294 NA
ATOM     27  N   UNL     1      33.957 -13.664 -23.426  0.00  0.00    -0.317 NA
ATOM     28  N   UNL     1      33.291 -12.961 -25.557  0.00  0.00    -0.283 N 
ATOM     29  C   UNL     1      34.969 -17.183 -22.555  0.00  0.00    +0.031 C 
ATOM     30  C   UNL     1      34.561 -15.931 -23.073  0.00  0.00    +0.180 C 
ATOM     31  C   UNL     1      34.288 -16.138 -24.422  0.00  0.00    +0.281 C 
ATOM     32  C   UNL     1      34.924 -18.067 -23.609  0.00  0.00    +0.176 C 
ATOM     33  C   UNL     1      34.379 -14.638 -22.587  0.00  0.00    +0.181 C 
ATOM     34  C   UNL     1      33.730 -14.008 -24.714  0.00  0.00    +0.200 C 
ATOM     35  H   UNL     1      33.107 -13.140 -26.508  0.00  0.00    +0.156 HD
ATOM     36  H   UNL     1      33.170 -12.055 -25.193  0.00  0.00    +0.156 HD
ATOM     37  N   UNL     1      34.629 -14.329 -21.237  0.00  0.00    -0.335 N 
ATOM     38  H   UNL     1      34.496 -13.411 -20.910  0.00  0.00    +0.144 HD
ATOM     39  H   UNL     1      34.937 -15.032 -20.620  0.00  0.00    +0.144 HD
ENDBRANCH  24  29
ENDBRANCH  22  24
ENDBRANCH   1  22
TORSDOF 11
ENDMDL
MODEL 2
REMARK VINA RESULT:     -11.5      1.246      1.721
REMARK  Name = 158376
REMARK  11 active torsions:
REMARK  status: ('A' for Active; 'I' for Inactive)
REMARK    1  A    between atoms: C_1  and  N_22
REMARK    2  A    between atoms: C_2  and  C_9
REMARK    3  A    between atoms: N_8  and  CA_11
REMARK    4  A    between atoms: CA_11  and  C_13
REMARK    5  A    between atoms: CA_11  and  CB_16
REMARK    6  A    between atoms: C_13  and  O_14
REMARK    7  A    between atoms: CB_16  and  CG_17
REMARK    8  A    between atoms: CG_17  and  CD_19
REMARK    9  A    between atoms: CD_19  and  OE1_20
REMARK   10  A    between atoms: N_22  and  C_24
REMARK   11  A    between atoms: C_24  and  C_29
REMARK                            x       y       z     vdW  Elec       q    Type
REMARK                         _______ _______ _______ _____ _____    ______ ____
ROOT
ATOM      1  C   UNL     1      35.397 -19.768 -20.277  0.00  0.00    +0.048 C 
ATOM      2  C   UNL     1      34.145 -21.786 -18.812  0.00  0.00    +0.053 C 
ATOM      3  C   UNL     1      34.011 -19.913 -20.333  0.00  0.00    +0.015 C 
ATOM      4  C   UNL     1      36.157 -20.631 -19.489  0.00  0.00    +0.015 C 
ATOM      5  C   UNL     1      33.385 -20.921 -19.600  0.00  0.00    +0.006 C 
ATOM      6  C   UNL     1      35.531 -21.641 -18.756  0.00  0.00    +0.006 C 
ENDROOT
BRANCH   2   9
ATOM      7  O   UNL     1      33.587 -24.026 -18.401  0.00  0.00    -0.270 OA
ATOM      8  N   UNL     1      32.787 -22.448 -16.900  0.00  0.00    -0.293 N 
ATOM      9  C   ACE A   0      33.479 -22.859 -18.031  0.00  0.00    +0.246 C 
ATOM     10  H   UNL     1      32.756 -21.488 -16.686  0.00  0.00    +0.150 HD
BRANCH   8  11
ATOM     11  CA  UNL     1      32.109 -23.373 -16.027  0.00  0.00    +0.172 C 
BRANCH  11  13
ATOM     12  OXT UNL     1      29.754 -23.969 -15.858  0.00  0.00    -0.248 OA
ATOM     13  C   UNL     1      30.619 -23.185 -16.226  0.00  0.00    +0.332 C 
BRANCH  13  14
ATOM     14  O   UNL     1      30.335 -22.006 -16.839  0.00  0.00    -0.479 OA
ATOM     15  H   UNL     1      30.639 -21.201 -16.470  0.00  0.00    +0.295 HD
ENDBRANCH  13  14
ENDBRANCH  11  13
BRANCH  11  16
ATOM     16  CB  UNL     1      32.560 -23.248 -14.567  0.00  0.00    +0.043 C 
BRANCH  16  17
ATOM     17  CG  UNL     1      32.489 -24.534 -13.733  0.00  0.00    +0.112 C 
BRANCH  17  19
ATOM     18  OE2 UNL     1      30.792 -24.179 -12.020  0.00  0.00    -0.250 OA
ATOM     19  CD  UNL     1      31.158 -24.741 -13.044  0.00  0.00    +0.314 C 
BRANCH  19  20
ATOM     20  OE1 UNL     1      30.404 -25.675 -13.681  0.00  0.00    -0.480 OA
ATOM     21  HE1 UNL     1      30.411 -25.723 -14.617  0.00  0.00    +0.295 HD
ENDBRANCH  19  20
ENDBRANCH  17  19
ENDBRANCH  16  17
ENDBRANCH  11  16
ENDBRANCH   8  11
ENDBRANCH   2   9
BRANCH   1  22
ATOM     22  N   UNL     1      36.030 -18.748 -21.017  0.00  0.00    -0.302 N 
ATOM     23  C   UNL     1      37.328 -18.976 -21.620  0.00  0.00    +0.112 C 
BRANCH  22  24
ATOM     24  C   UNL     1      35.384 -17.462 -21.196  0.00  0.00    +0.118 C 
BRANCH  24  29
ATOM     25  O   UNL     1      34.596 -17.344 -24.805  0.00  0.00    -0.427 OA
ATOM     26  N   UNL     1      33.896 -15.121 -25.328  0.00  0.00    -0.294 NA
ATOM     27  N   UNL     1      33.898 -13.614 -23.414  0.00  0.00    -0.317 NA
ATOM     28  N   UNL     1      33.257 -12.881 -25.543  0.00  0.00    -0.283 N 
ATOM     29  C   UNL     1      34.998 -17.120 -22.602  0.00  0.00    +0.031 C 
ATOM     30  C   UNL     1      34.563 -15.869 -23.100  0.00  0.00    +0.180 C 
ATOM     31  C   UNL     1      34.326 -16.052 -24.459  0.00  0.00    +0.281 C 
ATOM     32  C   UNL     1      35.002 -17.980 -23.676  0.00  0.00    +0.176 C 
ATOM     33  C   UNL     1      34.331 -14.594 -22.588  0.00  0.00    +0.181 C 
ATOM     34  C   UNL     1      33.710 -13.935 -24.715  0.00  0.00    +0.200 C 
ATOM     35  H   UNL     1      33.098 -13.043 -26.501  0.00  0.00    +0.156 HD
ATOM     36  H   UNL     1      33.100 -11.988 -25.161  0.00  0.00    +0.156 HD
ATOM     37  N   UNL     1      34.543 -14.309 -21.227  0.00  0.00    -0.335 N 
ATOM     38  H   UNL     1      34.375 -13.404 -20.881  0.00  0.00    +0.144 HD
ATOM     39  H   UNL     1      34.859 -15.017 -20.619  0.00  0.00    +0.144 HD
ENDBRANCH  24  29
ENDBRANCH  22  24
ENDBRANCH   1  22
TORSDOF 11
ENDMDL
MODEL 3
REMARK VINA RESULT:     -10.9      3.507     10.611
REMARK  Name = 158376
REMARK  11 active torsions:
REMARK  status: ('A' for Active; 'I' for Inactive)
REMARK    1  A    between atoms: C_1  and  N_22
REMARK    2  A    between atoms: C_2  and  C_9
REMARK    3  A    between atoms: N_8  and  CA_11
REMARK    4  A    between atoms: CA_11  and  C_13
REMARK    5  A    between atoms: CA_11  and  CB_16
REMARK    6  A    between atoms: C_13  and  O_14
REMARK    7  A    between atoms: CB_16  and  CG_17
REMARK    8  A    between atoms: CG_17  and  CD_19
REMARK    9  A    between atoms: CD_19  and  OE1_20
REMARK   10  A    between atoms: N_22  and  C_24
REMARK   11  A    between atoms: C_24  and  C_29
REMARK                            x       y       z     vdW  Elec       q    Type
REMARK                         _______ _______ _______ _____ _____    ______ ____
ROOT
ATOM      1  C   UNL     1      35.276 -17.091 -22.286  0.00  0.00    +0.048 C 
ATOM      2  C   UNL     1      34.292 -14.719 -23.377  0.00  0.00    +0.053 C 
ATOM      3  C   UNL     1      35.010 -17.010 -23.653  0.00  0.00    +0.015 C 
ATOM      4  C   UNL     1      35.051 -15.986 -21.465  0.00  0.00    +0.015 C 
ATOM      5  C   UNL     1      34.518 -15.824 -24.198  0.00  0.00    +0.006 C 
ATOM      6  C   UNL     1      34.559 -14.800 -22.011  0.00  0.00    +0.006 C 
ENDROOT
BRANCH   2   9
ATOM      7  O   UNL     1      33.114 -13.499 -24.996  0.00  0.00    -0.270 OA
ATOM      8  N   UNL     1      34.050 -12.297 -23.247  0.00  0.00    -0.293 N 
ATOM      9  C   ACE A   0      33.769 -13.456 -23.958  0.00  0.00    +0.246 C 
ATOM     10  H   UNL     1      34.585 -12.365 -22.423  0.00  0.00    +0.150 HD
BRANCH   8  11
ATOM     11  CA  UNL     1      33.591 -10.998 -23.668  0.00  0.00    +0.172 C 
BRANCH  11  13
ATOM     12  OXT UNL     1      35.000 -10.485 -25.587  0.00  0.00    -0.248 OA
ATOM     13  C   UNL     1      34.731 -10.324 -24.403  0.00  0.00    +0.332 C 
BRANCH  13  14
ATOM     14  O   UNL     1      35.420  -9.472 -23.599  0.00  0.00    -0.479 OA
ATOM     15  H   UNL     1      36.347  -9.383 -23.697  0.00  0.00    +0.295 HD
ENDBRANCH  13  14
ENDBRANCH  11  13
BRANCH  11  16
ATOM     16  CB  UNL     1      33.022 -10.167 -22.512  0.00  0.00    +0.043 C 
BRANCH  16  17
ATOM     17  CG  UNL     1      31.651 -10.607 -21.984  0.00  0.00    +0.112 C 
BRANCH  17  19
ATOM     18  OE2 UNL     1      31.752 -11.010 -19.583  0.00  0.00    -0.250 OA
ATOM     19  CD  UNL     1      31.723 -11.445 -20.726  0.00  0.00    +0.314 C 
BRANCH  19  20
ATOM     20  OE1 UNL     1      31.792 -12.772 -21.012  0.00  0.00    -0.480 OA
ATOM     21  HE1 UNL     1      31.034 -13.313 -20.909  0.00  0.00    +0.295 HD
ENDBRANCH  19  20
ENDBRANCH  17  19
ENDBRANCH  16  17
ENDBRANCH  11  16
ENDBRANCH   8  11
ENDBRANCH   2   9
BRANCH   1  22
ATOM     22  N   UNL     1      35.775 -18.289 -21.734  0.00  0.00    -0.302 N 
ATOM     23  C   UNL     1      37.177 -18.412 -21.392  0.00  0.00    +0.112 C 
BRANCH  22  24
ATOM     24  C   UNL     1      34.887 -19.409 -21.489  0.00  0.00    +0.118 C 
BRANCH  24  29
ATOM     25  O   UNL     1      36.508 -21.389 -18.821  0.00  0.00    -0.427 OA
ATOM     26  N   UNL     1      34.789 -22.480 -17.574  0.00  0.00    -0.294 NA
ATOM     27  N   UNL     1      32.539 -22.004 -18.375  0.00  0.00    -0.317 NA
ATOM     28  N   UNL     1      32.907 -23.412 -16.543  0.00  0.00    -0.283 N 
ATOM     29  C   UNL     1      35.257 -20.288 -20.334  0.00  0.00    +0.031 C 
ATOM     30  C   UNL     1      34.386 -21.012 -19.485  0.00  0.00    +0.180 C 
ATOM     31  C   UNL     1      35.198 -21.674 -18.569  0.00  0.00    +0.281 C 
ATOM     32  C   UNL     1      36.532 -20.552 -19.890  0.00  0.00    +0.176 C 
ATOM     33  C   UNL     1      33.011 -21.203 -19.358  0.00  0.00    +0.181 C 
ATOM     34  C   UNL     1      33.444 -22.584 -17.555  0.00  0.00    +0.200 C 
ATOM     35  H   UNL     1      33.509 -23.867 -15.910  0.00  0.00    +0.156 HD
ATOM     36  H   UNL     1      31.933 -23.534 -16.472  0.00  0.00    +0.156 HD
ATOM     37  N   UNL     1      32.109 -20.577 -20.237  0.00  0.00    -0.335 N 
ATOM     38  H   UNL     1      31.141 -20.722 -20.134  0.00  0.00    +0.144 HD
ATOM     39  H   UNL     1      32.445 -19.994 -20.955  0.00  0.00    +0.144 HD
ENDBRANCH  24  29
ENDBRANCH  22  24
ENDBRANCH   1  22
TORSDOF 11
ENDMDL
MODEL 4
REMARK VINA RESULT:     -10.6      1.333      1.976
REMARK  Name = 158376
REMARK  11 active torsions:
REMARK  status: ('A' for Active; 'I' for Inactive)
REMARK    1  A    between atoms: C_1  and  N_22
REMARK    2  A    between atoms: C_2  and  C_9
REMARK    3  A    between atoms: N_8  and  CA_11
REMARK    4  A    between atoms: CA_11  and  C_13
REMARK    5  A    between atoms: CA_11  and  CB_16
REMARK    6  A    between atoms: C_13  and  O_14
REMARK    7  A    between atoms: CB_16  and  CG_17
REMARK    8  A    between atoms: CG_17  and  CD_19
REMARK    9  A    between atoms: CD_19  and  OE1_20
REMARK   10  A    between atoms: N_22  and  C_24
REMARK   11  A    between atoms: C_24  and  C_29
REMARK                            x       y       z     vdW  Elec       q    Type
REMARK                         _______ _______ _______ _____ _____    ______ ____
ROOT
ATOM      1  C   UNL     1      35.172 -20.311 -19.968  0.00  0.00    +0.048 C 
ATOM      2  C   UNL     1      33.830 -22.077 -18.275  0.00  0.00    +0.053 C 
ATOM      3  C   UNL     1      33.779 -20.377 -19.993  0.00  0.00    +0.015 C 
ATOM      4  C   UNL     1      35.894 -21.126 -19.097  0.00  0.00    +0.015 C 
ATOM      5  C   UNL     1      33.108 -21.260 -19.146  0.00  0.00    +0.006 C 
ATOM      6  C   UNL     1      35.222 -22.009 -18.250  0.00  0.00    +0.006 C 
ENDROOT
BRANCH   2   9
ATOM      7  O   UNL     1      33.534 -24.165 -17.250  0.00  0.00    -0.270 OA
ATOM      8  N   UNL     1      32.014 -22.499 -16.705  0.00  0.00    -0.293 N 
ATOM      9  C   ACE A   0      33.115 -23.016 -17.373  0.00  0.00    +0.246 C 
ATOM     10  H   UNL     1      31.756 -21.564 -16.871  0.00  0.00    +0.150 HD
BRANCH   8  11
ATOM     11  CA  UNL     1      31.233 -23.278 -15.778  0.00  0.00    +0.172 C 
BRANCH  11  13
ATOM     12  OXT UNL     1      29.292 -22.048 -16.585  0.00  0.00    -0.248 OA
ATOM     13  C   UNL     1      29.773 -23.077 -16.127  0.00  0.00    +0.332 C 
BRANCH  13  14
ATOM     14  O   UNL     1      29.040 -24.200 -15.907  0.00  0.00    -0.479 OA
ATOM     15  H   UNL     1      28.902 -24.813 -16.602  0.00  0.00    +0.295 HD
ENDBRANCH  13  14
ENDBRANCH  11  13
BRANCH  11  16
ATOM     16  CB  UNL     1      31.569 -22.969 -14.314  0.00  0.00    +0.043 C 
BRANCH  16  17
ATOM     17  CG  UNL     1      32.042 -24.160 -13.472  0.00  0.00    +0.112 C 
BRANCH  17  19
ATOM     18  OE2 UNL     1      34.063 -24.030 -12.117  0.00  0.00    -0.250 OA
ATOM     19  CD  UNL     1      33.532 -24.168 -13.210  0.00  0.00    +0.314 C 
BRANCH  19  20
ATOM     20  OE1 UNL     1      34.241 -24.312 -14.361  0.00  0.00    -0.480 OA
ATOM     21  HE1 UNL     1      34.653 -23.567 -14.753  0.00  0.00    +0.295 HD
ENDBRANCH  19  20
ENDBRANCH  17  19
ENDBRANCH  16  17
ENDBRANCH  11  16
ENDBRANCH   8  11
ENDBRANCH   2   9
BRANCH   1  22
ATOM     22  N   UNL     1      35.851 -19.418 -20.822  0.00  0.00    -0.302 N 
ATOM     23  C   UNL     1      37.232 -19.061 -20.565  0.00  0.00    +0.112 C 
BRANCH  22  24
ATOM     24  C   UNL     1      35.180 -18.855 -21.978  0.00  0.00    +0.118 C 
BRANCH  24  29
ATOM     25  O   UNL     1      34.873 -15.258 -21.184  0.00  0.00    -0.427 OA
ATOM     26  N   UNL     1      34.181 -14.128 -23.170  0.00  0.00    -0.294 NA
ATOM     27  N   UNL     1      33.883 -15.600 -25.087  0.00  0.00    -0.317 NA
ATOM     28  N   UNL     1      33.508 -13.296 -25.250  0.00  0.00    -0.283 N 
ATOM     29  C   UNL     1      34.974 -17.372 -21.950  0.00  0.00    +0.031 C 
ATOM     30  C   UNL     1      34.568 -16.535 -23.017  0.00  0.00    +0.180 C 
ATOM     31  C   UNL     1      34.520 -15.243 -22.501  0.00  0.00    +0.281 C 
ATOM     32  C   UNL     1      35.144 -16.549 -20.861  0.00  0.00    +0.176 C 
ATOM     33  C   UNL     1      34.233 -16.687 -24.361  0.00  0.00    +0.181 C 
ATOM     34  C   UNL     1      33.880 -14.405 -24.455  0.00  0.00    +0.200 C 
ATOM     35  H   UNL     1      33.483 -12.394 -24.855  0.00  0.00    +0.156 HD
ATOM     36  H   UNL     1      33.274 -13.426 -26.197  0.00  0.00    +0.156 HD
ATOM     37  N   UNL     1      34.251 -17.953 -24.973  0.00  0.00    -0.335 N 
ATOM     38  H   UNL     1      34.011 -18.044 -25.924  0.00  0.00    +0.144 HD
ATOM     39  H   UNL     1      34.503 -18.749 -24.452  0.00  0.00    +0.144 HD
ENDBRANCH  24  29
ENDBRANCH  22  24
ENDBRANCH   1  22
TORSDOF 11
ENDMDL
MODEL 5
REMARK VINA RESULT:     -10.4      4.035     11.201
REMARK  Name = 158376
REMARK  11 active torsions:
REMARK  status: ('A' for Active; 'I' for Inactive)
REMARK    1  A    between atoms: C_1  and  N_22
REMARK    2  A    between atoms: C_2  and  C_9
REMARK    3  A    between atoms: N_8  and  CA_11
REMARK    4  A    between atoms: CA_11  and  C_13
REMARK    5  A    between atoms: CA_11  and  CB_16
REMARK    6  A    between atoms: C_13  and  O_14
REMARK    7  A    between atoms: CB_16  and  CG_17
REMARK    8  A    between atoms: CG_17  and  CD_19
REMARK    9  A    between atoms: CD_19  and  OE1_20
REMARK   10  A    between atoms: N_22  and  C_24
REMARK   11  A    between atoms: C_24  and  C_29
REMARK                            x       y       z     vdW  Elec       q    Type
REMARK                         _______ _______ _______ _____ _____    ______ ____
ROOT
ATOM      1  C   UNL     1      34.824 -17.493 -22.989  0.00  0.00    +0.048 C 
ATOM      2  C   UNL     1      34.027 -14.962 -23.852  0.00  0.00    +0.053 C 
ATOM      3  C   UNL     1      34.207 -17.342 -24.232  0.00  0.00    +0.015 C 
ATOM      4  C   UNL     1      35.042 -16.380 -22.179  0.00  0.00    +0.015 C 
ATOM      5  C   UNL     1      33.809 -16.077 -24.663  0.00  0.00    +0.006 C 
ATOM      6  C   UNL     1      34.643 -15.114 -22.610  0.00  0.00    +0.006 C 
ENDROOT
BRANCH   2   9
ATOM      7  O   UNL     1      33.051 -13.499 -25.402  0.00  0.00    -0.270 OA
ATOM      8  N   UNL     1      33.851 -12.568 -23.434  0.00  0.00    -0.293 N 
ATOM      9  C   ACE A   0      33.603 -13.615 -24.311  0.00  0.00    +0.246 C 
ATOM     10  H   UNL     1      34.301 -12.761 -22.580  0.00  0.00    +0.150 HD
BRANCH   8  11
ATOM     11  CA  UNL     1      33.476 -11.207 -23.726  0.00  0.00    +0.172 C 
BRANCH  11  13
ATOM     12  OXT UNL     1      34.943 -10.615 -25.578  0.00  0.00    -0.248 OA
ATOM     13  C   UNL     1      34.662 -10.537 -24.389  0.00  0.00    +0.332 C 
BRANCH  13  14
ATOM     14  O   UNL     1      35.379  -9.789 -23.509  0.00  0.00    -0.479 OA
ATOM     15  H   UNL     1      36.238 -10.061 -23.255  0.00  0.00    +0.295 HD
ENDBRANCH  13  14
ENDBRANCH  11  13
BRANCH  11  16
ATOM     16  CB  UNL     1      32.952 -10.460 -22.494  0.00  0.00    +0.043 C 
BRANCH  16  17
ATOM     17  CG  UNL     1      32.103  -9.215 -22.779  0.00  0.00    +0.112 C 
BRANCH  17  19
ATOM     18  OE2 UNL     1      33.831  -7.590 -22.221  0.00  0.00    -0.250 OA
ATOM     19  CD  UNL     1      32.661  -7.945 -22.175  0.00  0.00    +0.314 C 
BRANCH  19  20
ATOM     20  OE1 UNL     1      31.701  -7.238 -21.522  0.00  0.00    -0.480 OA
ATOM     21  HE1 UNL     1      30.837  -7.180 -21.881  0.00  0.00    +0.295 HD
ENDBRANCH  19  20
ENDBRANCH  17  19
ENDBRANCH  16  17
ENDBRANCH  11  16
ENDBRANCH   8  11
ENDBRANCH   2   9
BRANCH   1  22
ATOM     22  N   UNL     1      35.228 -18.772 -22.554  0.00  0.00    -0.302 N 
ATOM     23  C   UNL     1      35.518 -19.818 -23.514  0.00  0.00    +0.112 C 
BRANCH  22  24
ATOM     24  C   UNL     1      35.373 -19.053 -21.139  0.00  0.00    +0.118 C 
BRANCH  24  29
ATOM     25  O   UNL     1      32.245 -20.744 -20.128  0.00  0.00    -0.427 OA
ATOM     26  N   UNL     1      32.772 -22.259 -18.359  0.00  0.00    -0.294 NA
ATOM     27  N   UNL     1      35.127 -22.267 -17.739  0.00  0.00    -0.317 NA
ATOM     28  N   UNL     1      33.577 -23.646 -16.656  0.00  0.00    -0.283 N 
ATOM     29  C   UNL     1      34.286 -19.882 -20.527  0.00  0.00    +0.031 C 
ATOM     30  C   UNL     1      34.403 -20.826 -19.479  0.00  0.00    +0.180 C 
ATOM     31  C   UNL     1      33.124 -21.332 -19.266  0.00  0.00    +0.281 C 
ATOM     32  C   UNL     1      32.957 -19.869 -20.884  0.00  0.00    +0.176 C 
ATOM     33  C   UNL     1      35.420 -21.331 -18.672  0.00  0.00    +0.181 C 
ATOM     34  C   UNL     1      33.839 -22.667 -17.643  0.00  0.00    +0.200 C 
ATOM     35  H   UNL     1      32.661 -23.984 -16.530  0.00  0.00    +0.156 HD
ATOM     36  H   UNL     1      34.310 -23.989 -16.096  0.00  0.00    +0.156 HD
ATOM     37  N   UNL     1      36.746 -20.882 -18.810  0.00  0.00    -0.335 N 
ATOM     38  H   UNL     1      37.453 -21.248 -18.232  0.00  0.00    +0.144 HD
ATOM     39  H   UNL     1      36.967 -20.200 -19.486  0.00  0.00    +0.144 HD
ENDBRANCH  24  29
ENDBRANCH  22  24
ENDBRANCH   1  22
TORSDOF 11
ENDMDL
MODEL 6
REMARK VINA RESULT:     -10.2      2.334      3.796
REMARK  Name = 158376
REMARK  11 active torsions:
REMARK  status: ('A' for Active; 'I' for Inactive)
REMARK    1  A    between atoms: C_1  and  N_22
REMARK    2  A    between atoms: C_2  and  C_9
REMARK    3  A    between atoms: N_8  and  CA_11
REMARK    4  A    between atoms: CA_11  and  C_13
REMARK    5  A    between atoms: CA_11  and  CB_16
REMARK    6  A    between atoms: C_13  and  O_14
REMARK    7  A    between atoms: CB_16  and  CG_17
REMARK    8  A    between atoms: CG_17  and  CD_19
REMARK    9  A    between atoms: CD_19  and  OE1_20
REMARK   10  A    between atoms: N_22  and  C_24
REMARK   11  A    between atoms: C_24  and  C_29
REMARK                            x       y       z     vdW  Elec       q    Type
REMARK                         _______ _______ _______ _____ _____    ______ ____
ROOT
ATOM      1  C   UNL     1      34.749 -20.962 -19.344  0.00  0.00    +0.048 C 
ATOM      2  C   UNL     1      35.415 -22.370 -17.029  0.00  0.00    +0.053 C 
ATOM      3  C   UNL     1      33.765 -21.663 -18.647  0.00  0.00    +0.015 C 
ATOM      4  C   UNL     1      36.066 -20.964 -18.884  0.00  0.00    +0.015 C 
ATOM      5  C   UNL     1      34.098 -22.366 -17.490  0.00  0.00    +0.006 C 
ATOM      6  C   UNL     1      36.399 -21.669 -17.726  0.00  0.00    +0.006 C 
ENDROOT
BRANCH   2   9
ATOM      7  O   UNL     1      35.248 -24.211 -15.588  0.00  0.00    -0.270 OA
ATOM      8  N   UNL     1      36.707 -22.518 -14.968  0.00  0.00    -0.293 N 
ATOM      9  C   ACE A   0      35.770 -23.119 -15.796  0.00  0.00    +0.246 C 
ATOM     10  H   UNL     1      37.069 -21.638 -15.222  0.00  0.00    +0.150 HD
BRANCH   8  11
ATOM     11  CA  UNL     1      37.172 -23.131 -13.750  0.00  0.00    +0.172 C 
BRANCH  11  13
ATOM     12  OXT UNL     1      39.138 -24.300 -14.587  0.00  0.00    -0.248 OA
ATOM     13  C   UNL     1      38.002 -24.339 -14.132  0.00  0.00    +0.332 C 
BRANCH  13  14
ATOM     14  O   UNL     1      37.350 -25.504 -13.874  0.00  0.00    -0.479 OA
ATOM     15  H   UNL     1      37.304 -25.831 -12.999  0.00  0.00    +0.295 HD
ENDBRANCH  13  14
ENDBRANCH  11  13
BRANCH  11  16
ATOM     16  CB  UNL     1      36.033 -23.445 -12.773  0.00  0.00    +0.043 C 
BRANCH  16  17
ATOM     17  CG  UNL     1      36.392 -23.377 -11.283  0.00  0.00    +0.112 C 
BRANCH  17  19
ATOM     18  OE2 UNL     1      36.631 -25.779 -10.948  0.00  0.00    -0.250 OA
ATOM     19  CD  UNL     1      36.226 -24.693 -10.555  0.00  0.00    +0.314 C 
BRANCH  19  20
ATOM     20  OE1 UNL     1      35.524 -24.542  -9.401  0.00  0.00    -0.480 OA
ATOM     21  HE1 UNL     1      34.889 -25.185  -9.152  0.00  0.00    +0.295 HD
ENDBRANCH  19  20
ENDBRANCH  17  19
ENDBRANCH  16  17
ENDBRANCH  11  16
ENDBRANCH   8  11
ENDBRANCH   2   9
BRANCH   1  22
ATOM     22  N   UNL     1      34.413 -20.249 -20.513  0.00  0.00    -0.302 N 
ATOM     23  C   UNL     1      33.024 -20.012 -20.854  0.00  0.00    +0.112 C 
BRANCH  22  24
ATOM     24  C   UNL     1      35.452 -19.731 -21.382  0.00  0.00    +0.118 C 
BRANCH  24  29
ATOM     25  O   UNL     1      34.264 -18.845 -24.768  0.00  0.00    -0.427 OA
ATOM     26  N   UNL     1      34.003 -16.473 -24.854  0.00  0.00    -0.294 NA
ATOM     27  N   UNL     1      34.570 -15.346 -22.770  0.00  0.00    -0.317 NA
ATOM     28  N   UNL     1      33.842 -14.148 -24.645  0.00  0.00    -0.283 N 
ATOM     29  C   UNL     1      34.977 -19.085 -22.647  0.00  0.00    +0.031 C 
ATOM     30  C   UNL     1      34.764 -17.707 -22.887  0.00  0.00    +0.180 C 
ATOM     31  C   UNL     1      34.325 -17.605 -24.204  0.00  0.00    +0.281 C 
ATOM     32  C   UNL     1      34.660 -19.732 -23.819  0.00  0.00    +0.176 C 
ATOM     33  C   UNL     1      34.880 -16.518 -22.170  0.00  0.00    +0.181 C 
ATOM     34  C   UNL     1      34.156 -15.396 -24.057  0.00  0.00    +0.200 C 
ATOM     35  H   UNL     1      33.534 -14.110 -25.580  0.00  0.00    +0.156 HD
ATOM     36  H   UNL     1      33.932 -13.321 -24.121  0.00  0.00    +0.156 HD
ATOM     37  N   UNL     1      35.317 -16.518 -20.833  0.00  0.00    -0.335 N 
ATOM     38  H   UNL     1      35.393 -15.669 -20.340  0.00  0.00    +0.144 HD
ATOM     39  H   UNL     1      35.545 -17.366 -20.389  0.00  0.00    +0.144 HD
ENDBRANCH  24  29
ENDBRANCH  22  24
ENDBRANCH   1  22
TORSDOF 11
ENDMDL
MODEL 7
REMARK VINA RESULT:     -10.1      0.929      2.901
REMARK  Name = 158376
REMARK  11 active torsions:
REMARK  status: ('A' for Active; 'I' for Inactive)
REMARK    1  A    between atoms: C_1  and  N_22
REMARK    2  A    between atoms: C_2  and  C_9
REMARK    3  A    between atoms: N_8  and  CA_11
REMARK    4  A    between atoms: CA_11  and  C_13
REMARK    5  A    between atoms: CA_11  and  CB_16
REMARK    6  A    between atoms: C_13  and  O_14
REMARK    7  A    between atoms: CB_16  and  CG_17
REMARK    8  A    between atoms: CG_17  and  CD_19
REMARK    9  A    between atoms: CD_19  and  OE1_20
REMARK   10  A    between atoms: N_22  and  C_24
REMARK   11  A    between atoms: C_24  and  C_29
REMARK                            x       y       z     vdW  Elec       q    Type
REMARK                         _______ _______ _______ _____ _____    ______ ____
ROOT
ATOM      1  C   UNL     1      35.297 -19.863 -20.238  0.00  0.00    +0.048 C 
ATOM      2  C   UNL     1      34.019 -21.744 -18.621  0.00  0.00    +0.053 C 
ATOM      3  C   UNL     1      36.050 -20.711 -19.425  0.00  0.00    +0.015 C 
ATOM      4  C   UNL     1      33.906 -19.956 -20.243  0.00  0.00    +0.015 C 
ATOM      5  C   UNL     1      35.411 -21.651 -18.617  0.00  0.00    +0.006 C 
ATOM      6  C   UNL     1      33.267 -20.897 -19.434  0.00  0.00    +0.006 C 
ENDROOT
BRANCH   2   9
ATOM      7  O   UNL     1      33.300 -23.919 -18.122  0.00  0.00    -0.270 OA
ATOM      8  N   UNL     1      32.806 -22.265 -16.573  0.00  0.00    -0.293 N 
ATOM      9  C   ACE A   0      33.338 -22.746 -17.761  0.00  0.00    +0.246 C 
ATOM     10  H   UNL     1      32.886 -21.304 -16.372  0.00  0.00    +0.150 HD
BRANCH   8  11
ATOM     11  CA  UNL     1      32.138 -23.117 -15.622  0.00  0.00    +0.172 C 
BRANCH  11  13
ATOM     12  OXT UNL     1      34.401 -23.872 -15.132  0.00  0.00    -0.248 OA
ATOM     13  C   UNL     1      33.201 -23.911 -14.892  0.00  0.00    +0.332 C 
BRANCH  13  14
ATOM     14  O   UNL     1      32.674 -24.664 -13.890  0.00  0.00    -0.479 OA
ATOM     15  H   UNL     1      33.239 -25.115 -13.296  0.00  0.00    +0.295 HD
ENDBRANCH  13  14
ENDBRANCH  11  13
BRANCH  11  16
ATOM     16  CB  UNL     1      31.049 -23.984 -16.265  0.00  0.00    +0.043 C 
BRANCH  16  17
ATOM     17  CG  UNL     1      29.678 -23.953 -15.580  0.00  0.00    +0.112 C 
BRANCH  17  19
ATOM     18  OE2 UNL     1      28.484 -22.072 -16.569  0.00  0.00    -0.250 OA
ATOM     19  CD  UNL     1      28.600 -23.279 -16.401  0.00  0.00    +0.314 C 
BRANCH  19  20
ATOM     20  OE1 UNL     1      27.726 -24.183 -16.917  0.00  0.00    -0.480 OA
ATOM     21  HE1 UNL     1      27.529 -24.174 -17.833  0.00  0.00    +0.295 HD
ENDBRANCH  19  20
ENDBRANCH  17  19
ENDBRANCH  16  17
ENDBRANCH  11  16
ENDBRANCH   8  11
ENDBRANCH   2   9
BRANCH   1  22
ATOM     22  N   UNL     1      35.943 -18.913 -21.056  0.00  0.00    -0.302 N 
ATOM     23  C   UNL     1      37.168 -19.255 -21.751  0.00  0.00    +0.112 C 
BRANCH  22  24
ATOM     24  C   UNL     1      35.381 -17.587 -21.225  0.00  0.00    +0.118 C 
BRANCH  24  29
ATOM     25  O   UNL     1      34.510 -17.434 -24.815  0.00  0.00    -0.427 OA
ATOM     26  N   UNL     1      33.846 -15.195 -25.310  0.00  0.00    -0.294 NA
ATOM     27  N   UNL     1      33.925 -13.698 -23.391  0.00  0.00    -0.317 NA
ATOM     28  N   UNL     1      33.249 -12.941 -25.500  0.00  0.00    -0.283 N 
ATOM     29  C   UNL     1      34.970 -17.231 -22.620  0.00  0.00    +0.031 C 
ATOM     30  C   UNL     1      34.549 -15.968 -23.102  0.00  0.00    +0.180 C 
ATOM     31  C   UNL     1      34.276 -16.139 -24.456  0.00  0.00    +0.281 C 
ATOM     32  C   UNL     1      34.930 -18.085 -23.698  0.00  0.00    +0.176 C 
ATOM     33  C   UNL     1      34.357 -14.690 -22.580  0.00  0.00    +0.181 C 
ATOM     34  C   UNL     1      33.699 -14.008 -24.688  0.00  0.00    +0.200 C 
ATOM     35  H   UNL     1      33.065 -13.095 -26.455  0.00  0.00    +0.156 HD
ATOM     36  H   UNL     1      33.121 -12.047 -25.111  0.00  0.00    +0.156 HD
ATOM     37  N   UNL     1      34.606 -14.418 -21.223  0.00  0.00    -0.335 N 
ATOM     38  H   UNL     1      34.466 -13.510 -20.869  0.00  0.00    +0.144 HD
ATOM     39  H   UNL     1      34.922 -15.134 -20.626  0.00  0.00    +0.144 HD
ENDBRANCH  24  29
ENDBRANCH  22  24
ENDBRANCH   1  22
TORSDOF 11
ENDMDL
MODEL 8
REMARK VINA RESULT:      -9.9      1.507      2.183
REMARK  Name = 158376
REMARK  11 active torsions:
REMARK  status: ('A' for Active; 'I' for Inactive)
REMARK    1  A    between atoms: C_1  and  N_22
REMARK    2  A    between atoms: C_2  and  C_9
REMARK    3  A    between atoms: N_8  and  CA_11
REMARK    4  A    between atoms: CA_11  and  C_13
REMARK    5  A    between atoms: CA_11  and  CB_16
REMARK    6  A    between atoms: C_13  and  O_14
REMARK    7  A    between atoms: CB_16  and  CG_17
REMARK    8  A    between atoms: CG_17  and  CD_19
REMARK    9  A    between atoms: CD_19  and  OE1_20
REMARK   10  A    between atoms: N_22  and  C_24
REMARK   11  A    between atoms: C_24  and  C_29
REMARK                            x       y       z     vdW  Elec       q    Type
REMARK                         _______ _______ _______ _____ _____    ______ ____
ROOT
ATOM      1  C   UNL     1      35.518 -19.702 -20.639  0.00  0.00    +0.048 C 
ATOM      2  C   UNL     1      34.432 -21.682 -19.000  0.00  0.00    +0.053 C 
ATOM      3  C   UNL     1      34.137 -19.890 -20.595  0.00  0.00    +0.015 C 
ATOM      4  C   UNL     1      36.356 -20.503 -19.864  0.00  0.00    +0.015 C 
ATOM      5  C   UNL     1      33.594 -20.879 -19.776  0.00  0.00    +0.006 C 
ATOM      6  C   UNL     1      35.812 -21.493 -19.045  0.00  0.00    +0.006 C 
ENDROOT
BRANCH   2   9
ATOM      7  O   UNL     1      33.441 -23.775 -18.635  0.00  0.00    -0.270 OA
ATOM      8  N   UNL     1      33.845 -22.461 -16.767  0.00  0.00    -0.293 N 
ATOM      9  C   ACE A   0      33.853 -22.735 -18.128  0.00  0.00    +0.246 C 
ATOM     10  H   UNL     1      34.198 -21.596 -16.456  0.00  0.00    +0.150 HD
BRANCH   8  11
ATOM     11  CA  UNL     1      33.340 -23.393 -15.791  0.00  0.00    +0.172 C 
BRANCH  11  13
ATOM     12  OXT UNL     1      31.509 -22.753 -14.319  0.00  0.00    -0.248 OA
ATOM     13  C   UNL     1      31.924 -22.977 -15.449  0.00  0.00    +0.332 C 
BRANCH  13  14
ATOM     14  O   UNL     1      31.154 -22.838 -16.560  0.00  0.00    -0.479 OA
ATOM     15  H   UNL     1      31.002 -23.573 -17.119  0.00  0.00    +0.295 HD
ENDBRANCH  13  14
ENDBRANCH  11  13
BRANCH  11  16
ATOM     16  CB  UNL     1      34.258 -23.529 -14.570  0.00  0.00    +0.043 C 
BRANCH  16  17
ATOM     17  CG  UNL     1      35.684 -24.014 -14.858  0.00  0.00    +0.112 C 
BRANCH  17  19
ATOM     18  OE2 UNL     1      37.545 -22.893 -13.754  0.00  0.00    -0.250 OA
ATOM     19  CD  UNL     1      36.741 -22.946 -14.674  0.00  0.00    +0.314 C 
BRANCH  19  20
ATOM     20  OE1 UNL     1      36.673 -22.003 -15.650  0.00  0.00    -0.480 OA
ATOM     21  HE1 UNL     1      36.280 -21.171 -15.470  0.00  0.00    +0.295 HD
ENDBRANCH  19  20
ENDBRANCH  17  19
ENDBRANCH  16  17
ENDBRANCH  11  16
ENDBRANCH   8  11
ENDBRANCH   2   9
BRANCH   1  22
ATOM     22  N   UNL     1      36.068 -18.701 -21.466  0.00  0.00    -0.302 N 
ATOM     23  C   UNL     1      37.500 -18.482 -21.501  0.00  0.00    +0.112 C 
BRANCH  22  24
ATOM     24  C   UNL     1      35.209 -17.887 -22.304  0.00  0.00    +0.118 C 
BRANCH  24  29
ATOM     25  O   UNL     1      34.593 -14.819 -20.336  0.00  0.00    -0.427 OA
ATOM     26  N   UNL     1      33.978 -13.086 -21.859  0.00  0.00    -0.294 NA
ATOM     27  N   UNL     1      33.930 -13.795 -24.189  0.00  0.00    -0.317 NA
ATOM     28  N   UNL     1      33.410 -11.597 -23.572  0.00  0.00    -0.283 N 
ATOM     29  C   UNL     1      34.898 -16.519 -21.780  0.00  0.00    +0.031 C 
ATOM     30  C   UNL     1      34.518 -15.375 -22.521  0.00  0.00    +0.180 C 
ATOM     31  C   UNL     1      34.342 -14.352 -21.593  0.00  0.00    +0.281 C 
ATOM     32  C   UNL     1      34.927 -16.130 -20.461  0.00  0.00    +0.176 C 
ATOM     33  C   UNL     1      34.298 -15.054 -23.859  0.00  0.00    +0.181 C 
ATOM     34  C   UNL     1      33.796 -12.901 -23.183  0.00  0.00    +0.200 C 
ATOM     35  H   UNL     1      33.293 -10.896 -22.891  0.00  0.00    +0.156 HD
ATOM     36  H   UNL     1      33.259 -11.392 -24.523  0.00  0.00    +0.156 HD
ATOM     37  N   UNL     1      34.451 -16.019 -24.870  0.00  0.00    -0.335 N 
ATOM     38  H   UNL     1      34.291 -15.777 -25.810  0.00  0.00    +0.144 HD
ATOM     39  H   UNL     1      34.717 -16.938 -24.638  0.00  0.00    +0.144 HD
ENDBRANCH  24  29
ENDBRANCH  22  24
ENDBRANCH   1  22
TORSDOF 11
ENDMDL
MODEL 9
REMARK VINA RESULT:      -9.7      4.789      8.030
REMARK  Name = 158376
REMARK  11 active torsions:
REMARK  status: ('A' for Active; 'I' for Inactive)
REMARK    1  A    between atoms: C_1  and  N_22
REMARK    2  A    between atoms: C_2  and  C_9
REMARK    3  A    between atoms: N_8  and  CA_11
REMARK    4  A    between atoms: CA_11  and  C_13
REMARK    5  A    between atoms: CA_11  and  CB_16
REMARK    6  A    between atoms: C_13  and  O_14
REMARK    7  A    between atoms: CB_16  and  CG_17
REMARK    8  A    between atoms: CG_17  and  CD_19
REMARK    9  A    between atoms: CD_19  and  OE1_20
REMARK   10  A    between atoms: N_22  and  C_24
REMARK   11  A    between atoms: C_24  and  C_29
REMARK                            x       y       z     vdW  Elec       q    Type
REMARK                         _______ _______ _______ _____ _____    ______ ____
ROOT
ATOM      1  C   UNL     1      33.614 -12.995 -22.658  0.00  0.00    +0.048 C 
ATOM      2  C   UNL     1      34.615 -15.571 -22.274  0.00  0.00    +0.053 C 
ATOM      3  C   UNL     1      33.671 -13.888 -23.729  0.00  0.00    +0.015 C 
ATOM      4  C   UNL     1      34.056 -13.390 -21.396  0.00  0.00    +0.015 C 
ATOM      5  C   UNL     1      34.171 -15.176 -23.536  0.00  0.00    +0.006 C 
ATOM      6  C   UNL     1      34.558 -14.678 -21.205  0.00  0.00    +0.006 C 
ENDROOT
BRANCH   2   9
ATOM      7  O   UNL     1      35.449 -17.621 -23.048  0.00  0.00    -0.270 OA
ATOM      8  N   UNL     1      35.288 -17.349 -20.749  0.00  0.00    -0.293 N 
ATOM      9  C   ACE A   0      35.148 -16.943 -22.069  0.00  0.00    +0.246 C 
ATOM     10  H   UNL     1      35.017 -16.732 -20.032  0.00  0.00    +0.150 HD
BRANCH   8  11
ATOM     11  CA  UNL     1      35.814 -18.641 -20.388  0.00  0.00    +0.172 C 
BRANCH  11  13
ATOM     12  OXT UNL     1      37.931 -18.750 -21.587  0.00  0.00    -0.248 OA
ATOM     13  C   UNL     1      37.320 -18.582 -20.539  0.00  0.00    +0.332 C 
BRANCH  13  14
ATOM     14  O   UNL     1      37.936 -18.278 -19.366  0.00  0.00    -0.479 OA
ATOM     15  H   UNL     1      37.509 -17.724 -18.744  0.00  0.00    +0.295 HD
ENDBRANCH  13  14
ENDBRANCH  11  13
BRANCH  11  16
ATOM     16  CB  UNL     1      35.158 -19.787 -21.168  0.00  0.00    +0.043 C 
BRANCH  16  17
ATOM     17  CG  UNL     1      33.731 -20.154 -20.743  0.00  0.00    +0.112 C 
BRANCH  17  19
ATOM     18  OE2 UNL     1      34.603 -21.550 -18.946  0.00  0.00    -0.250 OA
ATOM     19  CD  UNL     1      33.664 -20.963 -19.466  0.00  0.00    +0.314 C 
BRANCH  19  20
ATOM     20  OE1 UNL     1      32.401 -21.002 -18.964  0.00  0.00    -0.480 OA
ATOM     21  HE1 UNL     1      31.830 -20.267 -19.076  0.00  0.00    +0.295 HD
ENDBRANCH  19  20
ENDBRANCH  17  19
ENDBRANCH  16  17
ENDBRANCH  11  16
ENDBRANCH   8  11
ENDBRANCH   2   9
BRANCH   1  22
ATOM     22  N   UNL     1      33.106 -11.694 -22.852  0.00  0.00    -0.302 N 
ATOM     23  C   UNL     1      33.846 -10.728 -23.640  0.00  0.00    +0.112 C 
BRANCH  22  24
ATOM     24  C   UNL     1      31.831 -11.310 -22.278  0.00  0.00    +0.118 C 
BRANCH  24  29
ATOM     25  O   UNL     1      31.972  -9.939 -18.849  0.00  0.00    -0.427 OA
ATOM     26  N   UNL     1      32.124  -7.562 -19.018  0.00  0.00    -0.294 NA
ATOM     27  N   UNL     1      32.143  -6.738 -21.310  0.00  0.00    -0.317 NA
ATOM     28  N   UNL     1      32.266  -5.274 -19.488  0.00  0.00    -0.283 N 
ATOM     29  C   UNL     1      31.904 -10.484 -21.032  0.00  0.00    +0.031 C 
ATOM     30  C   UNL     1      31.996  -9.075 -20.932  0.00  0.00    +0.180 C 
ATOM     31  C   UNL     1      32.036  -8.783 -19.571  0.00  0.00    +0.281 C 
ATOM     32  C   UNL     1      31.891 -10.960 -19.741  0.00  0.00    +0.176 C 
ATOM     33  C   UNL     1      32.054  -7.993 -21.807  0.00  0.00    +0.181 C 
ATOM     34  C   UNL     1      32.173  -6.602 -19.965  0.00  0.00    +0.200 C 
ATOM     35  H   UNL     1      32.292  -5.101 -18.518  0.00  0.00    +0.156 HD
ATOM     36  H   UNL     1      32.305  -4.525 -20.124  0.00  0.00    +0.156 HD
ATOM     37  N   UNL     1      32.019  -8.186 -23.200  0.00  0.00    -0.335 N 
ATOM     38  H   UNL     1      32.060  -7.411 -23.806  0.00  0.00    +0.144 HD
ATOM     39  H   UNL     1      31.953  -9.096 -23.570  0.00  0.00    +0.144 HD
ENDBRANCH  24  29
ENDBRANCH  22  24
ENDBRANCH   1  22
TORSDOF 11
ENDMDL
