MODEL 1
REMARK VINA RESULT:     -11.4      0.000      0.000
REMARK  Name = 25195365
REMARK  5 active torsions:
REMARK  status: ('A' for Active; 'I' for Inactive)
REMARK    1  A    between atoms: C_1  and  C_3
REMARK    2  A    between atoms: C_1  and  C_17
REMARK    3  A    between atoms: C_4  and  C_9
REMARK    4  A    between atoms: C_6  and  O_15
REMARK    5  A    between atoms: C_18  and  C_23
REMARK                            x       y       z     vdW  Elec       q    Type
REMARK                         _______ _______ _______ _____ _____    ______ ____
ROOT
ATOM      1  C   UNL     1      32.926 -23.080 -17.205  0.00  0.00    +0.086 C 
ATOM      2  C   UNL     1      31.529 -22.774 -16.632  0.00  0.00    +0.019 C 
ENDROOT
BRANCH   1   3
ATOM      3  C   UNL     1      33.351 -22.103 -18.247  0.00  0.00    -0.007 C 
ATOM      4  C   UNL     1      34.145 -20.274 -20.198  0.00  0.00    +0.034 C 
ATOM      5  C   UNL     1      34.704 -21.949 -18.550  0.00  0.00    +0.034 C 
ATOM      6  C   UNL     1      35.101 -21.034 -19.525  0.00  0.00    +0.138 C 
ATOM      7  C   UNL     1      32.395 -21.342 -18.920  0.00  0.00    -0.003 C 
ATOM      8  C   UNL     1      32.792 -20.428 -19.896  0.00  0.00    +0.003 C 
BRANCH   4   9
ATOM      9  C   UNL     1      34.535 -19.318 -21.213  0.00  0.00    +0.003 C 
ATOM     10  C   UNL     1      34.174 -19.528 -22.544  0.00  0.00    +0.000 C 
ATOM     11  C   UNL     1      35.272 -18.187 -20.860  0.00  0.00    +0.000 C 
ATOM     12  C   UNL     1      34.549 -18.607 -23.522  0.00  0.00    +0.000 C 
ATOM     13  C   UNL     1      35.648 -17.267 -21.839  0.00  0.00    +0.000 C 
ATOM     14  C   UNL     1      35.286 -17.477 -23.169  0.00  0.00    +0.000 C 
ENDBRANCH   4   9
BRANCH   6  15
ATOM     15  O   UNL     1      36.430 -20.904 -19.802  0.00  0.00    -0.471 OA
ATOM     16  C   UNL     1      37.270 -20.447 -18.744  0.00  0.00    +0.252 C 
ENDBRANCH   6  15
ENDBRANCH   1   3
BRANCH   1  17
ATOM     17  C   UNL     1      33.907 -23.180 -16.093  0.00  0.00    -0.087 C 
ATOM     18  C   UNL     1      34.701 -23.284 -15.197  0.00  0.00    -0.076 C 
BRANCH  18  23
ATOM     19  N   UNL     1      37.874 -23.062 -13.285  0.00  0.00    -0.336 NA
ATOM     20  N   UNL     1      36.208 -24.123 -11.904  0.00  0.00    -0.317 NA
ATOM     21  N   UNL     1      34.017 -24.477 -12.720  0.00  0.00    -0.334 N 
ATOM     22  N   UNL     1      38.387 -23.765 -11.106  0.00  0.00    -0.283 N 
ATOM     23  C   UNL     1      35.649 -23.413 -14.134  0.00  0.00    +0.179 C 
ATOM     24  C   UNL     1      36.947 -22.962 -14.260  0.00  0.00    +0.120 C 
ATOM     25  C   UNL     1      35.334 -23.990 -12.922  0.00  0.00    +0.186 C 
ATOM     26  C   UNL     1      37.418 -22.316 -15.525  0.00  0.00    +0.064 C 
ATOM     27  C   UNL     1      37.443 -23.644 -12.150  0.00  0.00    +0.196 C 
ATOM     28  H   UNL     1      33.773 -24.893 -11.861  0.00  0.00    +0.144 HD
ATOM     29  H   UNL     1      33.348 -24.400 -13.438  0.00  0.00    +0.144 HD
ATOM     30  H   UNL     1      39.304 -23.432 -11.231  0.00  0.00    +0.156 HD
ATOM     31  H   UNL     1      38.126 -24.183 -10.253  0.00  0.00    +0.156 HD
ENDBRANCH  18  23
ENDBRANCH   1  17
TORSDOF 5
ENDMDL
MODEL 2
REMARK VINA RESULT:     -11.2      0.559      1.614
REMARK  Name = 25195365
REMARK  5 active torsions:
REMARK  status: ('A' for Active; 'I' for Inactive)
REMARK    1  A    between atoms: C_1  and  C_3
REMARK    2  A    between atoms: C_1  and  C_17
REMARK    3  A    between atoms: C_4  and  C_9
REMARK    4  A    between atoms: C_6  and  O_15
REMARK    5  A    between atoms: C_18  and  C_23
REMARK                            x       y       z     vdW  Elec       q    Type
REMARK                         _______ _______ _______ _____ _____    ______ ____
ROOT
ATOM      1  C   UNL     1      32.986 -23.062 -17.242  0.00  0.00    +0.086 C 
ATOM      2  C   UNL     1      31.614 -22.738 -16.621  0.00  0.00    +0.019 C 
ENDROOT
BRANCH   1   3
ATOM      3  C   UNL     1      33.397 -22.076 -18.283  0.00  0.00    -0.007 C 
ATOM      4  C   UNL     1      34.163 -20.232 -20.231  0.00  0.00    +0.034 C 
ATOM      5  C   UNL     1      34.749 -21.881 -18.565  0.00  0.00    +0.034 C 
ATOM      6  C   UNL     1      35.133 -20.958 -19.539  0.00  0.00    +0.138 C 
ATOM      7  C   UNL     1      32.429 -21.349 -18.975  0.00  0.00    -0.003 C 
ATOM      8  C   UNL     1      32.811 -20.427 -19.949  0.00  0.00    +0.003 C 
BRANCH   4   9
ATOM      9  C   UNL     1      34.540 -19.270 -21.245  0.00  0.00    +0.003 C 
ATOM     10  C   UNL     1      34.185 -19.485 -22.577  0.00  0.00    +0.000 C 
ATOM     11  C   UNL     1      35.257 -18.127 -20.890  0.00  0.00    +0.000 C 
ATOM     12  C   UNL     1      34.546 -18.557 -23.553  0.00  0.00    +0.000 C 
ATOM     13  C   UNL     1      35.619 -17.200 -21.867  0.00  0.00    +0.000 C 
ATOM     14  C   UNL     1      35.264 -17.415 -23.198  0.00  0.00    +0.000 C 
ENDBRANCH   4   9
BRANCH   6  15
ATOM     15  O   UNL     1      36.461 -20.789 -19.795  0.00  0.00    -0.471 OA
ATOM     16  C   UNL     1      37.295 -20.450 -18.689  0.00  0.00    +0.252 C 
ENDBRANCH   6  15
ENDBRANCH   1   3
BRANCH   1  17
ATOM     17  C   UNL     1      34.000 -23.197 -16.164  0.00  0.00    -0.087 C 
ATOM     18  C   UNL     1      34.802 -23.306 -15.276  0.00  0.00    -0.076 C 
BRANCH  18  23
ATOM     19  N   UNL     1      36.234 -23.954 -11.914  0.00  0.00    -0.336 NA
ATOM     20  N   UNL     1      38.017 -23.327 -13.409  0.00  0.00    -0.317 NA
ATOM     21  N   UNL     1      37.565 -22.819 -15.675  0.00  0.00    -0.334 N 
ATOM     22  N   UNL     1      38.452 -23.834 -11.159  0.00  0.00    -0.283 N 
ATOM     23  C   UNL     1      35.753 -23.440 -14.216  0.00  0.00    +0.179 C 
ATOM     24  C   UNL     1      35.373 -23.815 -12.943  0.00  0.00    +0.120 C 
ATOM     25  C   UNL     1      37.101 -23.207 -14.392  0.00  0.00    +0.186 C 
ATOM     26  C   UNL     1      33.940 -24.096 -12.620  0.00  0.00    +0.064 C 
ATOM     27  C   UNL     1      37.522 -23.698 -12.213  0.00  0.00    +0.196 C 
ATOM     28  H   UNL     1      38.524 -22.648 -15.820  0.00  0.00    +0.144 HD
ATOM     29  H   UNL     1      36.928 -22.720 -16.419  0.00  0.00    +0.144 HD
ATOM     30  H   UNL     1      38.146 -24.103 -10.264  0.00  0.00    +0.156 HD
ATOM     31  H   UNL     1      39.408 -23.661 -11.322  0.00  0.00    +0.156 HD
ENDBRANCH  18  23
ENDBRANCH   1  17
TORSDOF 5
ENDMDL
MODEL 3
REMARK VINA RESULT:     -10.2      4.750      8.718
REMARK  Name = 25195365
REMARK  5 active torsions:
REMARK  status: ('A' for Active; 'I' for Inactive)
REMARK    1  A    between atoms: C_1  and  C_3
REMARK    2  A    between atoms: C_1  and  C_17
REMARK    3  A    between atoms: C_4  and  C_9
REMARK    4  A    between atoms: C_6  and  O_15
REMARK    5  A    between atoms: C_18  and  C_23
REMARK                            x       y       z     vdW  Elec       q    Type
REMARK                         _______ _______ _______ _____ _____    ______ ____
ROOT
ATOM      1  C   UNL     1      36.368 -21.862 -17.719  0.00  0.00    +0.086 C 
ATOM      2  C   UNL     1      37.302 -21.109 -16.753  0.00  0.00    +0.019 C 
ENDROOT
BRANCH   1   3
ATOM      3  C   UNL     1      35.123 -22.348 -17.059  0.00  0.00    -0.007 C 
ATOM      4  C   UNL     1      32.792 -23.257 -15.825  0.00  0.00    +0.034 C 
ATOM      5  C   UNL     1      35.148 -22.733 -15.719  0.00  0.00    +0.034 C 
ATOM      6  C   UNL     1      33.982 -23.188 -15.101  0.00  0.00    +0.138 C 
ATOM      7  C   UNL     1      33.932 -22.418 -17.782  0.00  0.00    -0.003 C 
ATOM      8  C   UNL     1      32.767 -22.872 -17.166  0.00  0.00    +0.003 C 
BRANCH   4   9
ATOM      9  C   UNL     1      31.572 -23.726 -15.205  0.00  0.00    +0.003 C 
ATOM     10  C   UNL     1      30.352 -23.126 -15.521  0.00  0.00    +0.000 C 
ATOM     11  C   UNL     1      31.614 -24.779 -14.290  0.00  0.00    +0.000 C 
ATOM     12  C   UNL     1      29.176 -23.579 -14.924  0.00  0.00    +0.000 C 
ATOM     13  C   UNL     1      30.437 -25.231 -13.693  0.00  0.00    +0.000 C 
ATOM     14  C   UNL     1      29.219 -24.631 -14.010  0.00  0.00    +0.000 C 
ENDBRANCH   4   9
BRANCH   6  15
ATOM     15  O   UNL     1      34.035 -23.556 -13.790  0.00  0.00    -0.471 OA
ATOM     16  C   UNL     1      35.306 -23.951 -13.279  0.00  0.00    +0.252 C 
ENDBRANCH   6  15
ENDBRANCH   1   3
BRANCH   1  17
ATOM     17  C   UNL     1      36.082 -21.007 -18.900  0.00  0.00    -0.087 C 
ATOM     18  C   UNL     1      35.830 -20.324 -19.856  0.00  0.00    -0.076 C 
BRANCH  18  23
ATOM     19  N   UNL     1      33.918 -18.710 -22.598  0.00  0.00    -0.336 NA
ATOM     20  N   UNL     1      36.203 -17.950 -22.693  0.00  0.00    -0.317 NA
ATOM     21  N   UNL     1      37.796 -18.724 -21.125  0.00  0.00    -0.334 N 
ATOM     22  N   UNL     1      34.613 -17.189 -24.243  0.00  0.00    -0.283 N 
ATOM     23  C   UNL     1      35.523 -19.510 -20.992  0.00  0.00    +0.179 C 
ATOM     24  C   UNL     1      34.253 -19.462 -21.529  0.00  0.00    +0.120 C 
ATOM     25  C   UNL     1      36.467 -18.726 -21.622  0.00  0.00    +0.186 C 
ATOM     26  C   UNL     1      33.138 -20.266 -20.940  0.00  0.00    +0.064 C 
ATOM     27  C   UNL     1      34.927 -17.989 -23.122  0.00  0.00    +0.196 C 
ATOM     28  H   UNL     1      38.483 -18.171 -21.561  0.00  0.00    +0.144 HD
ATOM     29  H   UNL     1      38.029 -19.277 -20.345  0.00  0.00    +0.144 HD
ATOM     30  H   UNL     1      33.697 -17.179 -24.599  0.00  0.00    +0.156 HD
ATOM     31  H   UNL     1      35.313 -16.641 -24.667  0.00  0.00    +0.156 HD
ENDBRANCH  18  23
ENDBRANCH   1  17
TORSDOF 5
ENDMDL
MODEL 4
REMARK VINA RESULT:      -9.8     10.513     13.802
REMARK  Name = 25195365
REMARK  5 active torsions:
REMARK  status: ('A' for Active; 'I' for Inactive)
REMARK    1  A    between atoms: C_1  and  C_3
REMARK    2  A    between atoms: C_1  and  C_17
REMARK    3  A    between atoms: C_4  and  C_9
REMARK    4  A    between atoms: C_6  and  O_15
REMARK    5  A    between atoms: C_18  and  C_23
REMARK                            x       y       z     vdW  Elec       q    Type
REMARK                         _______ _______ _______ _____ _____    ______ ____
ROOT
ATOM      1  C   UNL     1      31.514 -10.467 -21.410  0.00  0.00    +0.086 C 
ATOM      2  C   UNL     1      31.637 -10.254 -19.889  0.00  0.00    +0.019 C 
ENDROOT
BRANCH   1   3
ATOM      3  C   UNL     1      31.966  -9.285 -22.198  0.00  0.00    -0.007 C 
ATOM      4  C   UNL     1      32.812  -7.073 -23.673  0.00  0.00    +0.034 C 
ATOM      5  C   UNL     1      31.280  -8.074 -22.096  0.00  0.00    +0.034 C 
ATOM      6  C   UNL     1      31.703  -6.968 -22.834  0.00  0.00    +0.138 C 
ATOM      7  C   UNL     1      33.074  -9.389 -23.038  0.00  0.00    -0.003 C 
ATOM      8  C   UNL     1      33.498  -8.283 -23.775  0.00  0.00    +0.003 C 
BRANCH   4   9
ATOM      9  C   UNL     1      33.267  -5.939 -24.447  0.00  0.00    +0.003 C 
ATOM     10  C   UNL     1      34.633  -5.690 -24.584  0.00  0.00    +0.000 C 
ATOM     11  C   UNL     1      32.340  -5.094 -25.058  0.00  0.00    +0.000 C 
ATOM     12  C   UNL     1      35.071  -4.597 -25.331  0.00  0.00    +0.000 C 
ATOM     13  C   UNL     1      32.779  -4.000 -25.805  0.00  0.00    +0.000 C 
ATOM     14  C   UNL     1      34.144  -3.752 -25.941  0.00  0.00    +0.000 C 
ENDBRANCH   4   9
BRANCH   6  15
ATOM     15  O   UNL     1      31.015  -5.797 -22.714  0.00  0.00    -0.471 OA
ATOM     16  C   UNL     1      30.982  -5.195 -21.421  0.00  0.00    +0.252 C 
ENDBRANCH   6  15
ENDBRANCH   1   3
BRANCH   1  17
ATOM     17  C   UNL     1      32.233 -11.709 -21.796  0.00  0.00    -0.087 C 
ATOM     18  C   UNL     1      32.832 -12.706 -22.096  0.00  0.00    -0.076 C 
BRANCH  18  23
ATOM     19  N   UNL     1      34.915 -15.763 -21.788  0.00  0.00    -0.336 NA
ATOM     20  N   UNL     1      34.277 -15.487 -24.096  0.00  0.00    -0.317 NA
ATOM     21  N   UNL     1      32.935 -13.658 -24.763  0.00  0.00    -0.334 N 
ATOM     22  N   UNL     1      35.608 -17.299 -23.420  0.00  0.00    -0.283 N 
ATOM     23  C   UNL     1      33.549 -13.894 -22.446  0.00  0.00    +0.179 C 
ATOM     24  C   UNL     1      34.227 -14.638 -21.503  0.00  0.00    +0.120 C 
ATOM     25  C   UNL     1      33.609 -14.371 -23.739  0.00  0.00    +0.186 C 
ATOM     26  C   UNL     1      34.241 -14.228 -20.065  0.00  0.00    +0.064 C 
ATOM     27  C   UNL     1      34.898 -16.125 -23.085  0.00  0.00    +0.196 C 
ATOM     28  H   UNL     1      32.967 -13.983 -25.692  0.00  0.00    +0.144 HD
ATOM     29  H   UNL     1      32.436 -12.838 -24.545  0.00  0.00    +0.144 HD
ATOM     30  H   UNL     1      36.080 -17.805 -22.721  0.00  0.00    +0.156 HD
ATOM     31  H   UNL     1      35.629 -17.611 -24.354  0.00  0.00    +0.156 HD
ENDBRANCH  18  23
ENDBRANCH   1  17
TORSDOF 5
ENDMDL
MODEL 5
REMARK VINA RESULT:      -9.7      3.638      4.917
REMARK  Name = 25195365
REMARK  5 active torsions:
REMARK  status: ('A' for Active; 'I' for Inactive)
REMARK    1  A    between atoms: C_1  and  C_3
REMARK    2  A    between atoms: C_1  and  C_17
REMARK    3  A    between atoms: C_4  and  C_9
REMARK    4  A    between atoms: C_6  and  O_15
REMARK    5  A    between atoms: C_18  and  C_23
REMARK                            x       y       z     vdW  Elec       q    Type
REMARK                         _______ _______ _______ _____ _____    ______ ____
ROOT
ATOM      1  C   UNL     1      35.600 -24.318 -14.123  0.00  0.00    +0.086 C 
ATOM      2  C   UNL     1      35.927 -23.426 -12.910  0.00  0.00    +0.019 C 
ENDROOT
BRANCH   1   3
ATOM      3  C   UNL     1      35.282 -23.532 -15.350  0.00  0.00    -0.007 C 
ATOM      4  C   UNL     1      34.689 -22.061 -17.645  0.00  0.00    +0.034 C 
ATOM      5  C   UNL     1      33.988 -23.542 -15.870  0.00  0.00    +0.034 C 
ATOM      6  C   UNL     1      33.691 -22.807 -17.018  0.00  0.00    +0.138 C 
ATOM      7  C   UNL     1      36.280 -22.787 -15.979  0.00  0.00    -0.003 C 
ATOM      8  C   UNL     1      35.984 -22.051 -17.125  0.00  0.00    +0.003 C 
BRANCH   4   9
ATOM      9  C   UNL     1      34.403 -21.292 -18.837  0.00  0.00    +0.003 C 
ATOM     10  C   UNL     1      35.450 -20.804 -19.620  0.00  0.00    +0.000 C 
ATOM     11  C   UNL     1      33.081 -21.039 -19.204  0.00  0.00    +0.000 C 
ATOM     12  C   UNL     1      35.174 -20.064 -20.769  0.00  0.00    +0.000 C 
ATOM     13  C   UNL     1      32.806 -20.298 -20.353  0.00  0.00    +0.000 C 
ATOM     14  C   UNL     1      33.853 -19.811 -21.135  0.00  0.00    +0.000 C 
ENDBRANCH   4   9
BRANCH   6  15
ATOM     15  O   UNL     1      32.417 -22.833 -17.503  0.00  0.00    -0.471 OA
ATOM     16  C   UNL     1      31.360 -22.822 -16.546  0.00  0.00    +0.252 C 
ENDBRANCH   6  15
ENDBRANCH   1   3
BRANCH   1  17
ATOM     17  C   UNL     1      36.709 -25.282 -14.344  0.00  0.00    -0.087 C 
ATOM     18  C   UNL     1      37.604 -26.058 -14.545  0.00  0.00    -0.076 C 
BRANCH  18  23
ATOM     19  N   UNL     1      41.000 -27.556 -14.583  0.00  0.00    -0.336 NA
ATOM     20  N   UNL     1      39.475 -29.059 -15.690  0.00  0.00    -0.317 NA
ATOM     21  N   UNL     1      37.185 -28.510 -15.903  0.00  0.00    -0.334 N 
ATOM     22  N   UNL     1      41.751 -29.593 -15.473  0.00  0.00    -0.283 N 
ATOM     23  C   UNL     1      38.672 -26.978 -14.789  0.00  0.00    +0.179 C 
ATOM     24  C   UNL     1      39.962 -26.718 -14.375  0.00  0.00    +0.120 C 
ATOM     25  C   UNL     1      38.486 -28.175 -15.448  0.00  0.00    +0.186 C 
ATOM     26  C   UNL     1      40.298 -25.454 -13.650  0.00  0.00    +0.064 C 
ATOM     27  C   UNL     1      40.689 -28.691 -15.237  0.00  0.00    +0.196 C 
ATOM     28  H   UNL     1      37.032 -29.360 -16.375  0.00  0.00    +0.144 HD
ATOM     29  H   UNL     1      36.435 -27.891 -15.746  0.00  0.00    +0.144 HD
ATOM     30  H   UNL     1      42.659 -29.376 -15.163  0.00  0.00    +0.156 HD
ATOM     31  H   UNL     1      41.581 -30.440 -15.946  0.00  0.00    +0.156 HD
ENDBRANCH  18  23
ENDBRANCH   1  17
TORSDOF 5
ENDMDL
MODEL 6
REMARK VINA RESULT:      -9.6      8.281     12.214
REMARK  Name = 25195365
REMARK  5 active torsions:
REMARK  status: ('A' for Active; 'I' for Inactive)
REMARK    1  A    between atoms: C_1  and  C_3
REMARK    2  A    between atoms: C_1  and  C_17
REMARK    3  A    between atoms: C_4  and  C_9
REMARK    4  A    between atoms: C_6  and  O_15
REMARK    5  A    between atoms: C_18  and  C_23
REMARK                            x       y       z     vdW  Elec       q    Type
REMARK                         _______ _______ _______ _____ _____    ______ ____
ROOT
ATOM      1  C   UNL     1      33.266 -13.360 -24.844  0.00  0.00    +0.086 C 
ATOM      2  C   UNL     1      34.062 -13.071 -26.132  0.00  0.00    +0.019 C 
ENDROOT
BRANCH   1   3
ATOM      3  C   UNL     1      33.824 -14.500 -24.063  0.00  0.00    -0.007 C 
ATOM      4  C   UNL     1      34.870 -16.633 -22.599  0.00  0.00    +0.034 C 
ATOM      5  C   UNL     1      33.894 -15.771 -24.634  0.00  0.00    +0.034 C 
ATOM      6  C   UNL     1      34.416 -16.838 -23.903  0.00  0.00    +0.138 C 
ATOM      7  C   UNL     1      34.278 -14.297 -22.759  0.00  0.00    -0.003 C 
ATOM      8  C   UNL     1      34.800 -15.362 -22.028  0.00  0.00    +0.003 C 
BRANCH   4   9
ATOM      9  C   UNL     1      35.414 -17.726 -21.823  0.00  0.00    +0.003 C 
ATOM     10  C   UNL     1      36.792 -17.822 -21.624  0.00  0.00    +0.000 C 
ATOM     11  C   UNL     1      34.562 -18.683 -21.272  0.00  0.00    +0.000 C 
ATOM     12  C   UNL     1      37.317 -18.875 -20.875  0.00  0.00    +0.000 C 
ATOM     13  C   UNL     1      35.088 -19.736 -20.523  0.00  0.00    +0.000 C 
ATOM     14  C   UNL     1      36.465 -19.831 -20.325  0.00  0.00    +0.000 C 
ENDBRANCH   4   9
BRANCH   6  15
ATOM     15  O   UNL     1      34.473 -18.068 -24.486  0.00  0.00    -0.471 OA
ATOM     16  C   UNL     1      33.240 -18.767 -24.645  0.00  0.00    +0.252 C 
ENDBRANCH   6  15
ENDBRANCH   1   3
BRANCH   1  17
ATOM     17  C   UNL     1      33.166 -12.118 -24.034  0.00  0.00    -0.087 C 
ATOM     18  C   UNL     1      33.063 -11.110 -23.388  0.00  0.00    -0.076 C 
BRANCH  18  23
ATOM     19  N   UNL     1      33.657  -7.665 -22.142  0.00  0.00    -0.336 NA
ATOM     20  N   UNL     1      31.862  -8.651 -20.872  0.00  0.00    -0.317 NA
ATOM     21  N   UNL     1      31.137 -10.857 -21.324  0.00  0.00    -0.334 N 
ATOM     22  N   UNL     1      32.589  -6.463 -20.433  0.00  0.00    -0.283 N 
ATOM     23  C   UNL     1      32.935  -9.911 -22.619  0.00  0.00    +0.179 C 
ATOM     24  C   UNL     1      33.742  -8.815 -22.842  0.00  0.00    +0.120 C 
ATOM     25  C   UNL     1      32.003  -9.770 -21.611  0.00  0.00    +0.186 C 
ATOM     26  C   UNL     1      34.793  -8.838 -23.906  0.00  0.00    +0.064 C 
ATOM     27  C   UNL     1      32.708  -7.652 -21.186  0.00  0.00    +0.196 C 
ATOM     28  H   UNL     1      30.467 -10.775 -20.609  0.00  0.00    +0.144 HD
ATOM     29  H   UNL     1      31.209 -11.691 -21.841  0.00  0.00    +0.144 HD
ATOM     30  H   UNL     1      33.182  -5.701 -20.620  0.00  0.00    +0.156 HD
ATOM     31  H   UNL     1      31.912  -6.398 -19.721  0.00  0.00    +0.156 HD
ENDBRANCH  18  23
ENDBRANCH   1  17
TORSDOF 5
ENDMDL
MODEL 7
REMARK VINA RESULT:      -9.6     10.116     13.403
REMARK  Name = 25195365
REMARK  5 active torsions:
REMARK  status: ('A' for Active; 'I' for Inactive)
REMARK    1  A    between atoms: C_1  and  C_3
REMARK    2  A    between atoms: C_1  and  C_17
REMARK    3  A    between atoms: C_4  and  C_9
REMARK    4  A    between atoms: C_6  and  O_15
REMARK    5  A    between atoms: C_18  and  C_23
REMARK                            x       y       z     vdW  Elec       q    Type
REMARK                         _______ _______ _______ _____ _____    ______ ____
ROOT
ATOM      1  C   UNL     1      31.501 -10.569 -21.399  0.00  0.00    +0.086 C 
ATOM      2  C   UNL     1      31.600 -10.358 -19.876  0.00  0.00    +0.019 C 
ENDROOT
BRANCH   1   3
ATOM      3  C   UNL     1      31.950  -9.379 -22.177  0.00  0.00    -0.007 C 
ATOM      4  C   UNL     1      32.788  -7.153 -23.635  0.00  0.00    +0.034 C 
ATOM      5  C   UNL     1      33.144  -9.426 -22.897  0.00  0.00    +0.034 C 
ATOM      6  C   UNL     1      33.564  -8.312 -23.625  0.00  0.00    +0.138 C 
ATOM      7  C   UNL     1      31.175  -8.219 -22.187  0.00  0.00    -0.003 C 
ATOM      8  C   UNL     1      31.594  -7.106 -22.915  0.00  0.00    +0.003 C 
BRANCH   4   9
ATOM      9  C   UNL     1      33.205  -5.987 -24.383  0.00  0.00    +0.003 C 
ATOM     10  C   UNL     1      32.249  -5.131 -24.931  0.00  0.00    +0.000 C 
ATOM     11  C   UNL     1      34.563  -5.717 -24.556  0.00  0.00    +0.000 C 
ATOM     12  C   UNL     1      32.651  -4.007 -25.652  0.00  0.00    +0.000 C 
ATOM     13  C   UNL     1      34.965  -4.592 -25.277  0.00  0.00    +0.000 C 
ATOM     14  C   UNL     1      34.009  -3.738 -25.825  0.00  0.00    +0.000 C 
ENDBRANCH   4   9
BRANCH   6  15
ATOM     15  O   UNL     1      34.735  -8.386 -24.320  0.00  0.00    -0.471 OA
ATOM     16  C   UNL     1      35.168  -9.683 -24.723  0.00  0.00    +0.252 C 
ENDBRANCH   6  15
ENDBRANCH   1   3
BRANCH   1  17
ATOM     17  C   UNL     1      32.240 -11.801 -21.777  0.00  0.00    -0.087 C 
ATOM     18  C   UNL     1      32.849 -12.796 -22.064  0.00  0.00    -0.076 C 
BRANCH  18  23
ATOM     19  N   UNL     1      34.953 -15.833 -21.715  0.00  0.00    -0.336 NA
ATOM     20  N   UNL     1      34.320 -15.589 -24.028  0.00  0.00    -0.317 NA
ATOM     21  N   UNL     1      32.967 -13.778 -24.720  0.00  0.00    -0.334 N 
ATOM     22  N   UNL     1      35.662 -17.383 -23.328  0.00  0.00    -0.283 N 
ATOM     23  C   UNL     1      33.575 -13.982 -22.399  0.00  0.00    +0.179 C 
ATOM     24  C   UNL     1      34.256 -14.710 -21.445  0.00  0.00    +0.120 C 
ATOM     25  C   UNL     1      33.643 -14.474 -23.686  0.00  0.00    +0.186 C 
ATOM     26  C   UNL     1      34.263 -14.284 -20.012  0.00  0.00    +0.064 C 
ATOM     27  C   UNL     1      34.943 -16.211 -23.008  0.00  0.00    +0.196 C 
ATOM     28  H   UNL     1      33.004 -14.113 -25.645  0.00  0.00    +0.144 HD
ATOM     29  H   UNL     1      32.461 -12.959 -24.513  0.00  0.00    +0.144 HD
ATOM     30  H   UNL     1      36.136 -17.878 -22.622  0.00  0.00    +0.156 HD
ATOM     31  H   UNL     1      35.688 -17.706 -24.258  0.00  0.00    +0.156 HD
ENDBRANCH  18  23
ENDBRANCH   1  17
TORSDOF 5
ENDMDL
MODEL 8
REMARK VINA RESULT:      -9.6     10.225     13.594
REMARK  Name = 25195365
REMARK  5 active torsions:
REMARK  status: ('A' for Active; 'I' for Inactive)
REMARK    1  A    between atoms: C_1  and  C_3
REMARK    2  A    between atoms: C_1  and  C_17
REMARK    3  A    between atoms: C_4  and  C_9
REMARK    4  A    between atoms: C_6  and  O_15
REMARK    5  A    between atoms: C_18  and  C_23
REMARK                            x       y       z     vdW  Elec       q    Type
REMARK                         _______ _______ _______ _____ _____    ______ ____
ROOT
ATOM      1  C   UNL     1      31.537 -10.531 -21.114  0.00  0.00    +0.086 C 
ATOM      2  C   UNL     1      31.640 -10.296 -19.595  0.00  0.00    +0.019 C 
ENDROOT
BRANCH   1   3
ATOM      3  C   UNL     1      31.977  -9.352 -21.913  0.00  0.00    -0.007 C 
ATOM      4  C   UNL     1      32.800  -7.147 -23.410  0.00  0.00    +0.034 C 
ATOM      5  C   UNL     1      31.819  -8.064 -21.402  0.00  0.00    +0.034 C 
ATOM      6  C   UNL     1      32.230  -6.960 -22.150  0.00  0.00    +0.138 C 
ATOM      7  C   UNL     1      32.546  -9.537 -23.173  0.00  0.00    -0.003 C 
ATOM      8  C   UNL     1      32.958  -8.435 -23.921  0.00  0.00    +0.003 C 
BRANCH   4   9
ATOM      9  C   UNL     1      33.233  -6.016 -24.203  0.00  0.00    +0.003 C 
ATOM     10  C   UNL     1      34.593  -5.806 -24.435  0.00  0.00    +0.000 C 
ATOM     11  C   UNL     1      32.291  -5.136 -24.736  0.00  0.00    +0.000 C 
ATOM     12  C   UNL     1      35.010  -4.718 -25.200  0.00  0.00    +0.000 C 
ATOM     13  C   UNL     1      32.709  -4.047 -25.501  0.00  0.00    +0.000 C 
ATOM     14  C   UNL     1      34.068  -3.838 -25.733  0.00  0.00    +0.000 C 
ENDBRANCH   4   9
BRANCH   6  15
ATOM     15  O   UNL     1      32.065  -5.713 -21.626  0.00  0.00    -0.471 OA
ATOM     16  C   UNL     1      30.729  -5.295 -21.358  0.00  0.00    +0.252 C 
ENDBRANCH   6  15
ENDBRANCH   1   3
BRANCH   1  17
ATOM     17  C   UNL     1      32.281 -11.766 -21.476  0.00  0.00    -0.087 C 
ATOM     18  C   UNL     1      32.890 -12.753 -21.787  0.00  0.00    -0.076 C 
BRANCH  18  23
ATOM     19  N   UNL     1      34.451 -15.392 -23.880  0.00  0.00    -0.336 NA
ATOM     20  N   UNL     1      34.913 -15.865 -21.562  0.00  0.00    -0.317 NA
ATOM     21  N   UNL     1      34.106 -14.436 -19.858  0.00  0.00    -0.334 N 
ATOM     22  N   UNL     1      35.708 -17.274 -23.262  0.00  0.00    -0.283 N 
ATOM     23  C   UNL     1      33.621 -13.925 -22.161  0.00  0.00    +0.179 C 
ATOM     24  C   UNL     1      33.771 -14.296 -23.481  0.00  0.00    +0.120 C 
ATOM     25  C   UNL     1      34.219 -14.755 -21.236  0.00  0.00    +0.186 C 
ATOM     26  C   UNL     1      33.171 -13.482 -24.582  0.00  0.00    +0.064 C 
ATOM     27  C   UNL     1      34.988 -16.120 -22.882  0.00  0.00    +0.196 C 
ATOM     28  H   UNL     1      34.526 -15.017 -19.183  0.00  0.00    +0.144 HD
ATOM     29  H   UNL     1      33.607 -13.635 -19.578  0.00  0.00    +0.144 HD
ATOM     30  H   UNL     1      35.795 -17.509 -24.213  0.00  0.00    +0.156 HD
ATOM     31  H   UNL     1      36.123 -17.844 -22.574  0.00  0.00    +0.156 HD
ENDBRANCH  18  23
ENDBRANCH   1  17
TORSDOF 5
ENDMDL
MODEL 9
REMARK VINA RESULT:      -9.4      8.521     12.097
REMARK  Name = 25195365
REMARK  5 active torsions:
REMARK  status: ('A' for Active; 'I' for Inactive)
REMARK    1  A    between atoms: C_1  and  C_3
REMARK    2  A    between atoms: C_1  and  C_17
REMARK    3  A    between atoms: C_4  and  C_9
REMARK    4  A    between atoms: C_6  and  O_15
REMARK    5  A    between atoms: C_18  and  C_23
REMARK                            x       y       z     vdW  Elec       q    Type
REMARK                         _______ _______ _______ _____ _____    ______ ____
ROOT
ATOM      1  C   UNL     1      34.080 -12.090 -24.745  0.00  0.00    +0.086 C 
ATOM      2  C   UNL     1      33.069 -12.419 -25.860  0.00  0.00    +0.019 C 
ENDROOT
BRANCH   1   3
ATOM      3  C   UNL     1      33.666 -10.922 -23.916  0.00  0.00    -0.007 C 
ATOM      4  C   UNL     1      32.894  -8.735 -22.365  0.00  0.00    +0.034 C 
ATOM      5  C   UNL     1      32.659 -11.065 -22.961  0.00  0.00    +0.034 C 
ATOM      6  C   UNL     1      32.273  -9.971 -22.185  0.00  0.00    +0.138 C 
ATOM      7  C   UNL     1      34.286  -9.685 -24.095  0.00  0.00    -0.003 C 
ATOM      8  C   UNL     1      33.900  -8.592 -23.320  0.00  0.00    +0.003 C 
BRANCH   4   9
ATOM      9  C   UNL     1      32.507  -7.588 -21.573  0.00  0.00    +0.003 C 
ATOM     10  C   UNL     1      31.575  -6.677 -22.071  0.00  0.00    +0.000 C 
ATOM     11  C   UNL     1      33.066  -7.392 -20.309  0.00  0.00    +0.000 C 
ATOM     12  C   UNL     1      31.202  -5.572 -21.307  0.00  0.00    +0.000 C 
ATOM     13  C   UNL     1      32.693  -6.286 -19.545  0.00  0.00    +0.000 C 
ATOM     14  C   UNL     1      31.761  -5.377 -20.045  0.00  0.00    +0.000 C 
ENDBRANCH   4   9
BRANCH   6  15
ATOM     15  O   UNL     1      31.287 -10.139 -21.258  0.00  0.00    -0.471 OA
ATOM     16  C   UNL     1      31.569 -11.010 -20.165  0.00  0.00    +0.252 C 
ENDBRANCH   6  15
ENDBRANCH   1   3
BRANCH   1  17
ATOM     17  C   UNL     1      34.326 -13.304 -23.924  0.00  0.00    -0.087 C 
ATOM     18  C   UNL     1      34.544 -14.290 -23.272  0.00  0.00    -0.076 C 
BRANCH  18  23
ATOM     19  N   UNL     1      34.944 -16.543 -20.351  0.00  0.00    -0.336 NA
ATOM     20  N   UNL     1      35.444 -17.779 -22.359  0.00  0.00    -0.317 NA
ATOM     21  N   UNL     1      35.319 -16.735 -24.477  0.00  0.00    -0.334 N 
ATOM     22  N   UNL     1      35.565 -18.804 -20.250  0.00  0.00    -0.283 N 
ATOM     23  C   UNL     1      34.810 -15.462 -22.497  0.00  0.00    +0.179 C 
ATOM     24  C   UNL     1      34.703 -15.463 -21.121  0.00  0.00    +0.120 C 
ATOM     25  C   UNL     1      35.188 -16.660 -23.067  0.00  0.00    +0.186 C 
ATOM     26  C   UNL     1      34.302 -14.227 -20.381  0.00  0.00    +0.064 C 
ATOM     27  C   UNL     1      35.305 -17.652 -21.025  0.00  0.00    +0.196 C 
ATOM     28  H   UNL     1      35.588 -17.581 -24.902  0.00  0.00    +0.144 HD
ATOM     29  H   UNL     1      35.141 -15.940 -25.030  0.00  0.00    +0.144 HD
ATOM     30  H   UNL     1      35.478 -18.768 -19.271  0.00  0.00    +0.156 HD
ATOM     31  H   UNL     1      35.832 -19.643 -20.691  0.00  0.00    +0.156 HD
ENDBRANCH  18  23
ENDBRANCH   1  17
TORSDOF 5
ENDMDL
