MODEL 1
REMARK VINA RESULT:     -11.1      0.000      0.000
REMARK  Name = 447734
REMARK  5 active torsions:
REMARK  status: ('A' for Active; 'I' for Inactive)
REMARK    1  A    between atoms: C_3  and  C_19
REMARK    2  A    between atoms: C_9  and  C_13
REMARK    3  A    between atoms: N_18  and  C_24
REMARK    4  A    between atoms: C_21  and  O_27
REMARK    5  A    between atoms: O_27  and  C_28
REMARK                            x       y       z     vdW  Elec       q    Type
REMARK                         _______ _______ _______ _____ _____    ______ ____
ROOT
ATOM      1  C   UNL     1      35.386 -20.550 -19.694  0.00  0.00    +0.000 C 
ATOM      2  C   UNL     1      34.120 -20.267 -20.257  0.00  0.00    +0.000 C 
ATOM      3  C   UNL     1      34.325 -22.030 -18.082  0.00  0.00    +0.054 C 
ATOM      4  C   UNL     1      35.472 -21.434 -18.606  0.00  0.00    +0.005 C 
ATOM      5  C   UNL     1      32.975 -20.875 -19.717  0.00  0.00    +0.000 C 
ATOM      6  C   UNL     1      33.079 -21.751 -18.636  0.00  0.00    +0.005 C 
ATOM      7  C   UNL     1      34.034 -19.382 -21.346  0.00  0.00    +0.003 C 
ATOM      8  C   UNL     1      36.531 -19.941 -20.235  0.00  0.00    +0.000 C 
ATOM      9  C   UNL     1      35.181 -18.786 -21.871  0.00  0.00    +0.031 C 
ATOM     10  C   UNL     1      36.427 -19.066 -21.317  0.00  0.00    +0.003 C 
ENDROOT
BRANCH   9  13
ATOM     11  N   UNL     1      35.713 -16.634 -22.988  0.00  0.00    -0.343 N 
ATOM     12  N   UNL     1      34.360 -18.212 -24.055  0.00  0.00    -0.285 NA
ATOM     13  C   UNL     1      35.076 -17.873 -22.998  0.00  0.00    +0.117 C 
ATOM     14  H   UNL     1      35.628 -16.031 -23.762  0.00  0.00    +0.144 HD
ATOM     15  H   UNL     1      36.248 -16.361 -22.207  0.00  0.00    +0.144 HD
ATOM     16  H   UNL     1      34.287 -17.595 -24.819  0.00  0.00    +0.188 HD
ENDBRANCH   9  13
BRANCH   3  19
ATOM     17  O   UNL     1      33.628 -23.887 -16.865  0.00  0.00    -0.270 OA
ATOM     18  N   UNL     1      35.473 -22.685 -16.054  0.00  0.00    -0.280 N 
ATOM     19  C   UNL     1      34.430 -22.943 -16.955  0.00  0.00    +0.249 C 
ATOM     20  H   UNL     1      36.028 -21.899 -16.256  0.00  0.00    +0.155 HD
BRANCH  18  24
ATOM     21  C   UNL     1      36.723 -25.391 -13.877  0.00  0.00    +0.140 C 
ATOM     22  C   UNL     1      36.372 -24.678 -15.022  0.00  0.00    +0.052 C 
ATOM     23  C   UNL     1      36.531 -24.825 -12.617  0.00  0.00    +0.037 C 
ATOM     24  C   UNL     1      35.832 -23.409 -14.890  0.00  0.00    +0.054 C 
ATOM     25  C   UNL     1      35.986 -23.546 -12.502  0.00  0.00    +0.004 C 
ATOM     26  C   UNL     1      35.634 -22.833 -13.647  0.00  0.00    +0.015 C 
BRANCH  21  27
ATOM     27  O   UNL     1      37.254 -26.639 -13.988  0.00  0.00    -0.479 OA
BRANCH  27  28
ATOM     28  C   UNL     1      38.399 -26.928 -13.194  0.00  0.00    +0.166 C 
ATOM     29  C   UNL     1      39.526 -25.977 -13.568  0.00  0.00    +0.044 C 
ATOM     30  C   UNL     1      38.965 -28.291 -13.558  0.00  0.00    +0.044 C 
ATOM     31  C   UNL     1      40.116 -26.567 -14.849  0.00  0.00    +0.004 C 
ATOM     32  C   UNL     1      39.729 -28.046 -14.857  0.00  0.00    +0.004 C 
ENDBRANCH  27  28
ENDBRANCH  21  27
ENDBRANCH  18  24
ENDBRANCH   3  19
TORSDOF 5
ENDMDL
MODEL 2
REMARK VINA RESULT:     -10.9      0.972      1.407
REMARK  Name = 447734
REMARK  5 active torsions:
REMARK  status: ('A' for Active; 'I' for Inactive)
REMARK    1  A    between atoms: C_3  and  C_19
REMARK    2  A    between atoms: C_9  and  C_13
REMARK    3  A    between atoms: N_18  and  C_24
REMARK    4  A    between atoms: C_21  and  O_27
REMARK    5  A    between atoms: O_27  and  C_28
REMARK                            x       y       z     vdW  Elec       q    Type
REMARK                         _______ _______ _______ _____ _____    ______ ____
ROOT
ATOM      1  C   UNL     1      35.328 -20.326 -19.977  0.00  0.00    +0.000 C 
ATOM      2  C   UNL     1      34.089 -19.955 -20.551  0.00  0.00    +0.000 C 
ATOM      3  C   UNL     1      34.166 -21.864 -18.493  0.00  0.00    +0.054 C 
ATOM      4  C   UNL     1      35.349 -21.282 -18.949  0.00  0.00    +0.005 C 
ATOM      5  C   UNL     1      32.908 -20.550 -20.081  0.00  0.00    +0.000 C 
ATOM      6  C   UNL     1      32.948 -21.498 -19.059  0.00  0.00    +0.005 C 
ATOM      7  C   UNL     1      34.068 -18.998 -21.581  0.00  0.00    +0.003 C 
ATOM      8  C   UNL     1      36.509 -19.729 -20.448  0.00  0.00    +0.000 C 
ATOM      9  C   UNL     1      35.251 -18.416 -22.037  0.00  0.00    +0.031 C 
ATOM     10  C   UNL     1      36.470 -18.782 -21.471  0.00  0.00    +0.003 C 
ENDROOT
BRANCH   9  13
ATOM     11  N   UNL     1      34.638 -17.717 -24.339  0.00  0.00    -0.343 N 
ATOM     12  N   UNL     1      35.734 -16.230 -22.908  0.00  0.00    -0.285 NA
ATOM     13  C   UNL     1      35.212 -17.428 -23.102  0.00  0.00    +0.117 C 
ATOM     14  H   UNL     1      34.622 -17.033 -25.046  0.00  0.00    +0.144 HD
ATOM     15  H   UNL     1      34.247 -18.606 -24.504  0.00  0.00    +0.144 HD
ATOM     16  H   UNL     1      35.708 -15.559 -23.628  0.00  0.00    +0.188 HD
ENDBRANCH   9  13
BRANCH   3  19
ATOM     17  O   UNL     1      33.678 -23.961 -17.613  0.00  0.00    -0.270 OA
ATOM     18  N   UNL     1      34.874 -22.464 -16.258  0.00  0.00    -0.280 N 
ATOM     19  C   UNL     1      34.205 -22.852 -17.427  0.00  0.00    +0.249 C 
ATOM     20  H   UNL     1      35.241 -21.551 -16.258  0.00  0.00    +0.155 HD
BRANCH  18  24
ATOM     21  C   UNL     1      36.502 -24.628 -13.750  0.00  0.00    +0.140 C 
ATOM     22  C   UNL     1      36.290 -23.887 -14.912  0.00  0.00    +0.052 C 
ATOM     23  C   UNL     1      35.513 -24.683 -12.768  0.00  0.00    +0.037 C 
ATOM     24  C   UNL     1      35.091 -23.214 -15.076  0.00  0.00    +0.054 C 
ATOM     25  C   UNL     1      34.310 -24.000 -12.950  0.00  0.00    +0.004 C 
ATOM     26  C   UNL     1      34.098 -23.260 -14.112  0.00  0.00    +0.015 C 
BRANCH  21  27
ATOM     27  O   UNL     1      37.675 -25.295 -13.572  0.00  0.00    -0.479 OA
BRANCH  27  28
ATOM     28  C   UNL     1      38.122 -26.115 -14.645  0.00  0.00    +0.166 C 
ATOM     29  C   UNL     1      37.058 -27.154 -14.964  0.00  0.00    +0.044 C 
ATOM     30  C   UNL     1      39.307 -26.960 -14.208  0.00  0.00    +0.044 C 
ATOM     31  C   UNL     1      37.248 -28.235 -13.900  0.00  0.00    +0.004 C 
ATOM     32  C   UNL     1      38.682 -28.090 -13.393  0.00  0.00    +0.004 C 
ENDBRANCH  27  28
ENDBRANCH  21  27
ENDBRANCH  18  24
ENDBRANCH   3  19
TORSDOF 5
ENDMDL
MODEL 3
REMARK VINA RESULT:     -10.8      8.325     12.714
REMARK  Name = 447734
REMARK  5 active torsions:
REMARK  status: ('A' for Active; 'I' for Inactive)
REMARK    1  A    between atoms: C_3  and  C_19
REMARK    2  A    between atoms: C_9  and  C_13
REMARK    3  A    between atoms: N_18  and  C_24
REMARK    4  A    between atoms: C_21  and  O_27
REMARK    5  A    between atoms: O_27  and  C_28
REMARK                            x       y       z     vdW  Elec       q    Type
REMARK                         _______ _______ _______ _____ _____    ______ ____
ROOT
ATOM      1  C   UNL     1      32.106  -8.696 -22.340  0.00  0.00    +0.000 C 
ATOM      2  C   UNL     1      31.848  -8.197 -21.041  0.00  0.00    +0.000 C 
ATOM      3  C   UNL     1      32.312 -10.940 -21.425  0.00  0.00    +0.054 C 
ATOM      4  C   UNL     1      32.336 -10.070 -22.515  0.00  0.00    +0.005 C 
ATOM      5  C   UNL     1      31.828  -9.087 -19.955  0.00  0.00    +0.000 C 
ATOM      6  C   UNL     1      32.058 -10.449 -20.147  0.00  0.00    +0.005 C 
ATOM      7  C   UNL     1      31.618  -6.822 -20.867  0.00  0.00    +0.003 C 
ATOM      8  C   UNL     1      32.127  -7.806 -23.426  0.00  0.00    +0.000 C 
ATOM      9  C   UNL     1      31.641  -5.952 -21.957  0.00  0.00    +0.031 C 
ATOM     10  C   UNL     1      31.895  -6.443 -23.235  0.00  0.00    +0.003 C 
ENDROOT
BRANCH   9  13
ATOM     11  N   UNL     1      32.265  -3.571 -22.281  0.00  0.00    -0.343 N 
ATOM     12  N   UNL     1      30.349  -4.132 -21.068  0.00  0.00    -0.285 NA
ATOM     13  C   UNL     1      31.401  -4.532 -21.759  0.00  0.00    +0.117 C 
ATOM     14  H   UNL     1      32.083  -2.614 -22.136  0.00  0.00    +0.144 HD
ATOM     15  H   UNL     1      33.057  -3.849 -22.797  0.00  0.00    +0.144 HD
ATOM     16  H   UNL     1      30.184  -3.171 -20.933  0.00  0.00    +0.188 HD
ENDBRANCH   9  13
BRANCH   3  19
ATOM     17  O   UNL     1      31.967 -13.179 -20.895  0.00  0.00    -0.270 OA
ATOM     18  N   UNL     1      33.433 -12.693 -22.661  0.00  0.00    -0.280 N 
ATOM     19  C   UNL     1      32.553 -12.361 -21.622  0.00  0.00    +0.249 C 
ATOM     20  H   UNL     1      33.823 -11.934 -23.151  0.00  0.00    +0.155 HD
BRANCH  18  24
ATOM     21  C   UNL     1      34.895 -16.083 -22.647  0.00  0.00    +0.140 C 
ATOM     22  C   UNL     1      34.498 -14.817 -22.216  0.00  0.00    +0.052 C 
ATOM     23  C   UNL     1      34.624 -16.492 -23.953  0.00  0.00    +0.037 C 
ATOM     24  C   UNL     1      33.836 -13.979 -23.098  0.00  0.00    +0.054 C 
ATOM     25  C   UNL     1      33.957 -15.635 -24.828  0.00  0.00    +0.004 C 
ATOM     26  C   UNL     1      33.559 -14.370 -24.397  0.00  0.00    +0.015 C 
BRANCH  21  27
ATOM     27  O   UNL     1      35.546 -16.919 -21.794  0.00  0.00    -0.479 OA
BRANCH  27  28
ATOM     28  C   UNL     1      35.970 -18.173 -22.314  0.00  0.00    +0.166 C 
ATOM     29  C   UNL     1      34.956 -19.244 -21.941  0.00  0.00    +0.044 C 
ATOM     30  C   UNL     1      37.235 -18.638 -21.611  0.00  0.00    +0.044 C 
ATOM     31  C   UNL     1      35.289 -19.597 -20.492  0.00  0.00    +0.004 C 
ATOM     32  C   UNL     1      36.743 -19.179 -20.271  0.00  0.00    +0.004 C 
ENDBRANCH  27  28
ENDBRANCH  21  27
ENDBRANCH  18  24
ENDBRANCH   3  19
TORSDOF 5
ENDMDL
MODEL 4
REMARK VINA RESULT:     -10.7      8.491     12.963
REMARK  Name = 447734
REMARK  5 active torsions:
REMARK  status: ('A' for Active; 'I' for Inactive)
REMARK    1  A    between atoms: C_3  and  C_19
REMARK    2  A    between atoms: C_9  and  C_13
REMARK    3  A    between atoms: N_18  and  C_24
REMARK    4  A    between atoms: C_21  and  O_27
REMARK    5  A    between atoms: O_27  and  C_28
REMARK                            x       y       z     vdW  Elec       q    Type
REMARK                         _______ _______ _______ _____ _____    ______ ____
ROOT
ATOM      1  C   UNL     1      33.216  -8.077 -23.144  0.00  0.00    +0.000 C 
ATOM      2  C   UNL     1      32.202  -8.142 -22.159  0.00  0.00    +0.000 C 
ATOM      3  C   UNL     1      33.273 -10.507 -23.229  0.00  0.00    +0.054 C 
ATOM      4  C   UNL     1      33.741  -9.269 -23.668  0.00  0.00    +0.005 C 
ATOM      5  C   UNL     1      31.742  -9.397 -21.727  0.00  0.00    +0.000 C 
ATOM      6  C   UNL     1      32.276 -10.571 -22.260  0.00  0.00    +0.005 C 
ATOM      7  C   UNL     1      31.676  -6.949 -21.634  0.00  0.00    +0.003 C 
ATOM      8  C   UNL     1      33.674  -6.821 -23.575  0.00  0.00    +0.000 C 
ATOM      9  C   UNL     1      32.143  -5.711 -22.075  0.00  0.00    +0.031 C 
ATOM     10  C   UNL     1      33.141  -5.647 -23.043  0.00  0.00    +0.003 C 
ENDROOT
BRANCH   9  13
ATOM     11  N   UNL     1      31.927  -3.237 -22.041  0.00  0.00    -0.343 N 
ATOM     12  N   UNL     1      30.751  -4.544 -20.502  0.00  0.00    -0.285 NA
ATOM     13  C   UNL     1      31.589  -4.485 -21.521  0.00  0.00    +0.117 C 
ATOM     14  H   UNL     1      31.539  -2.420 -21.651  0.00  0.00    +0.144 HD
ATOM     15  H   UNL     1      32.552  -3.173 -22.799  0.00  0.00    +0.144 HD
ATOM     16  H   UNL     1      30.374  -3.716 -20.126  0.00  0.00    +0.188 HD
ENDBRANCH   9  13
BRANCH   3  19
ATOM     17  O   UNL     1      34.565 -11.665 -24.779  0.00  0.00    -0.270 OA
ATOM     18  N   UNL     1      33.494 -12.914 -23.106  0.00  0.00    -0.280 N 
ATOM     19  C   UNL     1      33.828 -11.732 -23.781  0.00  0.00    +0.249 C 
ATOM     20  H   UNL     1      32.899 -12.810 -22.330  0.00  0.00    +0.155 HD
BRANCH  18  24
ATOM     21  C   UNL     1      34.976 -16.272 -22.712  0.00  0.00    +0.140 C 
ATOM     22  C   UNL     1      34.573 -14.968 -22.427  0.00  0.00    +0.052 C 
ATOM     23  C   UNL     1      34.700 -16.829 -23.961  0.00  0.00    +0.037 C 
ATOM     24  C   UNL     1      33.901 -14.240 -23.395  0.00  0.00    +0.054 C 
ATOM     25  C   UNL     1      34.023 -16.082 -24.925  0.00  0.00    +0.004 C 
ATOM     26  C   UNL     1      33.620 -14.778 -24.639  0.00  0.00    +0.015 C 
BRANCH  21  27
ATOM     27  O   UNL     1      35.637 -17.002 -21.773  0.00  0.00    -0.479 OA
BRANCH  27  28
ATOM     28  C   UNL     1      36.209 -18.233 -22.196  0.00  0.00    +0.166 C 
ATOM     29  C   UNL     1      35.155 -19.328 -22.137  0.00  0.00    +0.044 C 
ATOM     30  C   UNL     1      37.250 -18.705 -21.193  0.00  0.00    +0.044 C 
ATOM     31  C   UNL     1      35.095 -19.723 -20.662  0.00  0.00    +0.004 C 
ATOM     32  C   UNL     1      36.428 -19.295 -20.049  0.00  0.00    +0.004 C 
ENDBRANCH  27  28
ENDBRANCH  21  27
ENDBRANCH  18  24
ENDBRANCH   3  19
TORSDOF 5
ENDMDL
MODEL 5
REMARK VINA RESULT:     -10.5      9.957     16.289
REMARK  Name = 447734
REMARK  5 active torsions:
REMARK  status: ('A' for Active; 'I' for Inactive)
REMARK    1  A    between atoms: C_3  and  C_19
REMARK    2  A    between atoms: C_9  and  C_13
REMARK    3  A    between atoms: N_18  and  C_24
REMARK    4  A    between atoms: C_21  and  O_27
REMARK    5  A    between atoms: O_27  and  C_28
REMARK                            x       y       z     vdW  Elec       q    Type
REMARK                         _______ _______ _______ _____ _____    ______ ____
ROOT
ATOM      1  C   UNL     1      34.324 -14.104 -22.903  0.00  0.00    +0.000 C 
ATOM      2  C   UNL     1      33.950 -14.629 -24.163  0.00  0.00    +0.000 C 
ATOM      3  C   UNL     1      33.765 -11.868 -23.681  0.00  0.00    +0.054 C 
ATOM      4  C   UNL     1      34.225 -12.722 -22.679  0.00  0.00    +0.005 C 
ATOM      5  C   UNL     1      33.488 -13.756 -25.162  0.00  0.00    +0.000 C 
ATOM      6  C   UNL     1      33.397 -12.385 -24.921  0.00  0.00    +0.005 C 
ATOM      7  C   UNL     1      34.048 -16.012 -24.388  0.00  0.00    +0.003 C 
ATOM      8  C   UNL     1      34.786 -14.978 -21.905  0.00  0.00    +0.000 C 
ATOM      9  C   UNL     1      34.508 -16.866 -23.385  0.00  0.00    +0.031 C 
ATOM     10  C   UNL     1      34.876 -16.350 -22.146  0.00  0.00    +0.003 C 
ENDROOT
BRANCH   9  13
ATOM     11  N   UNL     1      35.341 -19.129 -22.795  0.00  0.00    -0.343 N 
ATOM     12  N   UNL     1      33.990 -18.825 -24.677  0.00  0.00    -0.285 NA
ATOM     13  C   UNL     1      34.604 -18.295 -23.634  0.00  0.00    +0.117 C 
ATOM     14  H   UNL     1      35.392 -20.095 -22.982  0.00  0.00    +0.144 HD
ATOM     15  H   UNL     1      35.809 -18.753 -22.014  0.00  0.00    +0.144 HD
ATOM     16  H   UNL     1      34.053 -19.792 -24.847  0.00  0.00    +0.188 HD
ENDBRANCH   9  13
BRANCH   3  19
ATOM     17  O   UNL     1      34.468  -9.674 -23.999  0.00  0.00    -0.270 OA
ATOM     18  N   UNL     1      32.641 -10.035 -22.570  0.00  0.00    -0.280 N 
ATOM     19  C   UNL     1      33.670 -10.439 -23.433  0.00  0.00    +0.249 C 
ATOM     20  H   UNL     1      32.088 -10.758 -22.196  0.00  0.00    +0.155 HD
BRANCH  18  24
ATOM     21  C   UNL     1      31.614  -6.493 -22.732  0.00  0.00    +0.140 C 
ATOM     22  C   UNL     1      31.954  -7.786 -23.129  0.00  0.00    +0.052 C 
ATOM     23  C   UNL     1      31.619  -6.156 -21.378  0.00  0.00    +0.037 C 
ATOM     24  C   UNL     1      32.294  -8.722 -22.167  0.00  0.00    +0.054 C 
ATOM     25  C   UNL     1      31.964  -7.111 -20.422  0.00  0.00    +0.004 C 
ATOM     26  C   UNL     1      32.304  -8.404 -20.819  0.00  0.00    +0.015 C 
BRANCH  21  27
ATOM     27  O   UNL     1      31.277  -5.561 -23.663  0.00  0.00    -0.479 OA
BRANCH  27  28
ATOM     28  C   UNL     1      32.090  -4.395 -23.735  0.00  0.00    +0.166 C 
ATOM     29  C   UNL     1      31.734  -3.608 -24.987  0.00  0.00    +0.044 C 
ATOM     30  C   UNL     1      33.543  -4.776 -23.970  0.00  0.00    +0.044 C 
ATOM     31  C   UNL     1      32.466  -4.334 -26.116  0.00  0.00    +0.004 C 
ATOM     32  C   UNL     1      33.608  -5.108 -25.458  0.00  0.00    +0.004 C 
ENDBRANCH  27  28
ENDBRANCH  21  27
ENDBRANCH  18  24
ENDBRANCH   3  19
TORSDOF 5
ENDMDL
MODEL 6
REMARK VINA RESULT:     -10.4      1.101      1.949
REMARK  Name = 447734
REMARK  5 active torsions:
REMARK  status: ('A' for Active; 'I' for Inactive)
REMARK    1  A    between atoms: C_3  and  C_19
REMARK    2  A    between atoms: C_9  and  C_13
REMARK    3  A    between atoms: N_18  and  C_24
REMARK    4  A    between atoms: C_21  and  O_27
REMARK    5  A    between atoms: O_27  and  C_28
REMARK                            x       y       z     vdW  Elec       q    Type
REMARK                         _______ _______ _______ _____ _____    ______ ____
ROOT
ATOM      1  C   UNL     1      34.266 -20.986 -19.427  0.00  0.00    +0.000 C 
ATOM      2  C   UNL     1      35.562 -20.559 -19.800  0.00  0.00    +0.000 C 
ATOM      3  C   UNL     1      35.219 -22.176 -17.530  0.00  0.00    +0.054 C 
ATOM      4  C   UNL     1      34.112 -21.795 -18.289  0.00  0.00    +0.005 C 
ATOM      5  C   UNL     1      36.666 -20.951 -19.026  0.00  0.00    +0.000 C 
ATOM      6  C   UNL     1      36.493 -21.754 -17.898  0.00  0.00    +0.005 C 
ATOM      7  C   UNL     1      35.717 -19.750 -20.939  0.00  0.00    +0.003 C 
ATOM      8  C   UNL     1      33.163 -20.593 -20.202  0.00  0.00    +0.000 C 
ATOM      9  C   UNL     1      34.610 -19.368 -21.697  0.00  0.00    +0.031 C 
ATOM     10  C   UNL     1      33.335 -19.789 -21.329  0.00  0.00    +0.003 C 
ENDROOT
BRANCH   9  13
ATOM     11  N   UNL     1      35.637 -17.427 -22.854  0.00  0.00    -0.343 N 
ATOM     12  N   UNL     1      34.129 -18.809 -23.984  0.00  0.00    -0.285 NA
ATOM     13  C   UNL     1      34.787 -18.531 -22.873  0.00  0.00    +0.117 C 
ATOM     14  H   UNL     1      35.743 -16.873 -23.662  0.00  0.00    +0.144 HD
ATOM     15  H   UNL     1      36.133 -17.201 -22.034  0.00  0.00    +0.144 HD
ATOM     16  H   UNL     1      34.248 -18.243 -24.781  0.00  0.00    +0.188 HD
ENDBRANCH   9  13
BRANCH   3  19
ATOM     17  O   UNL     1      33.995 -23.672 -16.235  0.00  0.00    -0.270 OA
ATOM     18  N   UNL     1      36.109 -23.026 -15.446  0.00  0.00    -0.280 N 
ATOM     19  C   UNL     1      35.042 -23.014 -16.355  0.00  0.00    +0.249 C 
ATOM     20  H   UNL     1      36.873 -22.451 -15.676  0.00  0.00    +0.155 HD
BRANCH  18  24
ATOM     21  C   UNL     1      37.098 -25.642 -13.038  0.00  0.00    +0.140 C 
ATOM     22  C   UNL     1      36.980 -24.922 -14.225  0.00  0.00    +0.052 C 
ATOM     23  C   UNL     1      36.464 -25.187 -11.881  0.00  0.00    +0.037 C 
ATOM     24  C   UNL     1      36.230 -23.757 -14.239  0.00  0.00    +0.054 C 
ATOM     25  C   UNL     1      35.713 -24.013 -11.912  0.00  0.00    +0.004 C 
ATOM     26  C   UNL     1      35.595 -23.293 -13.100  0.00  0.00    +0.015 C 
BRANCH  21  27
ATOM     27  O   UNL     1      37.830 -26.788 -13.006  0.00  0.00    -0.479 OA
BRANCH  27  28
ATOM     28  C   UNL     1      37.375 -27.869 -13.811  0.00  0.00    +0.166 C 
ATOM     29  C   UNL     1      37.213 -29.110 -12.946  0.00  0.00    +0.044 C 
ATOM     30  C   UNL     1      38.452 -28.280 -14.803  0.00  0.00    +0.044 C 
ATOM     31  C   UNL     1      38.632 -29.660 -12.796  0.00  0.00    +0.004 C 
ATOM     32  C   UNL     1      39.434 -29.102 -13.971  0.00  0.00    +0.004 C 
ENDBRANCH  27  28
ENDBRANCH  21  27
ENDBRANCH  18  24
ENDBRANCH   3  19
TORSDOF 5
ENDMDL
MODEL 7
REMARK VINA RESULT:     -10.4      3.466     10.914
REMARK  Name = 447734
REMARK  5 active torsions:
REMARK  status: ('A' for Active; 'I' for Inactive)
REMARK    1  A    between atoms: C_3  and  C_19
REMARK    2  A    between atoms: C_9  and  C_13
REMARK    3  A    between atoms: N_18  and  C_24
REMARK    4  A    between atoms: C_21  and  O_27
REMARK    5  A    between atoms: O_27  and  C_28
REMARK                            x       y       z     vdW  Elec       q    Type
REMARK                         _______ _______ _______ _____ _____    ______ ____
ROOT
ATOM      1  C   UNL     1      35.903 -21.715 -17.664  0.00  0.00    +0.000 C 
ATOM      2  C   UNL     1      34.927 -22.509 -17.016  0.00  0.00    +0.000 C 
ATOM      3  C   UNL     1      34.237 -21.019 -19.294  0.00  0.00    +0.054 C 
ATOM      4  C   UNL     1      35.541 -20.976 -18.802  0.00  0.00    +0.005 C 
ATOM      5  C   UNL     1      33.619 -22.541 -17.524  0.00  0.00    +0.000 C 
ATOM      6  C   UNL     1      33.277 -21.800 -18.656  0.00  0.00    +0.005 C 
ATOM      7  C   UNL     1      35.289 -23.248 -15.877  0.00  0.00    +0.003 C 
ATOM      8  C   UNL     1      37.211 -21.683 -17.155  0.00  0.00    +0.000 C 
ATOM      9  C   UNL     1      36.593 -23.205 -15.385  0.00  0.00    +0.031 C 
ATOM     10  C   UNL     1      37.553 -22.424 -16.023  0.00  0.00    +0.003 C 
ENDROOT
BRANCH   9  13
ATOM     11  N   UNL     1      36.069 -24.899 -13.647  0.00  0.00    -0.343 N 
ATOM     12  N   UNL     1      38.132 -23.802 -13.639  0.00  0.00    -0.285 NA
ATOM     13  C   UNL     1      36.952 -23.976 -14.205  0.00  0.00    +0.117 C 
ATOM     14  H   UNL     1      36.332 -25.411 -12.848  0.00  0.00    +0.144 HD
ATOM     15  H   UNL     1      35.183 -25.040 -14.053  0.00  0.00    +0.144 HD
ATOM     16  H   UNL     1      38.377 -24.323 -12.840  0.00  0.00    +0.188 HD
ENDBRANCH   9  13
BRANCH   3  19
ATOM     17  O   UNL     1      32.717 -20.315 -20.909  0.00  0.00    -0.270 OA
ATOM     18  N   UNL     1      34.898 -19.456 -21.020  0.00  0.00    -0.280 N 
ATOM     19  C   UNL     1      33.878 -20.248 -20.474  0.00  0.00    +0.249 C 
ATOM     20  H   UNL     1      35.769 -19.507 -20.566  0.00  0.00    +0.155 HD
BRANCH  18  24
ATOM     21  C   UNL     1      34.867 -16.372 -23.048  0.00  0.00    +0.140 C 
ATOM     22  C   UNL     1      34.928 -17.223 -21.945  0.00  0.00    +0.052 C 
ATOM     23  C   UNL     1      34.717 -16.901 -24.330  0.00  0.00    +0.037 C 
ATOM     24  C   UNL     1      34.838 -18.591 -22.140  0.00  0.00    +0.054 C 
ATOM     25  C   UNL     1      34.626 -18.282 -24.508  0.00  0.00    +0.004 C 
ATOM     26  C   UNL     1      34.687 -19.133 -23.406  0.00  0.00    +0.015 C 
BRANCH  21  27
ATOM     27  O   UNL     1      34.955 -15.026 -22.874  0.00  0.00    -0.479 OA
BRANCH  27  28
ATOM     28  C   UNL     1      33.744 -14.326 -22.618  0.00  0.00    +0.166 C 
ATOM     29  C   UNL     1      33.044 -14.027 -23.935  0.00  0.00    +0.044 C 
ATOM     30  C   UNL     1      34.039 -12.941 -22.064  0.00  0.00    +0.044 C 
ATOM     31  C   UNL     1      33.774 -12.804 -24.488  0.00  0.00    +0.004 C 
ATOM     32  C   UNL     1      34.439 -12.124 -23.291  0.00  0.00    +0.004 C 
ENDBRANCH  27  28
ENDBRANCH  21  27
ENDBRANCH  18  24
ENDBRANCH   3  19
TORSDOF 5
ENDMDL
MODEL 8
REMARK VINA RESULT:     -10.3      6.525     10.911
REMARK  Name = 447734
REMARK  5 active torsions:
REMARK  status: ('A' for Active; 'I' for Inactive)
REMARK    1  A    between atoms: C_3  and  C_19
REMARK    2  A    between atoms: C_9  and  C_13
REMARK    3  A    between atoms: N_18  and  C_24
REMARK    4  A    between atoms: C_21  and  O_27
REMARK    5  A    between atoms: O_27  and  C_28
REMARK                            x       y       z     vdW  Elec       q    Type
REMARK                         _______ _______ _______ _____ _____    ______ ____
ROOT
ATOM      1  C   UNL     1      32.581 -11.420 -22.313  0.00  0.00    +0.000 C 
ATOM      2  C   UNL     1      33.100 -10.353 -23.084  0.00  0.00    +0.000 C 
ATOM      3  C   UNL     1      33.527 -13.007 -23.895  0.00  0.00    +0.054 C 
ATOM      4  C   UNL     1      32.803 -12.742 -22.732  0.00  0.00    +0.005 C 
ATOM      5  C   UNL     1      33.826 -10.638 -24.251  0.00  0.00    +0.000 C 
ATOM      6  C   UNL     1      34.037 -11.957 -24.653  0.00  0.00    +0.005 C 
ATOM      7  C   UNL     1      32.877  -9.030 -22.664  0.00  0.00    +0.003 C 
ATOM      8  C   UNL     1      31.855 -11.134 -21.145  0.00  0.00    +0.000 C 
ATOM      9  C   UNL     1      32.154  -8.765 -21.501  0.00  0.00    +0.031 C 
ATOM     10  C   UNL     1      31.644  -9.815 -20.742  0.00  0.00    +0.003 C 
ENDROOT
BRANCH   9  13
ATOM     11  N   UNL     1      32.379  -6.931 -19.843  0.00  0.00    -0.343 N 
ATOM     12  N   UNL     1      31.292  -6.554 -21.876  0.00  0.00    -0.285 NA
ATOM     13  C   UNL     1      31.933  -7.390 -21.080  0.00  0.00    +0.117 C 
ATOM     14  H   UNL     1      32.219  -5.995 -19.578  0.00  0.00    +0.144 HD
ATOM     15  H   UNL     1      32.856  -7.540 -19.233  0.00  0.00    +0.144 HD
ATOM     16  H   UNL     1      31.141  -5.623 -21.594  0.00  0.00    +0.188 HD
ENDBRANCH   9  13
BRANCH   3  19
ATOM     17  O   UNL     1      33.684 -14.660 -25.525  0.00  0.00    -0.270 OA
ATOM     18  N   UNL     1      34.045 -15.294 -23.294  0.00  0.00    -0.280 N 
ATOM     19  C   UNL     1      33.748 -14.382 -24.316  0.00  0.00    +0.249 C 
ATOM     20  H   UNL     1      34.059 -14.926 -22.382  0.00  0.00    +0.155 HD
BRANCH  18  24
ATOM     21  C   UNL     1      35.456 -18.632 -22.593  0.00  0.00    +0.140 C 
ATOM     22  C   UNL     1      35.177 -17.270 -22.484  0.00  0.00    +0.052 C 
ATOM     23  C   UNL     1      34.882 -19.382 -23.619  0.00  0.00    +0.037 C 
ATOM     24  C   UNL     1      34.328 -16.678 -23.404  0.00  0.00    +0.054 C 
ATOM     25  C   UNL     1      34.029 -18.769 -24.538  0.00  0.00    +0.004 C 
ATOM     26  C   UNL     1      33.750 -17.408 -24.429  0.00  0.00    +0.015 C 
BRANCH  21  27
ATOM     27  O   UNL     1      36.288 -19.230 -21.698  0.00  0.00    -0.479 OA
BRANCH  27  28
ATOM     28  C   UNL     1      35.925 -19.154 -20.325  0.00  0.00    +0.166 C 
ATOM     29  C   UNL     1      36.820 -20.076 -19.512  0.00  0.00    +0.044 C 
ATOM     30  C   UNL     1      34.540 -19.743 -20.110  0.00  0.00    +0.044 C 
ATOM     31  C   UNL     1      36.223 -21.468 -19.717  0.00  0.00    +0.004 C 
ATOM     32  C   UNL     1      34.767 -21.253 -20.132  0.00  0.00    +0.004 C 
ENDBRANCH  27  28
ENDBRANCH  21  27
ENDBRANCH  18  24
ENDBRANCH   3  19
TORSDOF 5
ENDMDL
MODEL 9
REMARK VINA RESULT:     -10.1      2.541      4.325
REMARK  Name = 447734
REMARK  5 active torsions:
REMARK  status: ('A' for Active; 'I' for Inactive)
REMARK    1  A    between atoms: C_3  and  C_19
REMARK    2  A    between atoms: C_9  and  C_13
REMARK    3  A    between atoms: N_18  and  C_24
REMARK    4  A    between atoms: C_21  and  O_27
REMARK    5  A    between atoms: O_27  and  C_28
REMARK                            x       y       z     vdW  Elec       q    Type
REMARK                         _______ _______ _______ _____ _____    ______ ____
ROOT
ATOM      1  C   UNL     1      35.879 -19.663 -20.628  0.00  0.00    +0.000 C 
ATOM      2  C   UNL     1      34.536 -19.755 -21.064  0.00  0.00    +0.000 C 
ATOM      3  C   UNL     1      35.385 -21.212 -18.818  0.00  0.00    +0.054 C 
ATOM      4  C   UNL     1      36.287 -20.398 -19.503  0.00  0.00    +0.005 C 
ATOM      5  C   UNL     1      33.641 -20.579 -20.363  0.00  0.00    +0.000 C 
ATOM      6  C   UNL     1      34.064 -21.303 -19.248  0.00  0.00    +0.005 C 
ATOM      7  C   UNL     1      34.127 -19.020 -22.190  0.00  0.00    +0.003 C 
ATOM      8  C   UNL     1      36.774 -18.838 -21.329  0.00  0.00    +0.000 C 
ATOM      9  C   UNL     1      35.030 -18.206 -22.875  0.00  0.00    +0.031 C 
ATOM     10  C   UNL     1      36.351 -18.116 -22.445  0.00  0.00    +0.003 C 
ENDROOT
BRANCH   9  13
ATOM     11  N   UNL     1      35.128 -16.200 -24.335  0.00  0.00    -0.343 N 
ATOM     12  N   UNL     1      33.661 -17.949 -24.833  0.00  0.00    -0.285 NA
ATOM     13  C   UNL     1      34.591 -17.451 -24.038  0.00  0.00    +0.117 C 
ATOM     14  H   UNL     1      34.817 -15.707 -25.128  0.00  0.00    +0.144 HD
ATOM     15  H   UNL     1      35.820 -15.811 -23.752  0.00  0.00    +0.144 HD
ATOM     16  H   UNL     1      33.363 -17.440 -25.621  0.00  0.00    +0.188 HD
ENDBRANCH   9  13
BRANCH   3  19
ATOM     17  O   UNL     1      37.038 -22.166 -17.488  0.00  0.00    -0.270 OA
ATOM     18  N   UNL     1      34.810 -22.394 -16.786  0.00  0.00    -0.280 N 
ATOM     19  C   UNL     1      35.823 -21.966 -17.655  0.00  0.00    +0.249 C 
ATOM     20  H   UNL     1      33.892 -22.161 -17.052  0.00  0.00    +0.155 HD
BRANCH  18  24
ATOM     21  C   UNL     1      33.915 -24.244 -13.720  0.00  0.00    +0.140 C 
ATOM     22  C   UNL     1      33.792 -23.533 -14.913  0.00  0.00    +0.052 C 
ATOM     23  C   UNL     1      35.180 -24.530 -13.206  0.00  0.00    +0.037 C 
ATOM     24  C   UNL     1      34.935 -23.117 -15.574  0.00  0.00    +0.054 C 
ATOM     25  C   UNL     1      36.321 -24.103 -13.885  0.00  0.00    +0.004 C 
ATOM     26  C   UNL     1      36.198 -23.392 -15.078  0.00  0.00    +0.015 C 
BRANCH  21  27
ATOM     27  O   UNL     1      32.802 -24.661 -13.057  0.00  0.00    -0.479 OA
BRANCH  27  28
ATOM     28  C   UNL     1      31.738 -23.726 -12.929  0.00  0.00    +0.166 C 
ATOM     29  C   UNL     1      30.488 -24.446 -12.445  0.00  0.00    +0.044 C 
ATOM     30  C   UNL     1      31.326 -23.201 -14.295  0.00  0.00    +0.044 C 
ATOM     31  C   UNL     1      29.917 -25.105 -13.701  0.00  0.00    +0.004 C 
ATOM     32  C   UNL     1      30.480 -24.325 -14.888  0.00  0.00    +0.004 C 
ENDBRANCH  27  28
ENDBRANCH  21  27
ENDBRANCH  18  24
ENDBRANCH   3  19
TORSDOF 5
ENDMDL
