MODEL 1
REMARK VINA RESULT:     -12.3      0.000      0.000
REMARK  Name = 66571548
REMARK  8 active torsions:
REMARK  status: ('A' for Active; 'I' for Inactive)
REMARK    1  A    between atoms: C_2  and  C_10
REMARK    2  A    between atoms: C_2  and  C_22
REMARK    3  A    between atoms: N_3  and  C_15
REMARK    4  A    between atoms: C_15  and  C_18
REMARK    5  A    between atoms: C_18  and  O_19
REMARK    6  A    between atoms: C_25  and  N_28
REMARK    7  A    between atoms: C_29  and  C_31
REMARK    8  A    between atoms: C_31  and  C_34
REMARK                            x       y       z     vdW  Elec       q    Type
REMARK                         _______ _______ _______ _____ _____    ______ ____
ROOT
ATOM      1  O   UNL     1      31.966 -22.024 -18.433  0.00  0.00    -0.286 OA
ATOM      2  C   UNL     1      33.128 -22.082 -17.976  0.00  0.00    +0.199 C 
ENDROOT
BRANCH   2  10
ATOM      3  N   UNL     1      34.551 -23.681 -15.071  0.00  0.00    -0.261 N 
ATOM      4  N   UNL     1      32.744 -24.449 -13.670  0.00  0.00    -0.322 NA
ATOM      5  N   UNL     1      30.548 -23.942 -14.592  0.00  0.00    -0.170 NA
ATOM      6  N   UNL     1      30.786 -25.063 -12.551  0.00  0.00    -0.293 N 
ATOM      7  C   UNL     1      33.225 -23.845 -14.771  0.00  0.00    +0.201 C 
ATOM      8  C   UNL     1      34.673 -23.022 -16.267  0.00  0.00    +0.071 C 
ATOM      9  C   UNL     1      32.481 -23.279 -15.800  0.00  0.00    +0.069 C 
ATOM     10  C   UNL     1      33.405 -22.760 -16.742  0.00  0.00    +0.059 C 
ATOM     11  C   UNL     1      31.094 -23.346 -15.678  0.00  0.00    +0.116 C 
ATOM     12  C   UNL     1      31.396 -24.449 -13.668  0.00  0.00    +0.143 C 
ATOM     13  H   UNL     1      31.343 -25.453 -11.839  0.00  0.00    +0.155 HD
ATOM     14  H   UNL     1      29.805 -25.099 -12.483  0.00  0.00    +0.155 HD
BRANCH   3  15
ATOM     15  C   UNL     1      35.734 -24.160 -14.207  0.00  0.00    +0.091 C 
ATOM     16  C   UNL     1      36.021 -25.676 -14.334  0.00  0.00    +0.023 C 
ATOM     17  C   UNL     1      37.016 -23.421 -14.655  0.00  0.00    +0.023 C 
BRANCH  15  18
ATOM     18  C   UNL     1      35.473 -23.841 -12.713  0.00  0.00    +0.155 C 
BRANCH  18  19
ATOM     19  O   UNL     1      35.189 -25.031 -11.986  0.00  0.00    -0.380 OA
ATOM     20  H   UNL     1      34.259 -25.276 -12.117  0.00  0.00    +0.211 HD
ENDBRANCH  18  19
ENDBRANCH  15  18
ENDBRANCH   3  15
ENDBRANCH   2  10
BRANCH   2  22
ATOM     21  N   UNL     1      36.528 -20.860 -19.103  0.00  0.00    -0.241 NA
ATOM     22  C   UNL     1      34.192 -21.402 -18.795  0.00  0.00    +0.059 C 
ATOM     23  C   UNL     1      33.869 -20.706 -19.955  0.00  0.00    +0.021 C 
ATOM     24  C   UNL     1      35.524 -21.448 -18.415  0.00  0.00    +0.102 C 
ATOM     25  C   UNL     1      34.875 -20.087 -20.690  0.00  0.00    +0.070 C 
ATOM     26  C   UNL     1      36.177 -20.193 -20.226  0.00  0.00    +0.113 C 
BRANCH  25  28
ATOM     27  O   UNL     1      36.653 -18.444 -22.466  0.00  0.00    -0.274 OA
ATOM     28  N   UNL     1      34.582 -19.382 -21.855  0.00  0.00    -0.282 N 
ATOM     29  C   UNL     1      35.453 -18.624 -22.657  0.00  0.00    +0.232 C 
ATOM     30  H   UNL     1      33.646 -19.420 -22.155  0.00  0.00    +0.155 HD
BRANCH  29  31
ATOM     31  C   UNL     1      34.720 -18.018 -23.843  0.00  0.00    +0.131 C 
BRANCH  31  34
ATOM     32 CL   UNL     1      33.728 -12.167 -23.431  0.00  0.00    -0.081 Cl
ATOM     33  N   UNL     1      33.926 -15.913 -24.771  0.00  0.00    -0.247 NA
ATOM     34  C   UNL     1      34.482 -16.537 -23.707  0.00  0.00    +0.068 C 
ATOM     35  C   UNL     1      34.834 -15.897 -22.530  0.00  0.00    +0.016 C 
ATOM     36  C   UNL     1      34.600 -14.529 -22.437  0.00  0.00    +0.014 C 
ATOM     37  C   UNL     1      33.714 -14.584 -24.644  0.00  0.00    +0.110 C 
ATOM     38  C   UNL     1      34.030 -13.853 -23.510  0.00  0.00    +0.077 C 
ENDBRANCH  31  34
ENDBRANCH  29  31
ENDBRANCH  25  28
ENDBRANCH   2  22
TORSDOF 8
ENDMDL
MODEL 2
REMARK VINA RESULT:     -12.0      1.434      2.916
REMARK  Name = 66571548
REMARK  8 active torsions:
REMARK  status: ('A' for Active; 'I' for Inactive)
REMARK    1  A    between atoms: C_2  and  C_10
REMARK    2  A    between atoms: C_2  and  C_22
REMARK    3  A    between atoms: N_3  and  C_15
REMARK    4  A    between atoms: C_15  and  C_18
REMARK    5  A    between atoms: C_18  and  O_19
REMARK    6  A    between atoms: C_25  and  N_28
REMARK    7  A    between atoms: C_29  and  C_31
REMARK    8  A    between atoms: C_31  and  C_34
REMARK                            x       y       z     vdW  Elec       q    Type
REMARK                         _______ _______ _______ _____ _____    ______ ____
ROOT
ATOM      1  O   UNL     1      33.813 -24.072 -19.337  0.00  0.00    -0.286 OA
ATOM      2  C   UNL     1      33.976 -23.136 -18.525  0.00  0.00    +0.199 C 
ENDROOT
BRANCH   2  10
ATOM      3  N   UNL     1      32.006 -23.321 -15.507  0.00  0.00    -0.261 N 
ATOM      4  N   UNL     1      33.513 -23.450 -13.628  0.00  0.00    -0.322 NA
ATOM      5  N   UNL     1      35.856 -23.416 -14.287  0.00  0.00    -0.170 NA
ATOM      6  N   UNL     1      35.224 -23.560 -12.038  0.00  0.00    -0.293 N 
ATOM      7  C   UNL     1      33.254 -23.363 -14.945  0.00  0.00    +0.201 C 
ATOM      8  C   UNL     1      32.120 -23.235 -16.870  0.00  0.00    +0.071 C 
ATOM      9  C   UNL     1      34.188 -23.301 -15.972  0.00  0.00    +0.069 C 
ATOM     10  C   UNL     1      33.462 -23.220 -17.187  0.00  0.00    +0.059 C 
ATOM     11  C   UNL     1      35.531 -23.329 -15.598  0.00  0.00    +0.116 C 
ATOM     12  C   UNL     1      34.840 -23.471 -13.396  0.00  0.00    +0.143 C 
ATOM     13  H   UNL     1      34.536 -23.603 -11.335  0.00  0.00    +0.155 HD
ATOM     14  H   UNL     1      36.177 -23.579 -11.796  0.00  0.00    +0.155 HD
BRANCH   3  15
ATOM     15  C   UNL     1      30.671 -23.363 -14.737  0.00  0.00    +0.091 C 
ATOM     16  C   UNL     1      30.640 -22.434 -13.499  0.00  0.00    +0.023 C 
ATOM     17  C   UNL     1      29.534 -22.898 -15.676  0.00  0.00    +0.023 C 
BRANCH  15  18
ATOM     18  C   UNL     1      30.367 -24.807 -14.266  0.00  0.00    +0.155 C 
BRANCH  18  19
ATOM     19  O   UNL     1      30.734 -24.979 -12.901  0.00  0.00    -0.380 OA
ATOM     20  H   UNL     1      29.940 -24.935 -12.345  0.00  0.00    +0.211 HD
ENDBRANCH  18  19
ENDBRANCH  15  18
ENDBRANCH   3  15
ENDBRANCH   2  10
BRANCH   2  22
ATOM     21  N   UNL     1      36.597 -20.421 -18.808  0.00  0.00    -0.241 NA
ATOM     22  C   UNL     1      34.731 -21.941 -19.040  0.00  0.00    +0.059 C 
ATOM     23  C   UNL     1      34.305 -21.257 -20.173  0.00  0.00    +0.021 C 
ATOM     24  C   UNL     1      35.872 -21.487 -18.399  0.00  0.00    +0.102 C 
ATOM     25  C   UNL     1      35.024 -20.155 -20.624  0.00  0.00    +0.070 C 
ATOM     26  C   UNL     1      36.153 -19.781 -19.913  0.00  0.00    +0.113 C 
BRANCH  25  28
ATOM     27  O   UNL     1      36.636 -18.593 -22.618  0.00  0.00    -0.274 OA
ATOM     28  N   UNL     1      34.620 -19.449 -21.756  0.00  0.00    -0.282 N 
ATOM     29  C   UNL     1      35.417 -18.730 -22.664  0.00  0.00    +0.232 C 
ATOM     30  H   UNL     1      33.655 -19.454 -21.942  0.00  0.00    +0.155 HD
BRANCH  29  31
ATOM     31  C   UNL     1      34.571 -18.106 -23.763  0.00  0.00    +0.131 C 
BRANCH  31  34
ATOM     32 CL   UNL     1      33.927 -12.206 -23.361  0.00  0.00    -0.081 Cl
ATOM     33  N   UNL     1      33.922 -15.957 -24.702  0.00  0.00    -0.247 NA
ATOM     34  C   UNL     1      34.420 -16.614 -23.629  0.00  0.00    +0.068 C 
ATOM     35  C   UNL     1      34.789 -15.997 -22.445  0.00  0.00    +0.016 C 
ATOM     36  C   UNL     1      34.637 -14.617 -22.355  0.00  0.00    +0.014 C 
ATOM     37  C   UNL     1      33.789 -14.618 -24.577  0.00  0.00    +0.110 C 
ATOM     38  C   UNL     1      34.129 -13.907 -23.437  0.00  0.00    +0.077 C 
ENDBRANCH  31  34
ENDBRANCH  29  31
ENDBRANCH  25  28
ENDBRANCH   2  22
TORSDOF 8
ENDMDL
MODEL 3
REMARK VINA RESULT:     -11.9      1.854      3.215
REMARK  Name = 66571548
REMARK  8 active torsions:
REMARK  status: ('A' for Active; 'I' for Inactive)
REMARK    1  A    between atoms: C_2  and  C_10
REMARK    2  A    between atoms: C_2  and  C_22
REMARK    3  A    between atoms: N_3  and  C_15
REMARK    4  A    between atoms: C_15  and  C_18
REMARK    5  A    between atoms: C_18  and  O_19
REMARK    6  A    between atoms: C_25  and  N_28
REMARK    7  A    between atoms: C_29  and  C_31
REMARK    8  A    between atoms: C_31  and  C_34
REMARK                            x       y       z     vdW  Elec       q    Type
REMARK                         _______ _______ _______ _____ _____    ______ ____
ROOT
ATOM      1  O   UNL     1      36.757 -22.027 -18.271  0.00  0.00    -0.286 OA
ATOM      2  C   UNL     1      35.549 -21.933 -17.965  0.00  0.00    +0.199 C 
ENDROOT
BRANCH   2  10
ATOM      3  N   UNL     1      33.656 -23.208 -15.170  0.00  0.00    -0.261 N 
ATOM      4  N   UNL     1      35.161 -23.502 -13.309  0.00  0.00    -0.322 NA
ATOM      5  N   UNL     1      37.454 -22.872 -13.834  0.00  0.00    -0.170 NA
ATOM      6  N   UNL     1      36.863 -23.670 -11.715  0.00  0.00    -0.293 N 
ATOM      7  C   UNL     1      34.889 -23.150 -14.578  0.00  0.00    +0.201 C 
ATOM      8  C   UNL     1      33.749 -22.775 -16.467  0.00  0.00    +0.071 C 
ATOM      9  C   UNL     1      35.792 -22.667 -15.517  0.00  0.00    +0.069 C 
ATOM     10  C   UNL     1      35.063 -22.432 -16.710  0.00  0.00    +0.059 C 
ATOM     11  C   UNL     1      37.116 -22.533 -15.100  0.00  0.00    +0.116 C 
ATOM     12  C   UNL     1      36.468 -23.329 -13.029  0.00  0.00    +0.143 C 
ATOM     13  H   UNL     1      36.198 -24.011 -11.074  0.00  0.00    +0.155 HD
ATOM     14  H   UNL     1      37.803 -23.569 -11.441  0.00  0.00    +0.155 HD
BRANCH   3  15
ATOM     15  C   UNL     1      32.355 -23.684 -14.493  0.00  0.00    +0.091 C 
ATOM     16  C   UNL     1      31.840 -22.721 -13.396  0.00  0.00    +0.023 C 
ATOM     17  C   UNL     1      31.241 -23.787 -15.561  0.00  0.00    +0.023 C 
BRANCH  15  18
ATOM     18  C   UNL     1      32.561 -25.080 -13.854  0.00  0.00    +0.155 C 
BRANCH  18  19
ATOM     19  O   UNL     1      32.699 -24.972 -12.441  0.00  0.00    -0.380 OA
ATOM     20  H   UNL     1      33.574 -25.295 -12.176  0.00  0.00    +0.211 HD
ENDBRANCH  18  19
ENDBRANCH  15  18
ENDBRANCH   3  15
ENDBRANCH   2  10
BRANCH   2  22
ATOM     21  N   UNL     1      32.439 -20.933 -19.876  0.00  0.00    -0.241 NA
ATOM     22  C   UNL     1      34.661 -21.273 -18.985  0.00  0.00    +0.059 C 
ATOM     23  C   UNL     1      35.188 -20.427 -19.955  0.00  0.00    +0.021 C 
ATOM     24  C   UNL     1      33.293 -21.492 -18.989  0.00  0.00    +0.102 C 
ATOM     25  C   UNL     1      34.341 -19.833 -20.885  0.00  0.00    +0.070 C 
ATOM     26  C   UNL     1      32.987 -20.115 -20.803  0.00  0.00    +0.113 C 
BRANCH  25  28
ATOM     27  O   UNL     1      33.261 -19.160 -23.604  0.00  0.00    -0.274 OA
ATOM     28  N   UNL     1      34.840 -18.981 -21.868  0.00  0.00    -0.282 N 
ATOM     29  C   UNL     1      34.295 -18.696 -23.132  0.00  0.00    +0.232 C 
ATOM     30  H   UNL     1      35.681 -18.521 -21.649  0.00  0.00    +0.155 HD
BRANCH  29  31
ATOM     31  C   UNL     1      35.163 -17.707 -23.894  0.00  0.00    +0.131 C 
BRANCH  31  34
ATOM     32 CL   UNL     1      33.293 -12.073 -23.507  0.00  0.00    -0.081 Cl
ATOM     33  N   UNL     1      34.106 -15.735 -24.849  0.00  0.00    -0.247 NA
ATOM     34  C   UNL     1      34.701 -16.280 -23.764  0.00  0.00    +0.068 C 
ATOM     35  C   UNL     1      34.903 -15.606 -22.570  0.00  0.00    +0.016 C 
ATOM     36  C   UNL     1      34.464 -14.290 -22.483  0.00  0.00    +0.014 C 
ATOM     37  C   UNL     1      33.692 -14.454 -24.728  0.00  0.00    +0.110 C 
ATOM     38  C   UNL     1      33.847 -13.695 -23.578  0.00  0.00    +0.077 C 
ENDBRANCH  31  34
ENDBRANCH  29  31
ENDBRANCH  25  28
ENDBRANCH   2  22
TORSDOF 8
ENDMDL
MODEL 4
REMARK VINA RESULT:     -11.0      2.043      2.666
REMARK  Name = 66571548
REMARK  8 active torsions:
REMARK  status: ('A' for Active; 'I' for Inactive)
REMARK    1  A    between atoms: C_2  and  C_10
REMARK    2  A    between atoms: C_2  and  C_22
REMARK    3  A    between atoms: N_3  and  C_15
REMARK    4  A    between atoms: C_15  and  C_18
REMARK    5  A    between atoms: C_18  and  O_19
REMARK    6  A    between atoms: C_25  and  N_28
REMARK    7  A    between atoms: C_29  and  C_31
REMARK    8  A    between atoms: C_31  and  C_34
REMARK                            x       y       z     vdW  Elec       q    Type
REMARK                         _______ _______ _______ _____ _____    ______ ____
ROOT
ATOM      1  O   UNL     1      37.887 -21.041 -16.399  0.00  0.00    -0.286 OA
ATOM      2  C   UNL     1      36.919 -21.828 -16.478  0.00  0.00    +0.199 C 
ENDROOT
BRANCH   2  10
ATOM      3  N   UNL     1      37.071 -24.387 -13.937  0.00  0.00    -0.261 N 
ATOM      4  N   UNL     1      34.828 -24.815 -13.162  0.00  0.00    -0.322 NA
ATOM      5  N   UNL     1      33.158 -23.444 -14.284  0.00  0.00    -0.170 NA
ATOM      6  N   UNL     1      32.557 -24.993 -12.636  0.00  0.00    -0.293 N 
ATOM      7  C   UNL     1      35.718 -24.176 -13.941  0.00  0.00    +0.201 C 
ATOM      8  C   UNL     1      37.666 -23.560 -14.855  0.00  0.00    +0.071 C 
ATOM      9  C   UNL     1      35.441 -23.193 -14.884  0.00  0.00    +0.069 C 
ATOM     10  C   UNL     1      36.679 -22.809 -15.458  0.00  0.00    +0.059 C 
ATOM     11  C   UNL     1      34.102 -22.836 -15.039  0.00  0.00    +0.116 C 
ATOM     12  C   UNL     1      33.575 -24.382 -13.404  0.00  0.00    +0.143 C 
ATOM     13  H   UNL     1      32.788 -25.686 -11.975  0.00  0.00    +0.155 HD
ATOM     14  H   UNL     1      31.618 -24.726 -12.760  0.00  0.00    +0.155 HD
BRANCH   3  15
ATOM     15  C   UNL     1      37.822 -25.394 -13.045  0.00  0.00    +0.091 C 
ATOM     16  C   UNL     1      37.345 -26.856 -13.224  0.00  0.00    +0.023 C 
ATOM     17  C   UNL     1      39.325 -25.364 -13.406  0.00  0.00    +0.023 C 
BRANCH  15  18
ATOM     18  C   UNL     1      37.662 -25.013 -11.551  0.00  0.00    +0.155 C 
BRANCH  18  19
ATOM     19  O   UNL     1      36.685 -25.836 -10.923  0.00  0.00    -0.380 OA
ATOM     20  H   UNL     1      36.389 -26.519 -11.546  0.00  0.00    +0.211 HD
ENDBRANCH  18  19
ENDBRANCH  15  18
ENDBRANCH   3  15
ENDBRANCH   2  10
BRANCH   2  22
ATOM     21  N   UNL     1      34.039 -22.311 -18.885  0.00  0.00    -0.241 NA
ATOM     22  C   UNL     1      36.045 -21.677 -17.693  0.00  0.00    +0.059 C 
ATOM     23  C   UNL     1      36.393 -20.810 -18.724  0.00  0.00    +0.021 C 
ATOM     24  C   UNL     1      34.869 -22.399 -17.821  0.00  0.00    +0.102 C 
ATOM     25  C   UNL     1      35.564 -20.694 -19.835  0.00  0.00    +0.070 C 
ATOM     26  C   UNL     1      34.409 -21.458 -19.867  0.00  0.00    +0.113 C 
BRANCH  25  28
ATOM     27  O   UNL     1      33.824 -19.480 -21.960  0.00  0.00    -0.274 OA
ATOM     28  N   UNL     1      35.887 -19.834 -20.883  0.00  0.00    -0.282 N 
ATOM     29  C   UNL     1      35.032 -19.289 -21.858  0.00  0.00    +0.232 C 
ATOM     30  H   UNL     1      36.834 -19.577 -20.950  0.00  0.00    +0.155 HD
BRANCH  29  31
ATOM     31  C   UNL     1      35.797 -18.396 -22.822  0.00  0.00    +0.131 C 
BRANCH  31  34
ATOM     32 CL   UNL     1      33.323 -13.025 -23.469  0.00  0.00    -0.081 Cl
ATOM     33  N   UNL     1      35.174 -16.211 -21.954  0.00  0.00    -0.247 NA
ATOM     34  C   UNL     1      35.163 -17.044 -23.018  0.00  0.00    +0.068 C 
ATOM     35  C   UNL     1      34.611 -16.724 -24.248  0.00  0.00    +0.016 C 
ATOM     36  C   UNL     1      34.034 -15.468 -24.395  0.00  0.00    +0.014 C 
ATOM     37  C   UNL     1      34.604 -14.998 -22.134  0.00  0.00    +0.110 C 
ATOM     38  C   UNL     1      34.026 -14.582 -23.323  0.00  0.00    +0.077 C 
ENDBRANCH  31  34
ENDBRANCH  29  31
ENDBRANCH  25  28
ENDBRANCH   2  22
TORSDOF 8
ENDMDL
MODEL 5
REMARK VINA RESULT:     -10.9      8.647     16.760
REMARK  Name = 66571548
REMARK  8 active torsions:
REMARK  status: ('A' for Active; 'I' for Inactive)
REMARK    1  A    between atoms: C_2  and  C_10
REMARK    2  A    between atoms: C_2  and  C_22
REMARK    3  A    between atoms: N_3  and  C_15
REMARK    4  A    between atoms: C_15  and  C_18
REMARK    5  A    between atoms: C_18  and  O_19
REMARK    6  A    between atoms: C_25  and  N_28
REMARK    7  A    between atoms: C_29  and  C_31
REMARK    8  A    between atoms: C_31  and  C_34
REMARK                            x       y       z     vdW  Elec       q    Type
REMARK                         _______ _______ _______ _____ _____    ______ ____
ROOT
ATOM      1  O   UNL     1      35.454  -6.935 -22.095  0.00  0.00    -0.286 OA
ATOM      2  C   UNL     1      34.441  -7.004 -22.824  0.00  0.00    +0.199 C 
ENDROOT
BRANCH   2  10
ATOM      3  N   UNL     1      34.225  -4.510 -25.423  0.00  0.00    -0.261 N 
ATOM      4  N   UNL     1      32.211  -3.230 -25.076  0.00  0.00    -0.322 NA
ATOM      5  N   UNL     1      30.943  -3.963 -23.131  0.00  0.00    -0.170 NA
ATOM      6  N   UNL     1      30.208  -2.189 -24.468  0.00  0.00    -0.293 N 
ATOM      7  C   UNL     1      33.075  -4.206 -24.745  0.00  0.00    +0.201 C 
ATOM      8  C   UNL     1      34.856  -5.560 -24.807  0.00  0.00    +0.071 C 
ATOM      9  C   UNL     1      32.967  -5.081 -23.671  0.00  0.00    +0.069 C 
ATOM     10  C   UNL     1      34.098  -5.935 -23.717  0.00  0.00    +0.059 C 
ATOM     11  C   UNL     1      31.850  -4.929 -22.851  0.00  0.00    +0.116 C 
ATOM     12  C   UNL     1      31.178  -3.185 -24.212  0.00  0.00    +0.143 C 
ATOM     13  H   UNL     1      30.314  -1.586 -25.239  0.00  0.00    +0.155 HD
ATOM     14  H   UNL     1      29.426  -2.099 -23.878  0.00  0.00    +0.155 HD
BRANCH   3  15
ATOM     15  C   UNL     1      34.744  -3.790 -26.683  0.00  0.00    +0.091 C 
ATOM     16  C   UNL     1      34.899  -2.260 -26.503  0.00  0.00    +0.023 C 
ATOM     17  C   UNL     1      36.142  -4.345 -27.040  0.00  0.00    +0.023 C 
BRANCH  15  18
ATOM     18  C   UNL     1      33.790  -4.042 -27.878  0.00  0.00    +0.155 C 
BRANCH  18  19
ATOM     19  O   UNL     1      32.912  -2.936 -28.063  0.00  0.00    -0.380 OA
ATOM     20  H   UNL     1      33.433  -2.135 -28.231  0.00  0.00    +0.211 HD
ENDBRANCH  18  19
ENDBRANCH  15  18
ENDBRANCH   3  15
ENDBRANCH   2  10
BRANCH   2  22
ATOM     21  N   UNL     1      31.750  -9.415 -21.698  0.00  0.00    -0.241 NA
ATOM     22  C   UNL     1      33.625  -8.262 -22.698  0.00  0.00    +0.059 C 
ATOM     23  C   UNL     1      33.954  -9.405 -23.419  0.00  0.00    +0.021 C 
ATOM     24  C   UNL     1      32.525  -8.318 -21.858  0.00  0.00    +0.102 C 
ATOM     25  C   UNL     1      33.181 -10.553 -23.280  0.00  0.00    +0.070 C 
ATOM     26  C   UNL     1      32.100 -10.507 -22.416  0.00  0.00    +0.113 C 
BRANCH  25  28
ATOM     27  O   UNL     1      32.951 -13.438 -22.479  0.00  0.00    -0.274 OA
ATOM     28  N   UNL     1      33.486 -11.713 -23.989  0.00  0.00    -0.282 N 
ATOM     29  C   UNL     1      33.360 -13.049 -23.569  0.00  0.00    +0.232 C 
ATOM     30  H   UNL     1      33.835 -11.580 -24.899  0.00  0.00    +0.155 HD
BRANCH  29  31
ATOM     31  C   UNL     1      33.807 -14.012 -24.658  0.00  0.00    +0.131 C 
BRANCH  31  34
ATOM     32 CL   UNL     1      35.177 -19.464 -22.712  0.00  0.00    -0.081 Cl
ATOM     33  N   UNL     1      33.752 -16.435 -24.872  0.00  0.00    -0.247 NA
ATOM     34  C   UNL     1      34.170 -15.378 -24.139  0.00  0.00    +0.068 C 
ATOM     35  C   UNL     1      34.896 -15.488 -22.964  0.00  0.00    +0.016 C 
ATOM     36  C   UNL     1      35.215 -16.764 -22.512  0.00  0.00    +0.014 C 
ATOM     37  C   UNL     1      34.080 -17.659 -24.402  0.00  0.00    +0.110 C 
ATOM     38  C   UNL     1      34.802 -17.875 -23.238  0.00  0.00    +0.077 C 
ENDBRANCH  31  34
ENDBRANCH  29  31
ENDBRANCH  25  28
ENDBRANCH   2  22
TORSDOF 8
ENDMDL
MODEL 6
REMARK VINA RESULT:     -10.8      5.737     12.937
REMARK  Name = 66571548
REMARK  8 active torsions:
REMARK  status: ('A' for Active; 'I' for Inactive)
REMARK    1  A    between atoms: C_2  and  C_10
REMARK    2  A    between atoms: C_2  and  C_22
REMARK    3  A    between atoms: N_3  and  C_15
REMARK    4  A    between atoms: C_15  and  C_18
REMARK    5  A    between atoms: C_18  and  O_19
REMARK    6  A    between atoms: C_25  and  N_28
REMARK    7  A    between atoms: C_29  and  C_31
REMARK    8  A    between atoms: C_31  and  C_34
REMARK                            x       y       z     vdW  Elec       q    Type
REMARK                         _______ _______ _______ _____ _____    ______ ____
ROOT
ATOM      1  O   UNL     1      31.420 -12.711 -21.015  0.00  0.00    -0.286 OA
ATOM      2  C   UNL     1      32.328 -12.283 -21.760  0.00  0.00    +0.199 C 
ENDROOT
BRANCH   2  10
ATOM      3  N   UNL     1      33.371  -8.934 -22.609  0.00  0.00    -0.261 N 
ATOM      4  N   UNL     1      32.821  -7.481 -20.765  0.00  0.00    -0.322 NA
ATOM      5  N   UNL     1      31.756  -8.655 -18.916  0.00  0.00    -0.170 NA
ATOM      6  N   UNL     1      32.166  -6.353 -18.824  0.00  0.00    -0.293 N 
ATOM      7  C   UNL     1      32.857  -8.684 -21.364  0.00  0.00    +0.201 C 
ATOM      8  C   UNL     1      33.239 -10.267 -22.900  0.00  0.00    +0.071 C 
ATOM      9  C   UNL     1      32.387  -9.885 -20.847  0.00  0.00    +0.069 C 
ATOM     10  C   UNL     1      32.632 -10.882 -21.824  0.00  0.00    +0.059 C 
ATOM     11  C   UNL     1      31.822  -9.837 -19.573  0.00  0.00    +0.116 C 
ATOM     12  C   UNL     1      32.253  -7.566 -19.545  0.00  0.00    +0.143 C 
ATOM     13  H   UNL     1      32.508  -5.519 -19.222  0.00  0.00    +0.155 HD
ATOM     14  H   UNL     1      31.762  -6.341 -17.927  0.00  0.00    +0.155 HD
BRANCH   3  15
ATOM     15  C   UNL     1      34.004  -7.888 -23.548  0.00  0.00    +0.091 C 
ATOM     16  C   UNL     1      35.038  -6.973 -22.849  0.00  0.00    +0.023 C 
ATOM     17  C   UNL     1      34.748  -8.620 -24.688  0.00  0.00    +0.023 C 
BRANCH  15  18
ATOM     18  C   UNL     1      32.905  -6.989 -24.169  0.00  0.00    +0.155 C 
BRANCH  18  19
ATOM     19  O   UNL     1      32.726  -5.806 -23.397  0.00  0.00    -0.380 OA
ATOM     20  H   UNL     1      31.799  -5.741 -23.116  0.00  0.00    +0.211 HD
ENDBRANCH  18  19
ENDBRANCH  15  18
ENDBRANCH   3  15
ENDBRANCH   2  10
BRANCH   2  22
ATOM     21  N   UNL     1      33.624 -14.228 -24.736  0.00  0.00    -0.241 NA
ATOM     22  C   UNL     1      33.061 -13.319 -22.568  0.00  0.00    +0.059 C 
ATOM     23  C   UNL     1      33.826 -14.302 -21.948  0.00  0.00    +0.021 C 
ATOM     24  C   UNL     1      32.992 -13.326 -23.951  0.00  0.00    +0.102 C 
ATOM     25  C   UNL     1      34.491 -15.248 -22.722  0.00  0.00    +0.070 C 
ATOM     26  C   UNL     1      34.359 -15.168 -24.099  0.00  0.00    +0.113 C 
BRANCH  25  28
ATOM     27  O   UNL     1      34.704 -18.175 -23.354  0.00  0.00    -0.274 OA
ATOM     28  N   UNL     1      35.264 -16.244 -22.130  0.00  0.00    -0.282 N 
ATOM     29  C   UNL     1      35.331 -17.608 -22.463  0.00  0.00    +0.232 C 
ATOM     30  H   UNL     1      35.835 -15.956 -21.383  0.00  0.00    +0.155 HD
BRANCH  29  31
ATOM     31  C   UNL     1      36.306 -18.347 -21.560  0.00  0.00    +0.131 C 
BRANCH  31  34
ATOM     32 CL   UNL     1      33.848 -22.559 -18.154  0.00  0.00    -0.081 Cl
ATOM     33  N   UNL     1      36.473 -20.152 -19.938  0.00  0.00    -0.247 NA
ATOM     34  C   UNL     1      35.653 -19.405 -20.710  0.00  0.00    +0.068 C 
ATOM     35  C   UNL     1      34.277 -19.560 -20.756  0.00  0.00    +0.016 C 
ATOM     36  C   UNL     1      33.706 -20.545 -19.959  0.00  0.00    +0.014 C 
ATOM     37  C   UNL     1      35.883 -21.100 -19.176  0.00  0.00    +0.110 C 
ATOM     38  C   UNL     1      34.517 -21.335 -19.151  0.00  0.00    +0.077 C 
ENDBRANCH  31  34
ENDBRANCH  29  31
ENDBRANCH  25  28
ENDBRANCH   2  22
TORSDOF 8
ENDMDL
MODEL 7
REMARK VINA RESULT:     -10.5      4.029      6.926
REMARK  Name = 66571548
REMARK  8 active torsions:
REMARK  status: ('A' for Active; 'I' for Inactive)
REMARK    1  A    between atoms: C_2  and  C_10
REMARK    2  A    between atoms: C_2  and  C_22
REMARK    3  A    between atoms: N_3  and  C_15
REMARK    4  A    between atoms: C_15  and  C_18
REMARK    5  A    between atoms: C_18  and  O_19
REMARK    6  A    between atoms: C_25  and  N_28
REMARK    7  A    between atoms: C_29  and  C_31
REMARK    8  A    between atoms: C_31  and  C_34
REMARK                            x       y       z     vdW  Elec       q    Type
REMARK                         _______ _______ _______ _____ _____    ______ ____
ROOT
ATOM      1  O   UNL     1      38.283 -23.596 -14.241  0.00  0.00    -0.286 OA
ATOM      2  C   UNL     1      37.469 -24.545 -14.229  0.00  0.00    +0.199 C 
ENDROOT
BRANCH   2  10
ATOM      3  N   UNL     1      38.827 -27.869 -14.590  0.00  0.00    -0.261 N 
ATOM      4  N   UNL     1      38.491 -29.051 -12.515  0.00  0.00    -0.322 NA
ATOM      5  N   UNL     1      37.364 -27.705 -10.827  0.00  0.00    -0.170 NA
ATOM      6  N   UNL     1      38.017 -29.910 -10.393  0.00  0.00    -0.293 N 
ATOM      7  C   UNL     1      38.381 -27.964 -13.298  0.00  0.00    +0.201 C 
ATOM      8  C   UNL     1      38.550 -26.618 -15.079  0.00  0.00    +0.071 C 
ATOM      9  C   UNL     1      37.804 -26.747 -12.955  0.00  0.00    +0.069 C 
ATOM     10  C   UNL     1      37.915 -25.901 -14.087  0.00  0.00    +0.059 C 
ATOM     11  C   UNL     1      37.285 -26.644 -11.665  0.00  0.00    +0.116 C 
ATOM     12  C   UNL     1      37.955 -28.826 -11.299  0.00  0.00    +0.143 C 
ATOM     13  H   UNL     1      38.434 -30.759 -10.669  0.00  0.00    +0.155 HD
ATOM     14  H   UNL     1      37.645 -29.817  -9.487  0.00  0.00    +0.155 HD
BRANCH   3  15
ATOM     15  C   UNL     1      39.532 -28.987 -15.383  0.00  0.00    +0.091 C 
ATOM     16  C   UNL     1      40.443 -29.885 -14.511  0.00  0.00    +0.023 C 
ATOM     17  C   UNL     1      38.462 -29.908 -16.013  0.00  0.00    +0.023 C 
BRANCH  15  18
ATOM     18  C   UNL     1      40.395 -28.379 -16.518  0.00  0.00    +0.155 C 
BRANCH  18  19
ATOM     19  O   UNL     1      41.779 -28.466 -16.198  0.00  0.00    -0.380 OA
ATOM     20  H   UNL     1      42.213 -29.085 -16.806  0.00  0.00    +0.211 HD
ENDBRANCH  18  19
ENDBRANCH  15  18
ENDBRANCH   3  15
ENDBRANCH   2  10
BRANCH   2  22
ATOM     21  N   UNL     1      33.774 -24.224 -13.478  0.00  0.00    -0.241 NA
ATOM     22  C   UNL     1      36.019 -24.169 -14.373  0.00  0.00    +0.059 C 
ATOM     23  C   UNL     1      35.569 -23.452 -15.477  0.00  0.00    +0.021 C 
ATOM     24  C   UNL     1      35.090 -24.528 -13.410  0.00  0.00    +0.102 C 
ATOM     25  C   UNL     1      34.222 -23.121 -15.582  0.00  0.00    +0.070 C 
ATOM     26  C   UNL     1      33.374 -23.526 -14.565  0.00  0.00    +0.113 C 
BRANCH  25  28
ATOM     27  O   UNL     1      33.499 -24.047 -18.345  0.00  0.00    -0.274 OA
ATOM     28  N   UNL     1      33.743 -22.405 -16.676  0.00  0.00    -0.282 N 
ATOM     29  C   UNL     1      33.416 -22.885 -17.957  0.00  0.00    +0.232 C 
ATOM     30  H   UNL     1      33.617 -21.440 -16.535  0.00  0.00    +0.155 HD
BRANCH  29  31
ATOM     31  C   UNL     1      32.926 -21.762 -18.856  0.00  0.00    +0.131 C 
BRANCH  31  34
ATOM     32 CL   UNL     1      37.418 -18.727 -21.307  0.00  0.00    -0.081 Cl
ATOM     33  N   UNL     1      35.291 -21.220 -19.042  0.00  0.00    -0.247 NA
ATOM     34  C   UNL     1      34.041 -20.977 -19.497  0.00  0.00    +0.068 C 
ATOM     35  C   UNL     1      33.743 -20.065 -20.497  0.00  0.00    +0.016 C 
ATOM     36  C   UNL     1      34.796 -19.358 -21.068  0.00  0.00    +0.014 C 
ATOM     37  C   UNL     1      36.288 -20.514 -19.621  0.00  0.00    +0.110 C 
ATOM     38  C   UNL     1      36.095 -19.580 -20.626  0.00  0.00    +0.077 C 
ENDBRANCH  31  34
ENDBRANCH  29  31
ENDBRANCH  25  28
ENDBRANCH   2  22
TORSDOF 8
ENDMDL
MODEL 8
REMARK VINA RESULT:      -9.9      1.665      2.155
REMARK  Name = 66571548
REMARK  8 active torsions:
REMARK  status: ('A' for Active; 'I' for Inactive)
REMARK    1  A    between atoms: C_2  and  C_10
REMARK    2  A    between atoms: C_2  and  C_22
REMARK    3  A    between atoms: N_3  and  C_15
REMARK    4  A    between atoms: C_15  and  C_18
REMARK    5  A    between atoms: C_18  and  O_19
REMARK    6  A    between atoms: C_25  and  N_28
REMARK    7  A    between atoms: C_29  and  C_31
REMARK    8  A    between atoms: C_31  and  C_34
REMARK                            x       y       z     vdW  Elec       q    Type
REMARK                         _______ _______ _______ _____ _____    ______ ____
ROOT
ATOM      1  O   UNL     1      34.699 -22.584 -20.378  0.00  0.00    -0.286 OA
ATOM      2  C   UNL     1      35.147 -21.889 -19.441  0.00  0.00    +0.199 C 
ENDROOT
BRANCH   2  10
ATOM      3  N   UNL     1      35.513 -22.931 -16.006  0.00  0.00    -0.261 N 
ATOM      4  N   UNL     1      33.311 -23.187 -15.056  0.00  0.00    -0.322 NA
ATOM      5  N   UNL     1      31.530 -22.687 -16.639  0.00  0.00    -0.170 NA
ATOM      6  N   UNL     1      31.060 -23.343 -14.442  0.00  0.00    -0.293 N 
ATOM      7  C   UNL     1      34.145 -22.894 -16.068  0.00  0.00    +0.201 C 
ATOM      8  C   UNL     1      36.037 -22.570 -17.220  0.00  0.00    +0.071 C 
ATOM      9  C   UNL     1      33.787 -22.502 -17.353  0.00  0.00    +0.069 C 
ATOM     10  C   UNL     1      34.990 -22.299 -18.075  0.00  0.00    +0.059 C 
ATOM     11  C   UNL     1      32.421 -22.404 -17.618  0.00  0.00    +0.116 C 
ATOM     12  C   UNL     1      32.024 -23.055 -15.435  0.00  0.00    +0.143 C 
ATOM     13  H   UNL     1      31.349 -23.617 -13.541  0.00  0.00    +0.155 HD
ATOM     14  H   UNL     1      30.102 -23.267 -14.649  0.00  0.00    +0.155 HD
BRANCH   3  15
ATOM     15  C   UNL     1      36.346 -23.319 -14.768  0.00  0.00    +0.091 C 
ATOM     16  C   UNL     1      35.711 -22.872 -13.429  0.00  0.00    +0.023 C 
ATOM     17  C   UNL     1      36.479 -24.858 -14.712  0.00  0.00    +0.023 C 
BRANCH  15  18
ATOM     18  C   UNL     1      37.765 -22.701 -14.861  0.00  0.00    +0.155 C 
BRANCH  18  19
ATOM     19  O   UNL     1      38.749 -23.721 -15.004  0.00  0.00    -0.380 OA
ATOM     20  H   UNL     1      39.625 -23.314 -15.090  0.00  0.00    +0.211 HD
ENDBRANCH  18  19
ENDBRANCH  15  18
ENDBRANCH   3  15
ENDBRANCH   2  10
BRANCH   2  22
ATOM     21  N   UNL     1      37.542 -18.959 -19.368  0.00  0.00    -0.241 NA
ATOM     22  C   UNL     1      35.848 -20.619 -19.841  0.00  0.00    +0.059 C 
ATOM     23  C   UNL     1      35.487 -19.933 -20.996  0.00  0.00    +0.021 C 
ATOM     24  C   UNL     1      36.872 -20.095 -19.068  0.00  0.00    +0.102 C 
ATOM     25  C   UNL     1      36.153 -18.760 -21.338  0.00  0.00    +0.070 C 
ATOM     26  C   UNL     1      37.164 -18.320 -20.499  0.00  0.00    +0.113 C 
BRANCH  25  28
ATOM     27  O   UNL     1      33.662 -18.850 -23.011  0.00  0.00    -0.274 OA
ATOM     28  N   UNL     1      35.813 -18.051 -22.487  0.00  0.00    -0.282 N 
ATOM     29  C   UNL     1      34.628 -18.127 -23.240  0.00  0.00    +0.232 C 
ATOM     30  H   UNL     1      36.489 -17.417 -22.815  0.00  0.00    +0.155 HD
BRANCH  29  31
ATOM     31  C   UNL     1      34.668 -17.177 -24.426  0.00  0.00    +0.131 C 
BRANCH  31  34
ATOM     32 CL   UNL     1      33.333 -11.529 -23.119  0.00  0.00    -0.081 Cl
ATOM     33  N   UNL     1      33.772 -14.997 -25.030  0.00  0.00    -0.247 NA
ATOM     34  C   UNL     1      34.342 -15.752 -24.064  0.00  0.00    +0.068 C 
ATOM     35  C   UNL     1      34.635 -15.290 -22.791  0.00  0.00    +0.016 C 
ATOM     36  C   UNL     1      34.321 -13.970 -22.489  0.00  0.00    +0.014 C 
ATOM     37  C   UNL     1      33.481 -13.719 -24.700  0.00  0.00    +0.110 C 
ATOM     38  C   UNL     1      33.733 -13.162 -23.456  0.00  0.00    +0.077 C 
ENDBRANCH  31  34
ENDBRANCH  29  31
ENDBRANCH  25  28
ENDBRANCH   2  22
TORSDOF 8
ENDMDL
MODEL 9
REMARK VINA RESULT:      -9.9      2.456      3.769
REMARK  Name = 66571548
REMARK  8 active torsions:
REMARK  status: ('A' for Active; 'I' for Inactive)
REMARK    1  A    between atoms: C_2  and  C_10
REMARK    2  A    between atoms: C_2  and  C_22
REMARK    3  A    between atoms: N_3  and  C_15
REMARK    4  A    between atoms: C_15  and  C_18
REMARK    5  A    between atoms: C_18  and  O_19
REMARK    6  A    between atoms: C_25  and  N_28
REMARK    7  A    between atoms: C_29  and  C_31
REMARK    8  A    between atoms: C_31  and  C_34
REMARK                            x       y       z     vdW  Elec       q    Type
REMARK                         _______ _______ _______ _____ _____    ______ ____
ROOT
ATOM      1  O   UNL     1      33.445 -23.596 -18.758  0.00  0.00    -0.286 OA
ATOM      2  C   UNL     1      33.952 -23.057 -17.750  0.00  0.00    +0.199 C 
ENDROOT
BRANCH   2  10
ATOM      3  N   UNL     1      32.013 -23.588 -14.753  0.00  0.00    -0.261 N 
ATOM      4  N   UNL     1      33.520 -24.223 -12.981  0.00  0.00    -0.322 NA
ATOM      5  N   UNL     1      35.845 -24.319 -13.701  0.00  0.00    -0.170 NA
ATOM      6  N   UNL     1      35.229 -24.808 -11.496  0.00  0.00    -0.293 N 
ATOM      7  C   UNL     1      33.256 -23.867 -14.250  0.00  0.00    +0.201 C 
ATOM      8  C   UNL     1      32.118 -23.263 -16.081  0.00  0.00    +0.071 C 
ATOM      9  C   UNL     1      34.177 -23.715 -15.279  0.00  0.00    +0.069 C 
ATOM     10  C   UNL     1      33.450 -23.333 -16.434  0.00  0.00    +0.059 C 
ATOM     11  C   UNL     1      35.514 -23.956 -14.962  0.00  0.00    +0.116 C 
ATOM     12  C   UNL     1      34.840 -24.429 -12.801  0.00  0.00    +0.143 C 
ATOM     13  H   UNL     1      34.549 -24.908 -10.790  0.00  0.00    +0.155 HD
ATOM     14  H   UNL     1      36.177 -24.975 -11.293  0.00  0.00    +0.155 HD
BRANCH   3  15
ATOM     15  C   UNL     1      30.692 -23.629 -13.960  0.00  0.00    +0.091 C 
ATOM     16  C   UNL     1      30.862 -23.304 -12.456  0.00  0.00    +0.023 C 
ATOM     17  C   UNL     1      29.723 -22.573 -14.542  0.00  0.00    +0.023 C 
BRANCH  15  18
ATOM     18  C   UNL     1      30.035 -25.027 -14.082  0.00  0.00    +0.155 C 
BRANCH  18  19
ATOM     19  O   UNL     1      28.876 -24.968 -14.907  0.00  0.00    -0.380 OA
ATOM     20  H   UNL     1      28.312 -24.233 -14.619  0.00  0.00    +0.211 HD
ENDBRANCH  18  19
ENDBRANCH  15  18
ENDBRANCH   3  15
ENDBRANCH   2  10
BRANCH   2  22
ATOM     21  N   UNL     1      37.130 -21.074 -17.220  0.00  0.00    -0.241 NA
ATOM     22  C   UNL     1      35.100 -22.121 -18.011  0.00  0.00    +0.059 C 
ATOM     23  C   UNL     1      35.215 -21.446 -19.222  0.00  0.00    +0.021 C 
ATOM     24  C   UNL     1      36.074 -21.901 -17.051  0.00  0.00    +0.102 C 
ATOM     25  C   UNL     1      36.287 -20.585 -19.432  0.00  0.00    +0.070 C 
ATOM     26  C   UNL     1      37.209 -20.436 -18.409  0.00  0.00    +0.113 C 
BRANCH  25  28
ATOM     27  O   UNL     1      36.092 -17.648 -20.022  0.00  0.00    -0.274 OA
ATOM     28  N   UNL     1      36.428 -19.895 -20.634  0.00  0.00    -0.282 N 
ATOM     29  C   UNL     1      36.328 -18.512 -20.862  0.00  0.00    +0.232 C 
ATOM     30  H   UNL     1      36.622 -20.448 -21.425  0.00  0.00    +0.155 HD
BRANCH  29  31
ATOM     31  C   UNL     1      36.552 -18.178 -22.328  0.00  0.00    +0.131 C 
BRANCH  31  34
ATOM     32 CL   UNL     1      31.614 -18.715 -25.602  0.00  0.00    -0.081 Cl
ATOM     33  N   UNL     1      34.746 -19.508 -23.271  0.00  0.00    -0.247 NA
ATOM     34  C   UNL     1      35.303 -18.281 -23.164  0.00  0.00    +0.068 C 
ATOM     35  C   UNL     1      34.795 -17.143 -23.770  0.00  0.00    +0.016 C 
ATOM     36  C   UNL     1      33.641 -17.272 -24.534  0.00  0.00    +0.014 C 
ATOM     37  C   UNL     1      33.625 -19.595 -24.022  0.00  0.00    +0.110 C 
ATOM     38  C   UNL     1      33.038 -18.518 -24.668  0.00  0.00    +0.077 C 
ENDBRANCH  31  34
ENDBRANCH  29  31
ENDBRANCH  25  28
ENDBRANCH   2  22
TORSDOF 8
ENDMDL
