MODEL 1
REMARK VINA RESULT:     -11.9      0.000      0.000
REMARK  Name = 11961293
REMARK  7 active torsions:
REMARK  status: ('A' for Active; 'I' for Inactive)
REMARK    1  A    between atoms: C_1  and  C_3
REMARK    2  A    between atoms: C_1  and  N_21
REMARK    3  A    between atoms: N_2  and  C_9
REMARK    4  A    between atoms: C_9  and  C_12
REMARK    5  A    between atoms: C_17  and  O_18
REMARK    6  A    between atoms: C_22  and  C_26
REMARK    7  A    between atoms: C_30  and  C_35
REMARK                            x       y       z     vdW  Elec       q    Type
REMARK                         _______ _______ _______ _____ _____    ______ ____
ROOT
ATOM      1  C   UNL     1      33.797 -14.690 -24.341  0.00  0.00    +0.089 C 
ENDROOT
BRANCH   1   3
ATOM      2  N   UNL     1      35.129 -17.850 -21.715  0.00  0.00    +0.387 N 
ATOM      3  C   UNL     1      34.734 -15.635 -23.596  0.00  0.00    +0.015 C 
ATOM      4  C   UNL     1      35.325 -18.056 -23.156  0.00  0.00    -0.077 C 
ATOM      5  C   UNL     1      35.465 -16.474 -21.325  0.00  0.00    -0.077 C 
ATOM      6  C   UNL     1      34.458 -17.095 -23.973  0.00  0.00    -0.021 C 
ATOM      7  C   UNL     1      34.602 -15.460 -22.080  0.00  0.00    -0.021 C 
ATOM      8  H   UNL     1      34.142 -18.004 -21.506  0.00  0.00    -0.080 HD
BRANCH   2   9
ATOM      9  C   UNL     1      35.925 -18.809 -20.948  0.00  0.00    -0.077 C 
BRANCH   9  12
ATOM     10  O   UNL     1      31.945 -22.120 -17.480  0.00  0.00    -0.226 OA
ATOM     11  N   UNL     1      33.697 -21.927 -18.995  0.00  0.00    -0.246 N 
ATOM     12  C   UNL     1      35.145 -20.100 -20.715  0.00  0.00    -0.017 C 
ATOM     13  C   UNL     1      33.718 -19.798 -20.232  0.00  0.00    +0.020 C 
ATOM     14  C   UNL     1      35.869 -20.999 -19.699  0.00  0.00    +0.020 C 
ATOM     15  C   UNL     1      32.953 -21.083 -19.928  0.00  0.00    +0.097 C 
ATOM     16  C   UNL     1      35.064 -22.264 -19.406  0.00  0.00    +0.097 C 
ATOM     17  C   UNL     1      33.091 -22.399 -17.827  0.00  0.00    +0.405 C 
BRANCH  17  18
ATOM     18  O   UNL     1      33.913 -23.218 -17.100  0.00  0.00    -0.430 OA
ATOM     19  C   UNL     1      33.774 -23.148 -15.675  0.00  0.00    +0.257 C 
ENDBRANCH  17  18
ENDBRANCH   9  12
ENDBRANCH   2   9
ENDBRANCH   1   3
BRANCH   1  21
ATOM     20  O   UNL     1      34.220 -11.852 -24.242  0.00  0.00    -0.270 OA
ATOM     21  N   UNL     1      33.170 -13.749 -23.425  0.00  0.00    -0.301 N 
ATOM     22  C   UNL     1      33.444 -12.397 -23.461  0.00  0.00    +0.247 C 
ATOM     23  H   UNL     1      32.530 -14.088 -22.757  0.00  0.00    +0.150 HD
BRANCH  22  26
ATOM     24  N   UNL     1      32.145  -8.050 -21.942  0.00  0.00    -0.318 N 
ATOM     25  N   UNL     1      33.193  -9.297 -23.453  0.00  0.00    -0.318 N 
ATOM     26  C   UNL     1      32.743 -11.574 -22.442  0.00  0.00    +0.068 C 
ATOM     27  C   UNL     1      32.689 -10.181 -22.535  0.00  0.00    +0.063 C 
ATOM     28  C   UNL     1      32.102 -12.157 -21.345  0.00  0.00    +0.006 C 
ATOM     29  C   UNL     1      32.038  -9.379 -21.602  0.00  0.00    +0.059 C 
ATOM     30  C   UNL     1      32.843  -8.038 -23.056  0.00  0.00    +0.144 C 
ATOM     31  C   UNL     1      31.441 -11.377 -20.392  0.00  0.00    +0.001 C 
ATOM     32  C   UNL     1      31.400  -9.982 -20.505  0.00  0.00    +0.016 C 
ATOM     33  H   UNL     1      31.778  -7.276 -21.457  0.00  0.00    +0.148 HD
ATOM     34  H   UNL     1      33.715  -9.529 -24.256  0.00  0.00    +0.148 HD
BRANCH  30  35
ATOM     35  C   UNL     1      33.182  -6.787 -23.760  0.00  0.00    +0.037 C 
ATOM     36  C   UNL     1      32.225  -5.618 -23.423  0.00  0.00    +0.003 C 
ATOM     37  C   UNL     1      34.643  -6.332 -23.527  0.00  0.00    +0.003 C 
ENDBRANCH  30  35
ENDBRANCH  22  26
ENDBRANCH   1  21
TORSDOF 7
ENDMDL
MODEL 2
REMARK VINA RESULT:     -11.5      1.045      1.545
REMARK  Name = 11961293
REMARK  7 active torsions:
REMARK  status: ('A' for Active; 'I' for Inactive)
REMARK    1  A    between atoms: C_1  and  C_3
REMARK    2  A    between atoms: C_1  and  N_21
REMARK    3  A    between atoms: N_2  and  C_9
REMARK    4  A    between atoms: C_9  and  C_12
REMARK    5  A    between atoms: C_17  and  O_18
REMARK    6  A    between atoms: C_22  and  C_26
REMARK    7  A    between atoms: C_30  and  C_35
REMARK                            x       y       z     vdW  Elec       q    Type
REMARK                         _______ _______ _______ _____ _____    ______ ____
ROOT
ATOM      1  C   UNL     1      34.004 -15.221 -24.673  0.00  0.00    +0.089 C 
ENDROOT
BRANCH   1   3
ATOM      2  N   UNL     1      34.737 -18.804 -22.374  0.00  0.00    +0.387 N 
ATOM      3  C   UNL     1      34.699 -16.480 -24.162  0.00  0.00    +0.015 C 
ATOM      4  C   UNL     1      34.483 -18.976 -23.810  0.00  0.00    -0.077 C 
ATOM      5  C   UNL     1      35.625 -17.660 -22.126  0.00  0.00    -0.077 C 
ATOM      6  C   UNL     1      33.838 -17.724 -24.410  0.00  0.00    -0.021 C 
ATOM      7  C   UNL     1      35.019 -16.363 -22.668  0.00  0.00    -0.021 C 
ATOM      8  H   UNL     1      33.845 -18.614 -21.917  0.00  0.00    -0.080 HD
BRANCH   2   9
ATOM      9  C   UNL     1      35.305 -20.026 -21.805  0.00  0.00    -0.077 C 
BRANCH   9  12
ATOM     10  O   UNL     1      34.038 -23.809 -17.018  0.00  0.00    -0.226 OA
ATOM     11  N   UNL     1      33.792 -21.824 -18.203  0.00  0.00    -0.246 N 
ATOM     12  C   UNL     1      34.861 -20.208 -20.355  0.00  0.00    -0.017 C 
ATOM     13  C   UNL     1      35.704 -21.285 -19.656  0.00  0.00    +0.020 C 
ATOM     14  C   UNL     1      33.369 -20.573 -20.284  0.00  0.00    +0.020 C 
ATOM     15  C   UNL     1      35.223 -21.525 -18.228  0.00  0.00    +0.097 C 
ATOM     16  C   UNL     1      32.929 -20.826 -18.843  0.00  0.00    +0.097 C 
ATOM     17  C   UNL     1      33.318 -22.970 -17.557  0.00  0.00    +0.405 C 
BRANCH  17  18
ATOM     18  O   UNL     1      31.952 -23.064 -17.583  0.00  0.00    -0.430 OA
ATOM     19  C   UNL     1      31.299 -23.129 -16.309  0.00  0.00    +0.257 C 
ENDBRANCH  17  18
ENDBRANCH   9  12
ENDBRANCH   2   9
ENDBRANCH   1   3
BRANCH   1  21
ATOM     20  O   UNL     1      33.931 -12.360 -24.446  0.00  0.00    -0.270 OA
ATOM     21  N   UNL     1      33.445 -14.451 -23.573  0.00  0.00    -0.301 N 
ATOM     22  C   UNL     1      33.461 -13.071 -23.561  0.00  0.00    +0.247 C 
ATOM     23  H   UNL     1      33.043 -14.930 -22.812  0.00  0.00    +0.150 HD
BRANCH  22  26
ATOM     24  N   UNL     1      31.810  -9.105 -21.456  0.00  0.00    -0.318 N 
ATOM     25  N   UNL     1      32.692 -10.074 -23.251  0.00  0.00    -0.318 N 
ATOM     26  C   UNL     1      32.874 -12.434 -22.354  0.00  0.00    +0.068 C 
ATOM     27  C   UNL     1      32.564 -11.073 -22.321  0.00  0.00    +0.063 C 
ATOM     28  C   UNL     1      32.604 -13.170 -21.197  0.00  0.00    +0.006 C 
ATOM     29  C   UNL     1      32.010 -10.443 -21.210  0.00  0.00    +0.059 C 
ATOM     30  C   UNL     1      32.229  -8.918 -22.688  0.00  0.00    +0.144 C 
ATOM     31  C   UNL     1      32.049 -12.565 -20.066  0.00  0.00    +0.001 C 
ATOM     32  C   UNL     1      31.745 -11.198 -20.055  0.00  0.00    +0.016 C 
ATOM     33  H   UNL     1      31.434  -8.432 -20.844  0.00  0.00    +0.148 HD
ATOM     34  H   UNL     1      33.054 -10.172 -24.162  0.00  0.00    +0.148 HD
BRANCH  30  35
ATOM     35  C   UNL     1      32.184  -7.599 -23.344  0.00  0.00    +0.037 C 
ATOM     36  C   UNL     1      31.132  -6.645 -22.728  0.00  0.00    +0.003 C 
ATOM     37  C   UNL     1      33.558  -6.886 -23.379  0.00  0.00    +0.003 C 
ENDBRANCH  30  35
ENDBRANCH  22  26
ENDBRANCH   1  21
TORSDOF 7
ENDMDL
MODEL 3
REMARK VINA RESULT:     -11.2      1.334      2.404
REMARK  Name = 11961293
REMARK  7 active torsions:
REMARK  status: ('A' for Active; 'I' for Inactive)
REMARK    1  A    between atoms: C_1  and  C_3
REMARK    2  A    between atoms: C_1  and  N_21
REMARK    3  A    between atoms: N_2  and  C_9
REMARK    4  A    between atoms: C_9  and  C_12
REMARK    5  A    between atoms: C_17  and  O_18
REMARK    6  A    between atoms: C_22  and  C_26
REMARK    7  A    between atoms: C_30  and  C_35
REMARK                            x       y       z     vdW  Elec       q    Type
REMARK                         _______ _______ _______ _____ _____    ______ ____
ROOT
ATOM      1  C   UNL     1      33.640 -15.052 -24.687  0.00  0.00    +0.089 C 
ENDROOT
BRANCH   1   3
ATOM      2  N   UNL     1      35.112 -17.836 -21.731  0.00  0.00    +0.387 N 
ATOM      3  C   UNL     1      34.617 -15.884 -23.862  0.00  0.00    +0.015 C 
ATOM      4  C   UNL     1      35.263 -18.221 -23.140  0.00  0.00    -0.077 C 
ATOM      5  C   UNL     1      35.438 -16.418 -21.531  0.00  0.00    -0.077 C 
ATOM      6  C   UNL     1      34.353 -17.383 -24.041  0.00  0.00    -0.021 C 
ATOM      7  C   UNL     1      34.533 -15.519 -22.377  0.00  0.00    -0.021 C 
ATOM      8  H   UNL     1      34.135 -17.974 -21.469  0.00  0.00    -0.080 HD
BRANCH   2   9
ATOM      9  C   UNL     1      35.949 -18.679 -20.877  0.00  0.00    -0.077 C 
BRANCH   9  12
ATOM     10  O   UNL     1      32.053 -22.265 -17.591  0.00  0.00    -0.226 OA
ATOM     11  N   UNL     1      33.902 -21.942 -18.962  0.00  0.00    -0.246 N 
ATOM     12  C   UNL     1      35.294 -20.038 -20.644  0.00  0.00    -0.017 C 
ATOM     13  C   UNL     1      33.805 -19.876 -20.299  0.00  0.00    +0.020 C 
ATOM     14  C   UNL     1      36.017 -20.809 -19.528  0.00  0.00    +0.020 C 
ATOM     15  C   UNL     1      33.158 -21.225 -19.996  0.00  0.00    +0.097 C 
ATOM     16  C   UNL     1      35.329 -22.142 -19.239  0.00  0.00    +0.097 C 
ATOM     17  C   UNL     1      33.249 -22.430 -17.827  0.00  0.00    +0.405 C 
BRANCH  17  18
ATOM     18  O   UNL     1      34.086 -23.122 -16.992  0.00  0.00    -0.430 OA
ATOM     19  C   UNL     1      33.649 -23.264 -15.635  0.00  0.00    +0.257 C 
ENDBRANCH  17  18
ENDBRANCH   9  12
ENDBRANCH   2   9
ENDBRANCH   1   3
BRANCH   1  21
ATOM     20  O   UNL     1      32.480 -12.992 -23.059  0.00  0.00    -0.270 OA
ATOM     21  N   UNL     1      34.011 -13.646 -24.671  0.00  0.00    -0.301 N 
ATOM     22  C   UNL     1      33.387 -12.732 -23.846  0.00  0.00    +0.247 C 
ATOM     23  H   UNL     1      34.731 -13.335 -25.268  0.00  0.00    +0.150 HD
BRANCH  22  26
ATOM     24  N   UNL     1      33.309  -8.256 -22.159  0.00  0.00    -0.318 N 
ATOM     25  N   UNL     1      32.604 -10.357 -21.998  0.00  0.00    -0.318 N 
ATOM     26  C   UNL     1      33.862 -11.330 -23.966  0.00  0.00    +0.068 C 
ATOM     27  C   UNL     1      33.448 -10.336 -23.078  0.00  0.00    +0.063 C 
ATOM     28  C   UNL     1      34.751 -10.943 -24.974  0.00  0.00    +0.006 C 
ATOM     29  C   UNL     1      33.876  -9.013 -23.158  0.00  0.00    +0.059 C 
ATOM     30  C   UNL     1      32.553  -9.092 -21.483  0.00  0.00    +0.144 C 
ATOM     31  C   UNL     1      35.197  -9.623 -25.080  0.00  0.00    +0.001 C 
ATOM     32  C   UNL     1      34.768  -8.642 -24.178  0.00  0.00    +0.016 C 
ATOM     33  H   UNL     1      33.441  -7.295 -21.988  0.00  0.00    +0.148 HD
ATOM     34  H   UNL     1      32.121 -11.144 -21.654  0.00  0.00    +0.148 HD
BRANCH  30  35
ATOM     35  C   UNL     1      31.763  -8.670 -20.312  0.00  0.00    +0.037 C 
ATOM     36  C   UNL     1      31.536  -9.806 -19.286  0.00  0.00    +0.003 C 
ATOM     37  C   UNL     1      32.357  -7.438 -19.585  0.00  0.00    +0.003 C 
ENDBRANCH  30  35
ENDBRANCH  22  26
ENDBRANCH   1  21
TORSDOF 7
ENDMDL
MODEL 4
REMARK VINA RESULT:     -10.6      2.778     12.440
REMARK  Name = 11961293
REMARK  7 active torsions:
REMARK  status: ('A' for Active; 'I' for Inactive)
REMARK    1  A    between atoms: C_1  and  C_3
REMARK    2  A    between atoms: C_1  and  N_21
REMARK    3  A    between atoms: N_2  and  C_9
REMARK    4  A    between atoms: C_9  and  C_12
REMARK    5  A    between atoms: C_17  and  O_18
REMARK    6  A    between atoms: C_22  and  C_26
REMARK    7  A    between atoms: C_30  and  C_35
REMARK                            x       y       z     vdW  Elec       q    Type
REMARK                         _______ _______ _______ _____ _____    ______ ____
ROOT
ATOM      1  C   UNL     1      34.857 -22.028 -19.260  0.00  0.00    +0.089 C 
ENDROOT
BRANCH   1   3
ATOM      2  N   UNL     1      35.946 -18.566 -21.601  0.00  0.00    +0.387 N 
ATOM      3  C   UNL     1      35.155 -20.575 -19.618  0.00  0.00    +0.015 C 
ATOM      4  C   UNL     1      34.555 -18.645 -21.139  0.00  0.00    -0.077 C 
ATOM      5  C   UNL     1      36.880 -18.976 -20.544  0.00  0.00    -0.077 C 
ATOM      6  C   UNL     1      34.198 -20.068 -20.703  0.00  0.00    -0.021 C 
ATOM      7  C   UNL     1      36.604 -20.410 -20.089  0.00  0.00    -0.021 C 
ATOM      8  H   UNL     1      36.055 -19.211 -22.384  0.00  0.00    -0.080 HD
BRANCH   2   9
ATOM      9  C   UNL     1      36.256 -17.213 -22.062  0.00  0.00    -0.077 C 
BRANCH   9  12
ATOM     10  O   UNL     1      33.483 -13.070 -25.801  0.00  0.00    -0.226 OA
ATOM     11  N   UNL     1      33.646 -14.284 -23.826  0.00  0.00    -0.246 N 
ATOM     12  C   UNL     1      34.990 -16.486 -22.508  0.00  0.00    -0.017 C 
ATOM     13  C   UNL     1      34.936 -16.370 -24.040  0.00  0.00    +0.020 C 
ATOM     14  C   UNL     1      34.908 -15.091 -21.868  0.00  0.00    +0.020 C 
ATOM     15  C   UNL     1      33.709 -15.584 -24.492  0.00  0.00    +0.097 C 
ATOM     16  C   UNL     1      33.680 -14.327 -22.360  0.00  0.00    +0.097 C 
ATOM     17  C   UNL     1      33.513 -13.110 -24.573  0.00  0.00    +0.405 C 
BRANCH  17  18
ATOM     18  O   UNL     1      33.414 -11.993 -23.786  0.00  0.00    -0.430 OA
ATOM     19  C   UNL     1      34.139 -10.840 -24.233  0.00  0.00    +0.257 C 
ENDBRANCH  17  18
ENDBRANCH   9  12
ENDBRANCH   2   9
ENDBRANCH   1   3
BRANCH   1  21
ATOM     20  O   UNL     1      33.437 -24.317 -18.265  0.00  0.00    -0.270 OA
ATOM     21  N   UNL     1      34.113 -22.115 -18.013  0.00  0.00    -0.301 N 
ATOM     22  C   UNL     1      33.462 -23.269 -17.625  0.00  0.00    +0.247 C 
ATOM     23  H   UNL     1      34.072 -21.325 -17.426  0.00  0.00    +0.150 HD
BRANCH  22  26
ATOM     24  N   UNL     1      33.559 -23.650 -12.857  0.00  0.00    -0.318 N 
ATOM     25  N   UNL     1      34.643 -23.771 -14.793  0.00  0.00    -0.318 N 
ATOM     26  C   UNL     1      32.726 -23.188 -16.338  0.00  0.00    +0.068 C 
ATOM     27  C   UNL     1      33.355 -23.432 -15.116  0.00  0.00    +0.063 C 
ATOM     28  C   UNL     1      31.367 -22.859 -16.291  0.00  0.00    +0.006 C 
ATOM     29  C   UNL     1      32.698 -23.361 -13.890  0.00  0.00    +0.059 C 
ATOM     30  C   UNL     1      34.715 -23.890 -13.433  0.00  0.00    +0.144 C 
ATOM     31  C   UNL     1      30.681 -22.781 -15.077  0.00  0.00    +0.001 C 
ATOM     32  C   UNL     1      31.333 -23.030 -13.863  0.00  0.00    +0.016 C 
ATOM     33  H   UNL     1      33.354 -23.671 -11.894  0.00  0.00    +0.148 HD
ATOM     34  H   UNL     1      35.384 -23.906 -15.428  0.00  0.00    +0.148 HD
BRANCH  30  35
ATOM     35  C   UNL     1      35.922 -24.242 -12.662  0.00  0.00    +0.037 C 
ATOM     36  C   UNL     1      37.078 -23.227 -12.840  0.00  0.00    +0.003 C 
ATOM     37  C   UNL     1      35.646 -24.439 -11.152  0.00  0.00    +0.003 C 
ENDBRANCH  30  35
ENDBRANCH  22  26
ENDBRANCH   1  21
TORSDOF 7
ENDMDL
MODEL 5
REMARK VINA RESULT:     -10.5      3.756      7.140
REMARK  Name = 11961293
REMARK  7 active torsions:
REMARK  status: ('A' for Active; 'I' for Inactive)
REMARK    1  A    between atoms: C_1  and  C_3
REMARK    2  A    between atoms: C_1  and  N_21
REMARK    3  A    between atoms: N_2  and  C_9
REMARK    4  A    between atoms: C_9  and  C_12
REMARK    5  A    between atoms: C_17  and  O_18
REMARK    6  A    between atoms: C_22  and  C_26
REMARK    7  A    between atoms: C_30  and  C_35
REMARK                            x       y       z     vdW  Elec       q    Type
REMARK                         _______ _______ _______ _____ _____    ______ ____
ROOT
ATOM      1  C   UNL     1      37.113 -20.045 -19.493  0.00  0.00    +0.089 C 
ENDROOT
BRANCH   1   3
ATOM      2  N   UNL     1      34.718 -22.446 -16.819  0.00  0.00    +0.387 N 
ATOM      3  C   UNL     1      36.516 -21.276 -18.817  0.00  0.00    +0.015 C 
ATOM      4  C   UNL     1      34.377 -22.500 -18.246  0.00  0.00    -0.077 C 
ATOM      5  C   UNL     1      36.173 -22.478 -16.619  0.00  0.00    -0.077 C 
ATOM      6  C   UNL     1      34.996 -21.324 -19.006  0.00  0.00    -0.021 C 
ATOM      7  C   UNL     1      36.852 -21.300 -17.323  0.00  0.00    -0.021 C 
ATOM      8  H   UNL     1      34.369 -21.564 -16.444  0.00  0.00    -0.080 HD
BRANCH   2   9
ATOM      9  C   UNL     1      34.078 -23.547 -16.097  0.00  0.00    -0.077 C 
BRANCH   9  12
ATOM     10  O   UNL     1      28.312 -24.950 -14.197  0.00  0.00    -0.226 OA
ATOM     11  N   UNL     1      29.918 -23.478 -15.007  0.00  0.00    -0.246 N 
ATOM     12  C   UNL     1      32.749 -23.102 -15.493  0.00  0.00    -0.017 C 
ATOM     13  C   UNL     1      32.232 -24.139 -14.484  0.00  0.00    +0.020 C 
ATOM     14  C   UNL     1      31.702 -22.865 -16.593  0.00  0.00    +0.020 C 
ATOM     15  C   UNL     1      30.869 -23.737 -13.927  0.00  0.00    +0.097 C 
ATOM     16  C   UNL     1      30.347 -22.485 -15.998  0.00  0.00    +0.097 C 
ATOM     17  C   UNL     1      28.676 -24.118 -15.026  0.00  0.00    +0.405 C 
BRANCH  17  18
ATOM     18  O   UNL     1      27.892 -23.717 -16.076  0.00  0.00    -0.430 OA
ATOM     19  C   UNL     1      27.097 -22.545 -15.859  0.00  0.00    +0.257 C 
ENDBRANCH  17  18
ENDBRANCH   9  12
ENDBRANCH   2   9
ENDBRANCH   1   3
BRANCH   1  21
ATOM     20  O   UNL     1      35.991 -17.509 -20.233  0.00  0.00    -0.270 OA
ATOM     21  N   UNL     1      36.406 -19.735 -20.726  0.00  0.00    -0.301 N 
ATOM     22  C   UNL     1      35.903 -18.475 -20.986  0.00  0.00    +0.247 C 
ATOM     23  H   UNL     1      36.283 -20.445 -21.397  0.00  0.00    +0.150 HD
BRANCH  22  26
ATOM     24  N   UNL     1      33.814 -15.571 -24.162  0.00  0.00    -0.318 N 
ATOM     25  N   UNL     1      34.886 -15.813 -22.230  0.00  0.00    -0.318 N 
ATOM     26  C   UNL     1      35.184 -18.326 -22.277  0.00  0.00    +0.068 C 
ATOM     27  C   UNL     1      34.771 -17.078 -22.747  0.00  0.00    +0.063 C 
ATOM     28  C   UNL     1      34.891 -19.431 -23.083  0.00  0.00    +0.006 C 
ATOM     29  C   UNL     1      34.099 -16.900 -23.953  0.00  0.00    +0.059 C 
ATOM     30  C   UNL     1      34.300 -14.948 -23.111  0.00  0.00    +0.144 C 
ATOM     31  C   UNL     1      34.218 -19.283 -24.299  0.00  0.00    +0.001 C 
ATOM     32  C   UNL     1      33.812 -18.021 -24.750  0.00  0.00    +0.016 C 
ATOM     33  H   UNL     1      33.348 -15.171 -24.932  0.00  0.00    +0.148 HD
ATOM     34  H   UNL     1      35.315 -15.572 -21.377  0.00  0.00    +0.148 HD
BRANCH  30  35
ATOM     35  C   UNL     1      34.203 -13.486 -22.946  0.00  0.00    +0.037 C 
ATOM     36  C   UNL     1      33.825 -12.748 -24.253  0.00  0.00    +0.003 C 
ATOM     37  C   UNL     1      33.227 -13.062 -21.821  0.00  0.00    +0.003 C 
ENDBRANCH  30  35
ENDBRANCH  22  26
ENDBRANCH   1  21
TORSDOF 7
ENDMDL
MODEL 6
REMARK VINA RESULT:     -10.4      1.266      2.134
REMARK  Name = 11961293
REMARK  7 active torsions:
REMARK  status: ('A' for Active; 'I' for Inactive)
REMARK    1  A    between atoms: C_1  and  C_3
REMARK    2  A    between atoms: C_1  and  N_21
REMARK    3  A    between atoms: N_2  and  C_9
REMARK    4  A    between atoms: C_9  and  C_12
REMARK    5  A    between atoms: C_17  and  O_18
REMARK    6  A    between atoms: C_22  and  C_26
REMARK    7  A    between atoms: C_30  and  C_35
REMARK                            x       y       z     vdW  Elec       q    Type
REMARK                         _______ _______ _______ _____ _____    ______ ____
ROOT
ATOM      1  C   UNL     1      33.579 -13.318 -23.995  0.00  0.00    +0.089 C 
ENDROOT
BRANCH   1   3
ATOM      2  N   UNL     1      35.404 -17.194 -23.438  0.00  0.00    +0.387 N 
ATOM      3  C   UNL     1      33.754 -14.773 -23.569  0.00  0.00    +0.015 C 
ATOM      4  C   UNL     1      35.166 -16.391 -22.231  0.00  0.00    -0.077 C 
ATOM      5  C   UNL     1      34.259 -17.122 -24.356  0.00  0.00    -0.077 C 
ATOM      6  C   UNL     1      34.921 -14.922 -22.585  0.00  0.00    -0.021 C 
ATOM      7  C   UNL     1      33.984 -15.679 -24.783  0.00  0.00    -0.021 C 
ATOM      8  H   UNL     1      36.217 -16.808 -23.918  0.00  0.00    -0.080 HD
BRANCH   2   9
ATOM      9  C   UNL     1      35.688 -18.584 -23.081  0.00  0.00    -0.077 C 
BRANCH   9  12
ATOM     10  O   UNL     1      35.569 -22.469 -18.210  0.00  0.00    -0.226 OA
ATOM     11  N   UNL     1      34.737 -20.690 -19.453  0.00  0.00    -0.246 N 
ATOM     12  C   UNL     1      35.291 -18.865 -21.633  0.00  0.00    -0.017 C 
ATOM     13  C   UNL     1      36.415 -19.607 -20.893  0.00  0.00    +0.020 C 
ATOM     14  C   UNL     1      33.989 -19.680 -21.573  0.00  0.00    +0.020 C 
ATOM     15  C   UNL     1      36.001 -19.955 -19.466  0.00  0.00    +0.097 C 
ATOM     16  C   UNL     1      33.619 -20.028 -20.133  0.00  0.00    +0.097 C 
ATOM     17  C   UNL     1      34.634 -21.912 -18.782  0.00  0.00    +0.405 C 
BRANCH  17  18
ATOM     18  O   UNL     1      33.368 -22.432 -18.825  0.00  0.00    -0.430 OA
ATOM     19  C   UNL     1      32.789 -22.790 -17.564  0.00  0.00    +0.257 C 
ENDBRANCH  17  18
ENDBRANCH   9  12
ENDBRANCH   2   9
ENDBRANCH   1   3
BRANCH   1  21
ATOM     20  O   UNL     1      33.170 -10.477 -24.006  0.00  0.00    -0.270 OA
ATOM     21  N   UNL     1      33.115 -12.503 -22.883  0.00  0.00    -0.301 N 
ATOM     22  C   UNL     1      32.950 -11.137 -22.994  0.00  0.00    +0.247 C 
ATOM     23  H   UNL     1      32.910 -12.940 -22.024  0.00  0.00    +0.150 HD
BRANCH  22  26
ATOM     24  N   UNL     1      32.213  -7.011 -20.687  0.00  0.00    -0.318 N 
ATOM     25  N   UNL     1      32.897  -8.064 -22.521  0.00  0.00    -0.318 N 
ATOM     26  C   UNL     1      32.494 -10.444 -21.761  0.00  0.00    +0.068 C 
ATOM     27  C   UNL     1      32.510  -9.053 -21.653  0.00  0.00    +0.063 C 
ATOM     28  C   UNL     1      32.023 -11.156 -20.653  0.00  0.00    +0.006 C 
ATOM     29  C   UNL     1      32.086  -8.370 -20.516  0.00  0.00    +0.059 C 
ATOM     30  C   UNL     1      32.701  -6.863 -21.899  0.00  0.00    +0.144 C 
ATOM     31  C   UNL     1      31.592 -10.499 -19.499  0.00  0.00    +0.001 C 
ATOM     32  C   UNL     1      31.617  -9.101 -19.412  0.00  0.00    +0.016 C 
ATOM     33  H   UNL     1      31.987  -6.302 -20.043  0.00  0.00    +0.148 HD
ATOM     34  H   UNL     1      33.253  -8.196 -23.430  0.00  0.00    +0.148 HD
BRANCH  30  35
ATOM     35  C   UNL     1      32.986  -5.537 -22.477  0.00  0.00    +0.037 C 
ATOM     36  C   UNL     1      33.011  -5.538 -24.025  0.00  0.00    +0.003 C 
ATOM     37  C   UNL     1      32.018  -4.434 -21.984  0.00  0.00    +0.003 C 
ENDBRANCH  30  35
ENDBRANCH  22  26
ENDBRANCH   1  21
TORSDOF 7
ENDMDL
MODEL 7
REMARK VINA RESULT:     -10.4      2.686     12.363
REMARK  Name = 11961293
REMARK  7 active torsions:
REMARK  status: ('A' for Active; 'I' for Inactive)
REMARK    1  A    between atoms: C_1  and  C_3
REMARK    2  A    between atoms: C_1  and  N_21
REMARK    3  A    between atoms: N_2  and  C_9
REMARK    4  A    between atoms: C_9  and  C_12
REMARK    5  A    between atoms: C_17  and  O_18
REMARK    6  A    between atoms: C_22  and  C_26
REMARK    7  A    between atoms: C_30  and  C_35
REMARK                            x       y       z     vdW  Elec       q    Type
REMARK                         _______ _______ _______ _____ _____    ______ ____
ROOT
ATOM      1  C   UNL     1      36.744 -21.110 -19.104  0.00  0.00    +0.089 C 
ENDROOT
BRANCH   1   3
ATOM      2  N   UNL     1      35.335 -17.973 -21.718  0.00  0.00    +0.387 N 
ATOM      3  C   UNL     1      36.330 -20.386 -20.382  0.00  0.00    +0.015 C 
ATOM      4  C   UNL     1      36.742 -18.371 -21.855  0.00  0.00    -0.077 C 
ATOM      5  C   UNL     1      34.466 -19.146 -21.556  0.00  0.00    -0.077 C 
ATOM      6  C   UNL     1      37.214 -19.159 -20.631  0.00  0.00    -0.021 C 
ATOM      7  C   UNL     1      34.860 -19.960 -20.321  0.00  0.00    -0.021 C 
ATOM      8  H   UNL     1      35.250 -17.401 -20.878  0.00  0.00    -0.080 HD
BRANCH   2   9
ATOM      9  C   UNL     1      34.913 -17.178 -22.871  0.00  0.00    -0.077 C 
BRANCH   9  12
ATOM     10  O   UNL     1      32.225 -12.424 -19.871  0.00  0.00    -0.226 OA
ATOM     11  N   UNL     1      33.502 -13.321 -21.593  0.00  0.00    -0.246 N 
ATOM     12  C   UNL     1      34.881 -15.692 -22.525  0.00  0.00    -0.017 C 
ATOM     13  C   UNL     1      34.545 -15.482 -21.041  0.00  0.00    +0.020 C 
ATOM     14  C   UNL     1      33.868 -14.947 -23.409  0.00  0.00    +0.020 C 
ATOM     15  C   UNL     1      34.443 -13.998 -20.701  0.00  0.00    +0.097 C 
ATOM     16  C   UNL     1      33.777 -13.471 -23.026  0.00  0.00    +0.097 C 
ATOM     17  C   UNL     1      32.458 -12.553 -21.071  0.00  0.00    +0.405 C 
BRANCH  17  18
ATOM     18  O   UNL     1      31.710 -11.947 -22.047  0.00  0.00    -0.430 OA
ATOM     19  C   UNL     1      31.112 -10.693 -21.696  0.00  0.00    +0.257 C 
ENDBRANCH  17  18
ENDBRANCH   9  12
ENDBRANCH   2   9
ENDBRANCH   1   3
BRANCH   1  21
ATOM     20  O   UNL     1      36.739 -22.443 -16.561  0.00  0.00    -0.270 OA
ATOM     21  N   UNL     1      35.580 -21.595 -18.380  0.00  0.00    -0.301 N 
ATOM     22  C   UNL     1      35.687 -22.227 -17.157  0.00  0.00    +0.247 C 
ATOM     23  H   UNL     1      34.686 -21.469 -18.775  0.00  0.00    +0.150 HD
BRANCH  22  26
ATOM     24  N   UNL     1      33.432 -24.294 -13.479  0.00  0.00    -0.318 N 
ATOM     25  N   UNL     1      35.337 -23.604 -14.391  0.00  0.00    -0.318 N 
ATOM     26  C   UNL     1      34.407 -22.686 -16.559  0.00  0.00    +0.068 C 
ATOM     27  C   UNL     1      34.361 -23.295 -15.303  0.00  0.00    +0.063 C 
ATOM     28  C   UNL     1      33.188 -22.527 -17.226  0.00  0.00    +0.006 C 
ATOM     29  C   UNL     1      33.181 -23.735 -14.711  0.00  0.00    +0.059 C 
ATOM     30  C   UNL     1      34.733 -24.199 -13.319  0.00  0.00    +0.144 C 
ATOM     31  C   UNL     1      31.988 -22.959 -16.657  0.00  0.00    +0.001 C 
ATOM     32  C   UNL     1      31.966 -23.567 -15.396  0.00  0.00    +0.016 C 
ATOM     33  H   UNL     1      32.778 -24.681 -12.852  0.00  0.00    +0.148 HD
ATOM     34  H   UNL     1      36.301 -23.429 -14.491  0.00  0.00    +0.148 HD
BRANCH  30  35
ATOM     35  C   UNL     1      35.416 -24.689 -12.108  0.00  0.00    +0.037 C 
ATOM     36  C   UNL     1      36.635 -25.593 -12.418  0.00  0.00    +0.003 C 
ATOM     37  C   UNL     1      35.855 -23.553 -11.152  0.00  0.00    +0.003 C 
ENDBRANCH  30  35
ENDBRANCH  22  26
ENDBRANCH   1  21
TORSDOF 7
ENDMDL
MODEL 8
REMARK VINA RESULT:     -10.3      2.609      4.612
REMARK  Name = 11961293
REMARK  7 active torsions:
REMARK  status: ('A' for Active; 'I' for Inactive)
REMARK    1  A    between atoms: C_1  and  C_3
REMARK    2  A    between atoms: C_1  and  N_21
REMARK    3  A    between atoms: N_2  and  C_9
REMARK    4  A    between atoms: C_9  and  C_12
REMARK    5  A    between atoms: C_17  and  O_18
REMARK    6  A    between atoms: C_22  and  C_26
REMARK    7  A    between atoms: C_30  and  C_35
REMARK                            x       y       z     vdW  Elec       q    Type
REMARK                         _______ _______ _______ _____ _____    ______ ____
ROOT
ATOM      1  C   UNL     1      36.180 -18.079 -21.522  0.00  0.00    +0.089 C 
ENDROOT
BRANCH   1   3
ATOM      2  N   UNL     1      34.297 -21.171 -19.166  0.00  0.00    +0.387 N 
ATOM      3  C   UNL     1      35.558 -19.423 -21.154  0.00  0.00    +0.015 C 
ATOM      4  C   UNL     1      33.500 -20.581 -20.248  0.00  0.00    -0.077 C 
ATOM      5  C   UNL     1      35.681 -21.412 -19.598  0.00  0.00    -0.077 C 
ATOM      6  C   UNL     1      34.099 -19.252 -20.715  0.00  0.00    -0.021 C 
ATOM      7  C   UNL     1      36.355 -20.111 -20.041  0.00  0.00    -0.021 C 
ATOM      8  H   UNL     1      34.321 -20.505 -18.393  0.00  0.00    -0.080 HD
BRANCH   2   9
ATOM      9  C   UNL     1      33.684 -22.413 -18.695  0.00  0.00    -0.077 C 
BRANCH   9  12
ATOM     10  O   UNL     1      32.428 -25.181 -13.256  0.00  0.00    -0.226 OA
ATOM     11  N   UNL     1      32.231 -23.436 -14.779  0.00  0.00    -0.246 N 
ATOM     12  C   UNL     1      33.290 -22.302 -17.225  0.00  0.00    -0.017 C 
ATOM     13  C   UNL     1      34.108 -23.278 -16.364  0.00  0.00    +0.020 C 
ATOM     14  C   UNL     1      31.787 -22.566 -17.041  0.00  0.00    +0.020 C 
ATOM     15  C   UNL     1      33.672 -23.225 -14.903  0.00  0.00    +0.097 C 
ATOM     16  C   UNL     1      31.392 -22.526 -15.566  0.00  0.00    +0.097 C 
ATOM     17  C   UNL     1      31.729 -24.416 -13.918  0.00  0.00    +0.405 C 
BRANCH  17  18
ATOM     18  O   UNL     1      30.360 -24.439 -13.885  0.00  0.00    -0.430 OA
ATOM     19  C   UNL     1      29.729 -25.523 -14.578  0.00  0.00    +0.257 C 
ENDBRANCH  17  18
ENDBRANCH   9  12
ENDBRANCH   2   9
ENDBRANCH   1   3
BRANCH   1  21
ATOM     20  O   UNL     1      35.671 -15.727 -23.088  0.00  0.00    -0.270 OA
ATOM     21  N   UNL     1      35.290 -16.981 -21.177  0.00  0.00    -0.301 N 
ATOM     22  C   UNL     1      35.115 -15.890 -22.004  0.00  0.00    +0.247 C 
ATOM     23  H   UNL     1      34.796 -17.018 -20.326  0.00  0.00    +0.150 HD
BRANCH  22  26
ATOM     24  N   UNL     1      32.839 -11.755 -22.785  0.00  0.00    -0.318 N 
ATOM     25  N   UNL     1      34.221 -13.330 -23.526  0.00  0.00    -0.318 N 
ATOM     26  C   UNL     1      34.193 -14.842 -21.497  0.00  0.00    +0.068 C 
ATOM     27  C   UNL     1      33.855 -13.728 -22.266  0.00  0.00    +0.063 C 
ATOM     28  C   UNL     1      33.618 -14.927 -20.225  0.00  0.00    +0.006 C 
ATOM     29  C   UNL     1      32.991 -12.729 -21.825  0.00  0.00    +0.059 C 
ATOM     30  C   UNL     1      33.590 -12.147 -23.791  0.00  0.00    +0.144 C 
ATOM     31  C   UNL     1      32.748 -13.940 -19.755  0.00  0.00    +0.001 C 
ATOM     32  C   UNL     1      32.423 -12.830 -20.544  0.00  0.00    +0.016 C 
ATOM     33  H   UNL     1      32.288 -10.942 -22.732  0.00  0.00    +0.148 HD
ATOM     34  H   UNL     1      34.832 -13.811 -24.132  0.00  0.00    +0.148 HD
BRANCH  30  35
ATOM     35  C   UNL     1      33.705 -11.370 -25.038  0.00  0.00    +0.037 C 
ATOM     36  C   UNL     1      34.895 -10.380 -25.034  0.00  0.00    +0.003 C 
ATOM     37  C   UNL     1      33.784 -12.257 -26.306  0.00  0.00    +0.003 C 
ENDBRANCH  30  35
ENDBRANCH  22  26
ENDBRANCH   1  21
TORSDOF 7
ENDMDL
MODEL 9
REMARK VINA RESULT:     -10.2      2.477     12.091
REMARK  Name = 11961293
REMARK  7 active torsions:
REMARK  status: ('A' for Active; 'I' for Inactive)
REMARK    1  A    between atoms: C_1  and  C_3
REMARK    2  A    between atoms: C_1  and  N_21
REMARK    3  A    between atoms: N_2  and  C_9
REMARK    4  A    between atoms: C_9  and  C_12
REMARK    5  A    between atoms: C_17  and  O_18
REMARK    6  A    between atoms: C_22  and  C_26
REMARK    7  A    between atoms: C_30  and  C_35
REMARK                            x       y       z     vdW  Elec       q    Type
REMARK                         _______ _______ _______ _____ _____    ______ ____
ROOT
ATOM      1  C   UNL     1      34.852 -22.144 -19.800  0.00  0.00    +0.089 C 
ENDROOT
BRANCH   1   3
ATOM      2  N   UNL     1      35.868 -18.315 -21.522  0.00  0.00    +0.387 N 
ATOM      3  C   UNL     1      35.132 -20.648 -19.905  0.00  0.00    +0.015 C 
ATOM      4  C   UNL     1      34.487 -18.490 -21.056  0.00  0.00    -0.077 C 
ATOM      5  C   UNL     1      36.826 -18.892 -20.568  0.00  0.00    -0.077 C 
ATOM      6  C   UNL     1      34.150 -19.971 -20.868  0.00  0.00    -0.021 C 
ATOM      7  C   UNL     1      36.570 -20.387 -20.365  0.00  0.00    -0.021 C 
ATOM      8  H   UNL     1      35.968 -18.813 -22.406  0.00  0.00    -0.080 HD
BRANCH   2   9
ATOM      9  C   UNL     1      36.159 -16.899 -21.746  0.00  0.00    -0.077 C 
BRANCH   9  12
ATOM     10  O   UNL     1      33.597 -12.553 -25.403  0.00  0.00    -0.226 OA
ATOM     11  N   UNL     1      33.636 -13.892 -23.504  0.00  0.00    -0.246 N 
ATOM     12  C   UNL     1      34.916 -16.160 -22.236  0.00  0.00    -0.017 C 
ATOM     13  C   UNL     1      34.972 -15.945 -23.756  0.00  0.00    +0.020 C 
ATOM     14  C   UNL     1      34.764 -14.811 -21.515  0.00  0.00    +0.020 C 
ATOM     15  C   UNL     1      33.769 -15.145 -24.246  0.00  0.00    +0.097 C 
ATOM     16  C   UNL     1      33.563 -14.031 -22.045  0.00  0.00    +0.097 C 
ATOM     17  C   UNL     1      33.538 -12.673 -24.181  0.00  0.00    +0.405 C 
BRANCH  17  18
ATOM     18  O   UNL     1      33.363 -11.611 -23.333  0.00  0.00    -0.430 OA
ATOM     19  C   UNL     1      33.696 -10.321 -23.861  0.00  0.00    +0.257 C 
ENDBRANCH  17  18
ENDBRANCH   9  12
ENDBRANCH   2   9
ENDBRANCH   1   3
BRANCH   1  21
ATOM     20  O   UNL     1      32.343 -22.164 -18.406  0.00  0.00    -0.270 OA
ATOM     21  N   UNL     1      34.630 -22.536 -18.417  0.00  0.00    -0.301 N 
ATOM     22  C   UNL     1      33.376 -22.510 -17.839  0.00  0.00    +0.247 C 
ATOM     23  H   UNL     1      35.398 -22.831 -17.875  0.00  0.00    +0.150 HD
BRANCH  22  26
ATOM     24  N   UNL     1      30.706 -23.784 -14.079  0.00  0.00    -0.318 N 
ATOM     25  N   UNL     1      30.810 -23.172 -16.213  0.00  0.00    -0.318 N 
ATOM     26  C   UNL     1      33.320 -22.915 -16.411  0.00  0.00    +0.068 C 
ATOM     27  C   UNL     1      32.108 -23.192 -15.775  0.00  0.00    +0.063 C 
ATOM     28  C   UNL     1      34.479 -23.040 -15.640  0.00  0.00    +0.006 C 
ATOM     29  C   UNL     1      32.018 -23.578 -14.440  0.00  0.00    +0.059 C 
ATOM     30  C   UNL     1      30.010 -23.532 -15.165  0.00  0.00    +0.144 C 
ATOM     31  C   UNL     1      34.420 -23.425 -14.298  0.00  0.00    +0.001 C 
ATOM     32  C   UNL     1      33.193 -23.698 -13.680  0.00  0.00    +0.016 C 
ATOM     33  H   UNL     1      30.363 -24.060 -13.199  0.00  0.00    +0.148 HD
ATOM     34  H   UNL     1      30.508 -22.939 -17.122  0.00  0.00    +0.148 HD
BRANCH  30  35
ATOM     35  C   UNL     1      28.540 -23.640 -15.202  0.00  0.00    +0.037 C 
ATOM     36  C   UNL     1      27.821 -22.297 -14.925  0.00  0.00    +0.003 C 
ATOM     37  C   UNL     1      28.004 -24.241 -16.524  0.00  0.00    +0.003 C 
ENDBRANCH  30  35
ENDBRANCH  22  26
ENDBRANCH   1  21
TORSDOF 7
ENDMDL
