MODEL 1
REMARK VINA RESULT:     -12.7      0.000      0.000
REMARK  Name = 5289110
REMARK  6 active torsions:
REMARK  status: ('A' for Active; 'I' for Inactive)
REMARK    1  A    between atoms: C_3  and  C_9
REMARK    2  A    between atoms: C_4  and  C_22
REMARK    3  A    between atoms: N_8  and  C_11
REMARK    4  A    between atoms: C_11  and  C_13
REMARK    5  A    between atoms: N_21  and  C_24
REMARK    6  A    between atoms: C_24  and  C_26
REMARK                            x       y       z     vdW  Elec       q    Type
REMARK                         _______ _______ _______ _____ _____    ______ ____
ROOT
ATOM      1  N   UNL     1      34.578 -19.355 -23.170  0.00  0.00    -0.244 NA
ATOM      2  N   UNL     1      33.826 -17.677 -24.728  0.00  0.00    -0.244 NA
ATOM      3  C   UNL     1      35.049 -18.363 -22.387  0.00  0.00    +0.115 C 
ATOM      4  C   UNL     1      34.324 -16.768 -23.886  0.00  0.00    +0.115 C 
ATOM      5  C   UNL     1      34.947 -17.023 -22.701  0.00  0.00    +0.100 C 
ATOM      6  C   UNL     1      33.987 -18.947 -24.310  0.00  0.00    +0.250 C 
ENDROOT
BRANCH   3   9
ATOM      7  O   UNL     1      36.265 -17.953 -20.424  0.00  0.00    -0.269 OA
ATOM      8  N   UNL     1      35.606 -20.140 -20.820  0.00  0.00    -0.296 N 
ATOM      9  C   UNL     1      35.689 -18.782 -21.152  0.00  0.00    +0.260 C 
ATOM     10  H   UNL     1      35.135 -20.742 -21.441  0.00  0.00    +0.150 HD
BRANCH   8  11
ATOM     11  C   UNL     1      36.171 -20.707 -19.617  0.00  0.00    +0.117 C 
BRANCH  11  13
ATOM     12  F   UNL     1      32.273 -23.275 -16.484  0.00  0.00    -0.205 F 
ATOM     13  C   UNL     1      35.132 -21.393 -18.778  0.00  0.00    -0.003 C 
ATOM     14  C   UNL     1      35.514 -22.066 -17.624  0.00  0.00    -0.005 C 
ATOM     15  C   UNL     1      34.548 -22.703 -16.844  0.00  0.00    +0.005 C 
ATOM     16  C   UNL     1      33.797 -21.349 -19.165  0.00  0.00    -0.000 C 
ATOM     17  C   UNL     1      33.207 -22.664 -17.226  0.00  0.00    +0.136 C 
ATOM     18  C   UNL     1      32.832 -21.987 -18.385  0.00  0.00    +0.029 C 
ATOM     19  C   UNL     1      34.953 -23.425 -15.603  0.00  0.00    +0.033 C 
ENDBRANCH  11  13
ENDBRANCH   8  11
ENDBRANCH   3   9
BRANCH   4  22
ATOM     20  O   UNL     1      33.881 -15.130 -25.506  0.00  0.00    -0.269 OA
ATOM     21  N   UNL     1      34.309 -14.390 -23.350  0.00  0.00    -0.296 N 
ATOM     22  C   UNL     1      34.158 -15.360 -24.331  0.00  0.00    +0.260 C 
ATOM     23  H   UNL     1      34.531 -14.674 -22.434  0.00  0.00    +0.150 HD
BRANCH  21  24
ATOM     24  C   UNL     1      34.155 -12.983 -23.620  0.00  0.00    +0.117 C 
BRANCH  24  26
ATOM     25  F   UNL     1      30.747 -10.471 -19.921  0.00  0.00    -0.205 F 
ATOM     26  C   UNL     1      33.250 -12.314 -22.640  0.00  0.00    -0.003 C 
ATOM     27  C   UNL     1      32.878 -10.983 -22.830  0.00  0.00    -0.005 C 
ATOM     28  C   UNL     1      32.032 -10.358 -21.913  0.00  0.00    +0.005 C 
ATOM     29  C   UNL     1      32.776 -13.019 -21.534  0.00  0.00    -0.000 C 
ATOM     30  C   UNL     1      31.559 -11.064 -20.808  0.00  0.00    +0.136 C 
ATOM     31  C   UNL     1      31.932 -12.394 -20.618  0.00  0.00    +0.029 C 
ATOM     32  C   UNL     1      31.636  -8.935 -22.120  0.00  0.00    +0.033 C 
ENDBRANCH  24  26
ENDBRANCH  21  24
ENDBRANCH   4  22
TORSDOF 6
ENDMDL
MODEL 2
REMARK VINA RESULT:     -12.7      0.075      9.667
REMARK  Name = 5289110
REMARK  6 active torsions:
REMARK  status: ('A' for Active; 'I' for Inactive)
REMARK    1  A    between atoms: C_3  and  C_9
REMARK    2  A    between atoms: C_4  and  C_22
REMARK    3  A    between atoms: N_8  and  C_11
REMARK    4  A    between atoms: C_11  and  C_13
REMARK    5  A    between atoms: N_21  and  C_24
REMARK    6  A    between atoms: C_24  and  C_26
REMARK                            x       y       z     vdW  Elec       q    Type
REMARK                         _______ _______ _______ _____ _____    ______ ____
ROOT
ATOM      1  N   UNL     1      33.884 -17.751 -24.702  0.00  0.00    -0.244 NA
ATOM      2  N   UNL     1      34.617 -19.409 -23.114  0.00  0.00    -0.244 NA
ATOM      3  C   UNL     1      34.354 -16.800 -23.869  0.00  0.00    +0.115 C 
ATOM      4  C   UNL     1      35.050 -18.397 -22.358  0.00  0.00    +0.115 C 
ATOM      5  C   UNL     1      34.960 -17.070 -22.658  0.00  0.00    +0.100 C 
ATOM      6  C   UNL     1      34.046 -19.015 -24.268  0.00  0.00    +0.250 C 
ENDROOT
BRANCH   3   9
ATOM      7  O   UNL     1      33.944 -15.176 -25.511  0.00  0.00    -0.269 OA
ATOM      8  N   UNL     1      34.300 -14.424 -23.347  0.00  0.00    -0.296 N 
ATOM      9  C   UNL     1      34.190 -15.428 -24.317  0.00  0.00    +0.260 C 
ATOM     10  H   UNL     1      34.496 -14.692 -22.421  0.00  0.00    +0.150 HD
BRANCH   8  11
ATOM     11  C   UNL     1      34.140 -13.016 -23.631  0.00  0.00    +0.117 C 
BRANCH  11  13
ATOM     12  F   UNL     1      30.773 -10.499 -19.897  0.00  0.00    -0.205 F 
ATOM     13  C   UNL     1      33.240 -12.341 -22.636  0.00  0.00    -0.003 C 
ATOM     14  C   UNL     1      32.880 -11.012 -22.823  0.00  0.00    -0.005 C 
ATOM     15  C   UNL     1      32.044 -10.385 -21.899  0.00  0.00    +0.005 C 
ATOM     16  C   UNL     1      32.777 -13.053 -21.535  0.00  0.00    -0.000 C 
ATOM     17  C   UNL     1      31.575 -11.093 -20.791  0.00  0.00    +0.136 C 
ATOM     18  C   UNL     1      31.941 -12.427 -20.610  0.00  0.00    +0.029 C 
ATOM     19  C   UNL     1      31.654  -8.959 -22.096  0.00  0.00    +0.033 C 
ENDBRANCH  11  13
ENDBRANCH   8  11
ENDBRANCH   3   9
BRANCH   4  22
ATOM     20  O   UNL     1      36.150 -17.950 -20.335  0.00  0.00    -0.269 OA
ATOM     21  N   UNL     1      35.674 -20.171 -20.806  0.00  0.00    -0.296 N 
ATOM     22  C   UNL     1      35.683 -18.810 -21.078  0.00  0.00    +0.260 C 
ATOM     23  H   UNL     1      35.275 -20.783 -21.466  0.00  0.00    +0.150 HD
BRANCH  21  24
ATOM     24  C   UNL     1      36.227 -20.723 -19.596  0.00  0.00    +0.117 C 
BRANCH  24  26
ATOM     25  F   UNL     1      32.330 -23.287 -16.457  0.00  0.00    -0.205 F 
ATOM     26  C   UNL     1      35.195 -21.404 -18.761  0.00  0.00    -0.003 C 
ATOM     27  C   UNL     1      35.561 -22.022 -17.565  0.00  0.00    -0.005 C 
ATOM     28  C   UNL     1      34.595 -22.658 -16.785  0.00  0.00    +0.005 C 
ATOM     29  C   UNL     1      33.863 -21.423 -19.176  0.00  0.00    -0.000 C 
ATOM     30  C   UNL     1      33.265 -22.677 -17.200  0.00  0.00    +0.136 C 
ATOM     31  C   UNL     1      32.898 -22.060 -18.396  0.00  0.00    +0.029 C 
ATOM     32  C   UNL     1      34.991 -23.317 -15.506  0.00  0.00    +0.033 C 
ENDBRANCH  24  26
ENDBRANCH  21  24
ENDBRANCH   4  22
TORSDOF 6
ENDMDL
MODEL 3
REMARK VINA RESULT:     -12.1      2.323      4.007
REMARK  Name = 5289110
REMARK  6 active torsions:
REMARK  status: ('A' for Active; 'I' for Inactive)
REMARK    1  A    between atoms: C_3  and  C_9
REMARK    2  A    between atoms: C_4  and  C_22
REMARK    3  A    between atoms: N_8  and  C_11
REMARK    4  A    between atoms: C_11  and  C_13
REMARK    5  A    between atoms: N_21  and  C_24
REMARK    6  A    between atoms: C_24  and  C_26
REMARK                            x       y       z     vdW  Elec       q    Type
REMARK                         _______ _______ _______ _____ _____    ______ ____
ROOT
ATOM      1  N   UNL     1      34.004 -14.775 -24.981  0.00  0.00    -0.244 NA
ATOM      2  N   UNL     1      33.027 -12.872 -23.871  0.00  0.00    -0.244 NA
ATOM      3  C   UNL     1      34.126 -15.368 -23.776  0.00  0.00    +0.115 C 
ATOM      4  C   UNL     1      33.189 -13.540 -22.727  0.00  0.00    +0.115 C 
ATOM      5  C   UNL     1      33.727 -14.786 -22.590  0.00  0.00    +0.100 C 
ATOM      6  C   UNL     1      33.455 -13.545 -24.956  0.00  0.00    +0.250 C 
ENDROOT
BRANCH   3   9
ATOM      7  O   UNL     1      34.596 -17.439 -24.770  0.00  0.00    -0.269 OA
ATOM      8  N   UNL     1      35.434 -17.076 -22.639  0.00  0.00    -0.296 N 
ATOM      9  C   UNL     1      34.716 -16.695 -23.781  0.00  0.00    +0.260 C 
ATOM     10  H   UNL     1      35.490 -16.439 -21.891  0.00  0.00    +0.150 HD
BRANCH   8  11
ATOM     11  C   UNL     1      36.097 -18.353 -22.500  0.00  0.00    +0.117 C 
BRANCH  11  13
ATOM     12  F   UNL     1      33.563 -21.628 -18.697  0.00  0.00    -0.205 F 
ATOM     13  C   UNL     1      35.423 -19.228 -21.482  0.00  0.00    -0.003 C 
ATOM     14  C   UNL     1      36.185 -19.877 -20.520  0.00  0.00    -0.005 C 
ATOM     15  C   UNL     1      35.559 -20.690 -19.574  0.00  0.00    +0.005 C 
ATOM     16  C   UNL     1      34.041 -19.381 -21.515  0.00  0.00    -0.000 C 
ATOM     17  C   UNL     1      34.173 -20.848 -19.600  0.00  0.00    +0.136 C 
ATOM     18  C   UNL     1      33.415 -20.193 -20.570  0.00  0.00    +0.029 C 
ATOM     19  C   UNL     1      36.374 -21.388 -18.538  0.00  0.00    +0.033 C 
ENDBRANCH  11  13
ENDBRANCH   8  11
ENDBRANCH   3   9
BRANCH   4  22
ATOM     20  O   UNL     1      33.005 -13.257 -20.406  0.00  0.00    -0.269 OA
ATOM     21  N   UNL     1      32.010 -11.646 -21.745  0.00  0.00    -0.296 N 
ATOM     22  C   UNL     1      32.724 -12.814 -21.517  0.00  0.00    +0.260 C 
ATOM     23  H   UNL     1      31.836 -11.372 -22.674  0.00  0.00    +0.150 HD
BRANCH  21  24
ATOM     24  C   UNL     1      31.514 -10.819 -20.675  0.00  0.00    +0.117 C 
BRANCH  24  26
ATOM     25  F   UNL     1      32.666  -5.373 -21.463  0.00  0.00    -0.205 F 
ATOM     26  C   UNL     1      31.819  -9.373 -20.887  0.00  0.00    -0.003 C 
ATOM     27  C   UNL     1      31.601  -8.790 -22.135  0.00  0.00    -0.005 C 
ATOM     28  C   UNL     1      31.886  -7.439 -22.333  0.00  0.00    +0.005 C 
ATOM     29  C   UNL     1      32.321  -8.605 -19.837  0.00  0.00    -0.000 C 
ATOM     30  C   UNL     1      32.389  -6.672 -21.283  0.00  0.00    +0.136 C 
ATOM     31  C   UNL     1      32.607  -7.255 -20.035  0.00  0.00    +0.029 C 
ATOM     32  C   UNL     1      31.651  -6.819 -23.669  0.00  0.00    +0.033 C 
ENDBRANCH  24  26
ENDBRANCH  21  24
ENDBRANCH   4  22
TORSDOF 6
ENDMDL
MODEL 4
REMARK VINA RESULT:     -12.1      2.333     10.429
REMARK  Name = 5289110
REMARK  6 active torsions:
REMARK  status: ('A' for Active; 'I' for Inactive)
REMARK    1  A    between atoms: C_3  and  C_9
REMARK    2  A    between atoms: C_4  and  C_22
REMARK    3  A    between atoms: N_8  and  C_11
REMARK    4  A    between atoms: C_11  and  C_13
REMARK    5  A    between atoms: N_21  and  C_24
REMARK    6  A    between atoms: C_24  and  C_26
REMARK                            x       y       z     vdW  Elec       q    Type
REMARK                         _______ _______ _______ _____ _____    ______ ____
ROOT
ATOM      1  N   UNL     1      33.030 -12.880 -23.864  0.00  0.00    -0.244 NA
ATOM      2  N   UNL     1      34.023 -14.773 -24.978  0.00  0.00    -0.244 NA
ATOM      3  C   UNL     1      33.180 -13.537 -22.695  0.00  0.00    +0.115 C 
ATOM      4  C   UNL     1      34.128 -15.342 -23.774  0.00  0.00    +0.115 C 
ATOM      5  C   UNL     1      33.735 -14.796 -22.588  0.00  0.00    +0.100 C 
ATOM      6  C   UNL     1      33.466 -13.548 -24.950  0.00  0.00    +0.250 C 
ENDROOT
BRANCH   3   9
ATOM      7  O   UNL     1      32.943 -13.288 -20.375  0.00  0.00    -0.269 OA
ATOM      8  N   UNL     1      32.032 -11.629 -21.714  0.00  0.00    -0.296 N 
ATOM      9  C   UNL     1      32.716 -12.834 -21.511  0.00  0.00    +0.260 C 
ATOM     10  H   UNL     1      31.886 -11.327 -22.639  0.00  0.00    +0.150 HD
BRANCH   8  11
ATOM     11  C   UNL     1      31.529 -10.804 -20.639  0.00  0.00    +0.117 C 
BRANCH  11  13
ATOM     12  F   UNL     1      32.598  -5.351 -21.491  0.00  0.00    -0.205 F 
ATOM     13  C   UNL     1      31.813  -9.347 -20.869  0.00  0.00    -0.003 C 
ATOM     14  C   UNL     1      31.600  -8.795 -22.126  0.00  0.00    -0.005 C 
ATOM     15  C   UNL     1      31.863  -7.442 -22.340  0.00  0.00    +0.005 C 
ATOM     16  C   UNL     1      32.289  -8.566 -19.822  0.00  0.00    -0.000 C 
ATOM     17  C   UNL     1      32.341  -6.651 -21.295  0.00  0.00    +0.136 C 
ATOM     18  C   UNL     1      32.552  -7.213 -20.036  0.00  0.00    +0.029 C 
ATOM     19  C   UNL     1      31.634  -6.844 -23.688  0.00  0.00    +0.033 C 
ENDBRANCH  11  13
ENDBRANCH   8  11
ENDBRANCH   3   9
BRANCH   4  22
ATOM     20  O   UNL     1      34.625 -17.399 -24.784  0.00  0.00    -0.269 OA
ATOM     21  N   UNL     1      35.427 -17.061 -22.634  0.00  0.00    -0.296 N 
ATOM     22  C   UNL     1      34.738 -16.696 -23.782  0.00  0.00    +0.260 C 
ATOM     23  H   UNL     1      35.463 -16.427 -21.882  0.00  0.00    +0.150 HD
BRANCH  21  24
ATOM     24  C   UNL     1      36.093 -18.332 -22.500  0.00  0.00    +0.117 C 
BRANCH  24  26
ATOM     25  F   UNL     1      33.631 -21.632 -18.672  0.00  0.00    -0.205 F 
ATOM     26  C   UNL     1      35.443 -19.208 -21.483  0.00  0.00    -0.003 C 
ATOM     27  C   UNL     1      36.218 -19.861 -20.525  0.00  0.00    -0.005 C 
ATOM     28  C   UNL     1      35.609 -20.680 -19.574  0.00  0.00    +0.005 C 
ATOM     29  C   UNL     1      34.058 -19.374 -21.489  0.00  0.00    -0.000 C 
ATOM     30  C   UNL     1      34.225 -20.846 -19.582  0.00  0.00    +0.136 C 
ATOM     31  C   UNL     1      33.449 -20.194 -20.540  0.00  0.00    +0.029 C 
ATOM     32  C   UNL     1      36.442 -21.376 -18.551  0.00  0.00    +0.033 C 
ENDBRANCH  24  26
ENDBRANCH  21  24
ENDBRANCH   4  22
TORSDOF 6
ENDMDL
MODEL 5
REMARK VINA RESULT:     -11.9      2.987     11.331
REMARK  Name = 5289110
REMARK  6 active torsions:
REMARK  status: ('A' for Active; 'I' for Inactive)
REMARK    1  A    between atoms: C_3  and  C_9
REMARK    2  A    between atoms: C_4  and  C_22
REMARK    3  A    between atoms: N_8  and  C_11
REMARK    4  A    between atoms: C_11  and  C_13
REMARK    5  A    between atoms: N_21  and  C_24
REMARK    6  A    between atoms: C_24  and  C_26
REMARK                            x       y       z     vdW  Elec       q    Type
REMARK                         _______ _______ _______ _____ _____    ______ ____
ROOT
ATOM      1  N   UNL     1      33.218 -11.599 -22.538  0.00  0.00    -0.244 NA
ATOM      2  N   UNL     1      33.061 -14.001 -22.421  0.00  0.00    -0.244 NA
ATOM      3  C   UNL     1      33.956 -11.739 -23.659  0.00  0.00    +0.115 C 
ATOM      4  C   UNL     1      33.797 -14.037 -23.535  0.00  0.00    +0.115 C 
ATOM      5  C   UNL     1      34.282 -12.959 -24.215  0.00  0.00    +0.100 C 
ATOM      6  C   UNL     1      32.811 -12.755 -21.979  0.00  0.00    +0.250 C 
ENDROOT
BRANCH   3   9
ATOM      7  O   UNL     1      34.716 -10.477 -25.483  0.00  0.00    -0.269 OA
ATOM      8  N   UNL     1      34.450  -9.365 -23.467  0.00  0.00    -0.296 N 
ATOM      9  C   UNL     1      34.406 -10.505 -24.278  0.00  0.00    +0.260 C 
ATOM     10  H   UNL     1      34.191  -9.457 -22.521  0.00  0.00    +0.150 HD
BRANCH   8  11
ATOM     11  C   UNL     1      34.853  -8.060 -23.940  0.00  0.00    +0.117 C 
BRANCH  11  13
ATOM     12  F   UNL     1      31.681  -3.955 -21.773  0.00  0.00    -0.205 F 
ATOM     13  C   UNL     1      34.006  -6.965 -23.358  0.00  0.00    -0.003 C 
ATOM     14  C   UNL     1      33.453  -7.121 -22.093  0.00  0.00    -0.005 C 
ATOM     15  C   UNL     1      32.666  -6.104 -21.552  0.00  0.00    +0.005 C 
ATOM     16  C   UNL     1      33.782  -5.806 -24.092  0.00  0.00    -0.000 C 
ATOM     17  C   UNL     1      32.436  -4.937 -22.283  0.00  0.00    +0.136 C 
ATOM     18  C   UNL     1      32.995  -4.789 -23.552  0.00  0.00    +0.029 C 
ATOM     19  C   UNL     1      32.072  -6.266 -20.193  0.00  0.00    +0.033 C 
ENDBRANCH  11  13
ENDBRANCH   8  11
ENDBRANCH   3   9
BRANCH   4  22
ATOM     20  O   UNL     1      33.881 -15.663 -25.223  0.00  0.00    -0.269 OA
ATOM     21  N   UNL     1      34.602 -16.299 -23.113  0.00  0.00    -0.296 N 
ATOM     22  C   UNL     1      34.086 -15.404 -24.040  0.00  0.00    +0.260 C 
ATOM     23  H   UNL     1      34.731 -15.996 -22.185  0.00  0.00    +0.150 HD
BRANCH  21  24
ATOM     24  C   UNL     1      34.955 -17.653 -23.455  0.00  0.00    +0.117 C 
BRANCH  24  26
ATOM     25  F   UNL     1      36.448 -20.673 -18.954  0.00  0.00    -0.205 F 
ATOM     26  C   UNL     1      35.348 -18.455 -22.260  0.00  0.00    -0.003 C 
ATOM     27  C   UNL     1      34.400 -19.240 -21.604  0.00  0.00    -0.005 C 
ATOM     28  C   UNL     1      34.769 -19.990 -20.487  0.00  0.00    +0.005 C 
ATOM     29  C   UNL     1      36.665 -18.422 -21.800  0.00  0.00    -0.000 C 
ATOM     30  C   UNL     1      36.085 -19.955 -20.027  0.00  0.00    +0.136 C 
ATOM     31  C   UNL     1      37.033 -19.171 -20.683  0.00  0.00    +0.029 C 
ATOM     32  C   UNL     1      33.752 -20.829 -19.787  0.00  0.00    +0.033 C 
ENDBRANCH  24  26
ENDBRANCH  21  24
ENDBRANCH   4  22
TORSDOF 6
ENDMDL
MODEL 6
REMARK VINA RESULT:     -11.8      2.957      5.354
REMARK  Name = 5289110
REMARK  6 active torsions:
REMARK  status: ('A' for Active; 'I' for Inactive)
REMARK    1  A    between atoms: C_3  and  C_9
REMARK    2  A    between atoms: C_4  and  C_22
REMARK    3  A    between atoms: N_8  and  C_11
REMARK    4  A    between atoms: C_11  and  C_13
REMARK    5  A    between atoms: N_21  and  C_24
REMARK    6  A    between atoms: C_24  and  C_26
REMARK                            x       y       z     vdW  Elec       q    Type
REMARK                         _______ _______ _______ _____ _____    ______ ____
ROOT
ATOM      1  N   UNL     1      33.118 -14.029 -22.379  0.00  0.00    -0.244 NA
ATOM      2  N   UNL     1      33.243 -11.626 -22.516  0.00  0.00    -0.244 NA
ATOM      3  C   UNL     1      33.833 -14.095 -23.521  0.00  0.00    +0.115 C 
ATOM      4  C   UNL     1      33.946 -11.794 -23.640  0.00  0.00    +0.115 C 
ATOM      5  C   UNL     1      34.283 -12.986 -24.209  0.00  0.00    +0.100 C 
ATOM      6  C   UNL     1      32.862 -12.782 -21.940  0.00  0.00    +0.250 C 
ENDROOT
BRANCH   3   9
ATOM      7  O   UNL     1      33.879 -15.738 -25.193  0.00  0.00    -0.269 OA
ATOM      8  N   UNL     1      34.694 -16.332 -23.106  0.00  0.00    -0.296 N 
ATOM      9  C   UNL     1      34.120 -15.431 -24.012  0.00  0.00    +0.260 C 
ATOM     10  H   UNL     1      34.859 -16.024 -22.186  0.00  0.00    +0.150 HD
BRANCH   8  11
ATOM     11  C   UNL     1      35.059 -17.688 -23.447  0.00  0.00    +0.117 C 
BRANCH  11  13
ATOM     12  F   UNL     1      36.331 -20.730 -18.894  0.00  0.00    -0.205 F 
ATOM     13  C   UNL     1      35.396 -18.502 -22.232  0.00  0.00    -0.003 C 
ATOM     14  C   UNL     1      34.405 -19.250 -21.607  0.00  0.00    -0.005 C 
ATOM     15  C   UNL     1      34.718 -20.006 -20.478  0.00  0.00    +0.005 C 
ATOM     16  C   UNL     1      36.697 -18.498 -21.741  0.00  0.00    -0.000 C 
ATOM     17  C   UNL     1      36.021 -20.008 -19.979  0.00  0.00    +0.136 C 
ATOM     18  C   UNL     1      37.010 -19.254 -20.611  0.00  0.00    +0.029 C 
ATOM     19  C   UNL     1      33.658 -20.812 -19.806  0.00  0.00    +0.033 C 
ENDBRANCH  11  13
ENDBRANCH   8  11
ENDBRANCH   3   9
BRANCH   4  22
ATOM     20  O   UNL     1      34.646 -10.537 -25.492  0.00  0.00    -0.269 OA
ATOM     21  N   UNL     1      34.413  -9.407 -23.480  0.00  0.00    -0.296 N 
ATOM     22  C   UNL     1      34.374 -10.530 -24.294  0.00  0.00    +0.260 C 
ATOM     23  H   UNL     1      34.176  -9.502 -22.529  0.00  0.00    +0.150 HD
BRANCH  21  24
ATOM     24  C   UNL     1      34.785  -8.105 -23.973  0.00  0.00    +0.117 C 
BRANCH  24  26
ATOM     25  F   UNL     1      31.706  -3.988 -21.698  0.00  0.00    -0.205 F 
ATOM     26  C   UNL     1      33.967  -7.014 -23.366  0.00  0.00    -0.003 C 
ATOM     27  C   UNL     1      33.458  -7.158 -22.076  0.00  0.00    -0.005 C 
ATOM     28  C   UNL     1      32.694  -6.138 -21.510  0.00  0.00    +0.005 C 
ATOM     29  C   UNL     1      33.713  -5.849 -24.090  0.00  0.00    -0.000 C 
ATOM     30  C   UNL     1      32.439  -4.974 -22.234  0.00  0.00    +0.136 C 
ATOM     31  C   UNL     1      32.948  -4.829 -23.524  0.00  0.00    +0.029 C 
ATOM     32  C   UNL     1      32.151  -6.296 -20.129  0.00  0.00    +0.033 C 
ENDBRANCH  24  26
ENDBRANCH  21  24
ENDBRANCH   4  22
TORSDOF 6
ENDMDL
MODEL 7
REMARK VINA RESULT:     -11.8      2.468     10.968
REMARK  Name = 5289110
REMARK  6 active torsions:
REMARK  status: ('A' for Active; 'I' for Inactive)
REMARK    1  A    between atoms: C_3  and  C_9
REMARK    2  A    between atoms: C_4  and  C_22
REMARK    3  A    between atoms: N_8  and  C_11
REMARK    4  A    between atoms: C_11  and  C_13
REMARK    5  A    between atoms: N_21  and  C_24
REMARK    6  A    between atoms: C_24  and  C_26
REMARK                            x       y       z     vdW  Elec       q    Type
REMARK                         _______ _______ _______ _____ _____    ______ ____
ROOT
ATOM      1  N   UNL     1      33.803 -12.661 -21.831  0.00  0.00    -0.244 NA
ATOM      2  N   UNL     1      34.216 -14.974 -21.298  0.00  0.00    -0.244 NA
ATOM      3  C   UNL     1      34.151 -12.930 -23.106  0.00  0.00    +0.115 C 
ATOM      4  C   UNL     1      34.542 -15.142 -22.582  0.00  0.00    +0.115 C 
ATOM      5  C   UNL     1      34.537 -14.180 -23.548  0.00  0.00    +0.100 C 
ATOM      6  C   UNL     1      33.858 -13.713 -20.993  0.00  0.00    +0.250 C 
ENDROOT
BRANCH   3   9
ATOM      7  O   UNL     1      33.510 -11.911 -25.118  0.00  0.00    -0.269 OA
ATOM      8  N   UNL     1      34.718 -10.620 -23.619  0.00  0.00    -0.296 N 
ATOM      9  C   UNL     1      34.099 -11.809 -24.027  0.00  0.00    +0.260 C 
ATOM     10  H   UNL     1      35.166 -10.607 -22.743  0.00  0.00    +0.150 HD
BRANCH   8  11
ATOM     11  C   UNL     1      34.733  -9.412 -24.411  0.00  0.00    +0.117 C 
BRANCH  11  13
ATOM     12  F   UNL     1      32.736  -4.993 -21.567  0.00  0.00    -0.205 F 
ATOM     13  C   UNL     1      34.199  -8.234 -23.649  0.00  0.00    -0.003 C 
ATOM     14  C   UNL     1      33.475  -8.440 -22.480  0.00  0.00    -0.005 C 
ATOM     15  C   UNL     1      32.980  -7.345 -21.772  0.00  0.00    +0.005 C 
ATOM     16  C   UNL     1      34.432  -6.947 -24.121  0.00  0.00    -0.000 C 
ATOM     17  C   UNL     1      33.210  -6.051 -22.239  0.00  0.00    +0.136 C 
ATOM     18  C   UNL     1      33.937  -5.852 -23.413  0.00  0.00    +0.029 C 
ATOM     19  C   UNL     1      32.204  -7.562 -20.517  0.00  0.00    +0.033 C 
ENDBRANCH  11  13
ENDBRANCH   8  11
ENDBRANCH   3   9
BRANCH   4  22
ATOM     20  O   UNL     1      35.020 -16.842 -24.126  0.00  0.00    -0.269 OA
ATOM     21  N   UNL     1      35.227 -17.373 -21.878  0.00  0.00    -0.296 N 
ATOM     22  C   UNL     1      34.942 -16.528 -22.941  0.00  0.00    +0.260 C 
ATOM     23  H   UNL     1      35.136 -17.028 -20.961  0.00  0.00    +0.150 HD
BRANCH  21  24
ATOM     24  C   UNL     1      35.652 -18.738 -22.065  0.00  0.00    +0.117 C 
BRANCH  24  26
ATOM     25  F   UNL     1      33.720 -22.142 -18.030  0.00  0.00    -0.205 F 
ATOM     26  C   UNL     1      35.142 -19.642 -20.993  0.00  0.00    -0.003 C 
ATOM     27  C   UNL     1      36.029 -20.213 -20.081  0.00  0.00    -0.005 C 
ATOM     28  C   UNL     1      35.552 -21.058 -19.079  0.00  0.00    +0.005 C 
ATOM     29  C   UNL     1      33.777 -19.915 -20.902  0.00  0.00    -0.000 C 
ATOM     30  C   UNL     1      34.187 -21.331 -18.989  0.00  0.00    +0.136 C 
ATOM     31  C   UNL     1      33.300 -20.760 -19.901  0.00  0.00    +0.029 C 
ATOM     32  C   UNL     1      36.504 -21.667 -18.105  0.00  0.00    +0.033 C 
ENDBRANCH  24  26
ENDBRANCH  21  24
ENDBRANCH   4  22
TORSDOF 6
ENDMDL
MODEL 8
REMARK VINA RESULT:     -11.8      6.303      9.985
REMARK  Name = 5289110
REMARK  6 active torsions:
REMARK  status: ('A' for Active; 'I' for Inactive)
REMARK    1  A    between atoms: C_3  and  C_9
REMARK    2  A    between atoms: C_4  and  C_22
REMARK    3  A    between atoms: N_8  and  C_11
REMARK    4  A    between atoms: C_11  and  C_13
REMARK    5  A    between atoms: N_21  and  C_24
REMARK    6  A    between atoms: C_24  and  C_26
REMARK                            x       y       z     vdW  Elec       q    Type
REMARK                         _______ _______ _______ _____ _____    ______ ____
ROOT
ATOM      1  N   UNL     1      32.945 -24.510 -12.742  0.00  0.00    -0.244 NA
ATOM      2  N   UNL     1      31.348 -23.989 -14.469  0.00  0.00    -0.244 NA
ATOM      3  C   UNL     1      33.898 -23.929 -13.499  0.00  0.00    +0.115 C 
ATOM      4  C   UNL     1      32.358 -23.436 -15.145  0.00  0.00    +0.115 C 
ATOM      5  C   UNL     1      33.657 -23.363 -14.735  0.00  0.00    +0.100 C 
ATOM      6  C   UNL     1      31.711 -24.506 -13.280  0.00  0.00    +0.250 C 
ENDROOT
BRANCH   3   9
ATOM      7  O   UNL     1      36.033 -23.004 -13.206  0.00  0.00    -0.269 OA
ATOM      8  N   UNL     1      35.571 -24.974 -12.075  0.00  0.00    -0.296 N 
ATOM      9  C   UNL     1      35.238 -23.922 -12.938  0.00  0.00    +0.260 C 
ATOM     10  H   UNL     1      34.894 -25.668 -11.905  0.00  0.00    +0.150 HD
BRANCH   8  11
ATOM     11  C   UNL     1      36.853 -25.097 -11.420  0.00  0.00    +0.117 C 
BRANCH  11  13
ATOM     12  F   UNL     1      40.727 -27.400 -14.781  0.00  0.00    -0.205 F 
ATOM     13  C   UNL     1      37.886 -25.715 -12.318  0.00  0.00    -0.003 C 
ATOM     14  C   UNL     1      37.743 -27.036 -12.724  0.00  0.00    -0.005 C 
ATOM     15  C   UNL     1      38.703 -27.610 -13.559  0.00  0.00    +0.005 C 
ATOM     16  C   UNL     1      38.976 -24.958 -12.734  0.00  0.00    -0.000 C 
ATOM     17  C   UNL     1      39.800 -26.857 -13.980  0.00  0.00    +0.136 C 
ATOM     18  C   UNL     1      39.935 -25.532 -13.568  0.00  0.00    +0.029 C 
ATOM     19  C   UNL     1      38.553 -29.027 -13.998  0.00  0.00    +0.033 C 
ENDBRANCH  11  13
ENDBRANCH   8  11
ENDBRANCH   3   9
BRANCH   4  22
ATOM     20  O   UNL     1      30.794 -22.645 -16.702  0.00  0.00    -0.269 OA
ATOM     21  N   UNL     1      33.026 -22.585 -17.329  0.00  0.00    -0.296 N 
ATOM     22  C   UNL     1      31.979 -22.861 -16.461  0.00  0.00    +0.260 C 
ATOM     23  H   UNL     1      33.945 -22.794 -17.045  0.00  0.00    +0.150 HD
BRANCH  21  24
ATOM     24  C   UNL     1      32.820 -22.004 -18.632  0.00  0.00    +0.117 C 
BRANCH  24  26
ATOM     25  F   UNL     1      37.446 -19.474 -20.583  0.00  0.00    -0.205 F 
ATOM     26  C   UNL     1      34.046 -21.330 -19.152  0.00  0.00    -0.003 C 
ATOM     27  C   UNL     1      33.941 -20.364 -20.152  0.00  0.00    -0.005 C 
ATOM     28  C   UNL     1      35.087 -19.735 -20.637  0.00  0.00    +0.005 C 
ATOM     29  C   UNL     1      35.298 -21.667 -18.637  0.00  0.00    -0.000 C 
ATOM     30  C   UNL     1      36.339 -20.072 -20.123  0.00  0.00    +0.136 C 
ATOM     31  C   UNL     1      36.444 -21.039 -19.123  0.00  0.00    +0.029 C 
ATOM     32  C   UNL     1      34.971 -18.701 -21.707  0.00  0.00    +0.033 C 
ENDBRANCH  24  26
ENDBRANCH  21  24
ENDBRANCH   4  22
TORSDOF 6
ENDMDL
MODEL 9
REMARK VINA RESULT:     -11.7      6.257     12.976
REMARK  Name = 5289110
REMARK  6 active torsions:
REMARK  status: ('A' for Active; 'I' for Inactive)
REMARK    1  A    between atoms: C_3  and  C_9
REMARK    2  A    between atoms: C_4  and  C_22
REMARK    3  A    between atoms: N_8  and  C_11
REMARK    4  A    between atoms: C_11  and  C_13
REMARK    5  A    between atoms: N_21  and  C_24
REMARK    6  A    between atoms: C_24  and  C_26
REMARK                            x       y       z     vdW  Elec       q    Type
REMARK                         _______ _______ _______ _____ _____    ______ ____
ROOT
ATOM      1  N   UNL     1      31.319 -24.019 -14.579  0.00  0.00    -0.244 NA
ATOM      2  N   UNL     1      32.904 -24.572 -12.850  0.00  0.00    -0.244 NA
ATOM      3  C   UNL     1      32.318 -23.410 -15.249  0.00  0.00    +0.115 C 
ATOM      4  C   UNL     1      33.825 -23.946 -13.587  0.00  0.00    +0.115 C 
ATOM      5  C   UNL     1      33.619 -23.341 -14.791  0.00  0.00    +0.100 C 
ATOM      6  C   UNL     1      31.677 -24.570 -13.404  0.00  0.00    +0.250 C 
ENDROOT
BRANCH   3   9
ATOM      7  O   UNL     1      30.774 -22.497 -16.759  0.00  0.00    -0.269 OA
ATOM      8  N   UNL     1      32.989 -22.581 -17.436  0.00  0.00    -0.296 N 
ATOM      9  C   UNL     1      31.954 -22.808 -16.520  0.00  0.00    +0.260 C 
ATOM     10  H   UNL     1      33.901 -22.852 -17.183  0.00  0.00    +0.150 HD
BRANCH   8  11
ATOM     11  C   UNL     1      32.792 -21.971 -18.731  0.00  0.00    +0.117 C 
BRANCH  11  13
ATOM     12  F   UNL     1      37.454 -19.426 -20.577  0.00  0.00    -0.205 F 
ATOM     13  C   UNL     1      34.036 -21.289 -19.225  0.00  0.00    -0.003 C 
ATOM     14  C   UNL     1      33.940 -20.315 -20.212  0.00  0.00    -0.005 C 
ATOM     15  C   UNL     1      35.095 -19.681 -20.671  0.00  0.00    +0.005 C 
ATOM     16  C   UNL     1      35.271 -21.641 -18.692  0.00  0.00    -0.000 C 
ATOM     17  C   UNL     1      36.339 -20.028 -20.141  0.00  0.00    +0.136 C 
ATOM     18  C   UNL     1      36.425 -21.007 -19.152  0.00  0.00    +0.029 C 
ATOM     19  C   UNL     1      34.998 -18.633 -21.728  0.00  0.00    +0.033 C 
ENDBRANCH  11  13
ENDBRANCH   8  11
ENDBRANCH   3   9
BRANCH   4  22
ATOM     20  O   UNL     1      35.968 -23.036 -13.299  0.00  0.00    -0.269 OA
ATOM     21  N   UNL     1      35.469 -24.956 -12.097  0.00  0.00    -0.296 N 
ATOM     22  C   UNL     1      35.187 -23.935 -12.993  0.00  0.00    +0.260 C 
ATOM     23  H   UNL     1      34.776 -25.632 -11.916  0.00  0.00    +0.150 HD
BRANCH  21  24
ATOM     24  C   UNL     1      36.736 -25.067 -11.421  0.00  0.00    +0.117 C 
BRANCH  24  26
ATOM     25  F   UNL     1      40.696 -27.397 -14.660  0.00  0.00    -0.205 F 
ATOM     26  C   UNL     1      37.786 -25.688 -12.280  0.00  0.00    -0.003 C 
ATOM     27  C   UNL     1      37.665 -27.020 -12.677  0.00  0.00    -0.005 C 
ATOM     28  C   UNL     1      38.646 -27.600 -13.480  0.00  0.00    +0.005 C 
ATOM     29  C   UNL     1      38.887 -24.936 -12.689  0.00  0.00    -0.000 C 
ATOM     30  C   UNL     1      39.748 -26.848 -13.888  0.00  0.00    +0.136 C 
ATOM     31  C   UNL     1      39.869 -25.516 -13.492  0.00  0.00    +0.029 C 
ATOM     32  C   UNL     1      38.514 -29.024 -13.903  0.00  0.00    +0.033 C 
ENDBRANCH  24  26
ENDBRANCH  21  24
ENDBRANCH   4  22
TORSDOF 6
ENDMDL
