MODEL 1
REMARK VINA RESULT:     -12.1      0.000      0.000
REMARK  Name = 198752
REMARK  6 active torsions:
REMARK  status: ('A' for Active; 'I' for Inactive)
REMARK    1  A    between atoms: C_1  and  C_3
REMARK    2  A    between atoms: C_1  and  C_16
REMARK    3  A    between atoms: N_2  and  C_9
REMARK    4  A    between atoms: C_9  and  C_10
REMARK    5  A    between atoms: C_16  and  C_18
REMARK    6  A    between atoms: C_18  and  C_20
REMARK                            x       y       z     vdW  Elec       q    Type
REMARK                         _______ _______ _______ _____ _____    ______ ____
ROOT
ATOM      1  C   UNL     1      33.819 -15.201 -24.402  0.00  0.00    +0.008 C 
ENDROOT
BRANCH   1   3
ATOM      2  N   UNL     1      35.158 -18.367 -21.788  0.00  0.00    +0.390 N 
ATOM      3  C   UNL     1      34.743 -16.214 -23.735  0.00  0.00    -0.004 C 
ATOM      4  C   UNL     1      34.255 -17.647 -23.976  0.00  0.00    -0.023 C 
ATOM      5  C   UNL     1      34.854 -15.952 -22.229  0.00  0.00    -0.023 C 
ATOM      6  C   UNL     1      35.119 -18.663 -23.226  0.00  0.00    -0.077 C 
ATOM      7  C   UNL     1      35.698 -17.024 -21.538  0.00  0.00    -0.077 C 
ATOM      8  H   UNL     1      34.202 -18.392 -21.435  0.00  0.00    -0.079 HD
BRANCH   2   9
ATOM      9  C   UNL     1      35.945 -19.376 -21.078  0.00  0.00    -0.050 C 
BRANCH   9  10
ATOM     10  C   UNL     1      35.081 -20.251 -20.209  0.00  0.00    -0.043 C 
ATOM     11  C   UNL     1      35.679 -21.176 -19.364  0.00  0.00    -0.006 C 
ATOM     12  C   UNL     1      33.700 -20.121 -20.264  0.00  0.00    -0.006 C 
ATOM     13  C   UNL     1      34.878 -21.987 -18.559  0.00  0.00    -0.000 C 
ATOM     14  C   UNL     1      32.901 -20.931 -19.460  0.00  0.00    -0.000 C 
ATOM     15  C   UNL     1      33.490 -21.865 -18.607  0.00  0.00    -0.000 C 
ENDBRANCH   9  10
ENDBRANCH   2   9
ENDBRANCH   1   3
BRANCH   1  16
ATOM     16  C   UNL     1      33.947 -13.818 -23.762  0.00  0.00    +0.069 C 
BRANCH  16  18
ATOM     17  O   UNL     1      33.436 -12.919 -25.939  0.00  0.00    -0.291 OA
ATOM     18  C   UNL     1      33.723 -12.660 -24.752  0.00  0.00    +0.173 C 
BRANCH  18  20
ATOM     19  N   UNL     1      32.051  -9.010 -22.019  0.00  0.00    -0.333 N 
ATOM     20  C   UNL     1      33.847 -11.284 -24.299  0.00  0.00    +0.036 C 
ATOM     21  C   UNL     1      34.077  -8.629 -23.398  0.00  0.00    -0.009 C 
ATOM     22  C   UNL     1      34.325  -7.205 -22.942  0.00  0.00    +0.028 C 
ATOM     23  C   UNL     1      33.029  -9.438 -22.907  0.00  0.00    +0.041 C 
ATOM     24  C   UNL     1      34.165  -7.009 -21.435  0.00  0.00    +0.006 C 
ATOM     25  C   UNL     1      32.714  -6.884 -20.971  0.00  0.00    +0.022 C 
ATOM     26  C   UNL     1      32.949 -10.771 -23.363  0.00  0.00    +0.017 C 
ATOM     27  C   UNL     1      31.697  -7.621 -21.830  0.00  0.00    +0.087 C 
ATOM     28  C   UNL     1      34.851 -10.473 -24.805  0.00  0.00    +0.003 C 
ATOM     29  C   UNL     1      34.964  -9.158 -24.360  0.00  0.00    -0.003 C 
ATOM     30  H   UNL     1      31.571  -9.688 -21.491  0.00  0.00    +0.147 HD
ENDBRANCH  18  20
ENDBRANCH  16  18
ENDBRANCH   1  16
TORSDOF 6
ENDMDL
MODEL 2
REMARK VINA RESULT:     -12.0      4.471     11.962
REMARK  Name = 198752
REMARK  6 active torsions:
REMARK  status: ('A' for Active; 'I' for Inactive)
REMARK    1  A    between atoms: C_1  and  C_3
REMARK    2  A    between atoms: C_1  and  C_16
REMARK    3  A    between atoms: N_2  and  C_9
REMARK    4  A    between atoms: C_9  and  C_10
REMARK    5  A    between atoms: C_16  and  C_18
REMARK    6  A    between atoms: C_18  and  C_20
REMARK                            x       y       z     vdW  Elec       q    Type
REMARK                         _______ _______ _______ _____ _____    ______ ____
ROOT
ATOM      1  C   UNL     1      36.150 -20.922 -18.948  0.00  0.00    +0.008 C 
ENDROOT
BRANCH   1   3
ATOM      2  N   UNL     1      35.222 -18.141 -22.120  0.00  0.00    +0.390 N 
ATOM      3  C   UNL     1      35.970 -20.359 -20.355  0.00  0.00    -0.004 C 
ATOM      4  C   UNL     1      36.880 -19.149 -20.585  0.00  0.00    -0.023 C 
ATOM      5  C   UNL     1      34.510 -19.965 -20.608  0.00  0.00    -0.023 C 
ATOM      6  C   UNL     1      36.632 -18.519 -21.957  0.00  0.00    -0.077 C 
ATOM      7  C   UNL     1      34.342 -19.308 -21.979  0.00  0.00    -0.077 C 
ATOM      8  H   UNL     1      34.986 -17.478 -21.382  0.00  0.00    -0.079 HD
BRANCH   2   9
ATOM      9  C   UNL     1      35.011 -17.494 -23.415  0.00  0.00    -0.050 C 
BRANCH   9  10
ATOM     10  C   UNL     1      34.564 -16.065 -23.261  0.00  0.00    -0.043 C 
ATOM     11  C   UNL     1      33.965 -15.417 -24.333  0.00  0.00    -0.006 C 
ATOM     12  C   UNL     1      34.757 -15.414 -22.051  0.00  0.00    -0.006 C 
ATOM     13  C   UNL     1      33.552 -14.092 -24.190  0.00  0.00    -0.000 C 
ATOM     14  C   UNL     1      34.344 -14.090 -21.908  0.00  0.00    -0.000 C 
ATOM     15  C   UNL     1      33.742 -13.429 -22.979  0.00  0.00    -0.000 C 
ENDBRANCH   9  10
ENDBRANCH   2   9
ENDBRANCH   1   3
BRANCH   1  16
ATOM     16  C   UNL     1      34.959 -21.785 -18.531  0.00  0.00    +0.069 C 
BRANCH  16  18
ATOM     17  O   UNL     1      36.282 -22.665 -16.718  0.00  0.00    -0.291 OA
ATOM     18  C   UNL     1      35.131 -22.441 -17.148  0.00  0.00    +0.173 C 
BRANCH  18  20
ATOM     19  N   UNL     1      30.299 -22.784 -16.801  0.00  0.00    -0.333 N 
ATOM     20  C   UNL     1      33.960 -22.791 -16.361  0.00  0.00    +0.036 C 
ATOM     21  C   UNL     1      31.681 -23.476 -14.861  0.00  0.00    -0.009 C 
ATOM     22  C   UNL     1      30.528 -23.923 -13.984  0.00  0.00    +0.028 C 
ATOM     23  C   UNL     1      31.522 -22.992 -16.178  0.00  0.00    +0.041 C 
ATOM     24  C   UNL     1      29.477 -24.745 -14.730  0.00  0.00    +0.006 C 
ATOM     25  C   UNL     1      28.499 -23.910 -15.555  0.00  0.00    +0.022 C 
ATOM     26  C   UNL     1      32.684 -22.673 -16.913  0.00  0.00    +0.017 C 
ATOM     27  C   UNL     1      29.059 -22.597 -16.081  0.00  0.00    +0.087 C 
ATOM     28  C   UNL     1      34.106 -23.231 -15.055  0.00  0.00    +0.003 C 
ATOM     29  C   UNL     1      32.978 -23.569 -14.311  0.00  0.00    -0.003 C 
ATOM     30  H   UNL     1      30.274 -22.761 -17.785  0.00  0.00    +0.147 HD
ENDBRANCH  18  20
ENDBRANCH  16  18
ENDBRANCH   1  16
TORSDOF 6
ENDMDL
MODEL 3
REMARK VINA RESULT:     -11.8      4.171     12.032
REMARK  Name = 198752
REMARK  6 active torsions:
REMARK  status: ('A' for Active; 'I' for Inactive)
REMARK    1  A    between atoms: C_1  and  C_3
REMARK    2  A    between atoms: C_1  and  C_16
REMARK    3  A    between atoms: N_2  and  C_9
REMARK    4  A    between atoms: C_9  and  C_10
REMARK    5  A    between atoms: C_16  and  C_18
REMARK    6  A    between atoms: C_18  and  C_20
REMARK                            x       y       z     vdW  Elec       q    Type
REMARK                         _______ _______ _______ _____ _____    ______ ____
ROOT
ATOM      1  C   UNL     1      35.505 -20.809 -19.525  0.00  0.00    +0.008 C 
ENDROOT
BRANCH   1   3
ATOM      2  N   UNL     1      34.973 -17.762 -22.539  0.00  0.00    +0.390 N 
ATOM      3  C   UNL     1      35.565 -20.103 -20.876  0.00  0.00    -0.004 C 
ATOM      4  C   UNL     1      36.370 -18.802 -20.782  0.00  0.00    -0.023 C 
ATOM      5  C   UNL     1      34.158 -19.803 -21.404  0.00  0.00    -0.023 C 
ATOM      6  C   UNL     1      36.350 -18.039 -22.108  0.00  0.00    -0.077 C 
ATOM      7  C   UNL     1      34.211 -19.006 -22.709  0.00  0.00    -0.077 C 
ATOM      8  H   UNL     1      34.519 -17.212 -21.811  0.00  0.00    -0.079 HD
BRANCH   2   9
ATOM      9  C   UNL     1      34.970 -16.987 -23.780  0.00  0.00    -0.050 C 
BRANCH   9  10
ATOM     10  C   UNL     1      34.470 -15.584 -23.564  0.00  0.00    -0.043 C 
ATOM     11  C   UNL     1      34.608 -14.995 -22.314  0.00  0.00    -0.006 C 
ATOM     12  C   UNL     1      33.879 -14.898 -24.616  0.00  0.00    -0.006 C 
ATOM     13  C   UNL     1      34.143 -13.695 -22.114  0.00  0.00    -0.000 C 
ATOM     14  C   UNL     1      33.415 -13.599 -24.415  0.00  0.00    -0.000 C 
ATOM     15  C   UNL     1      33.547 -12.997 -23.163  0.00  0.00    -0.000 C 
ENDBRANCH   9  10
ENDBRANCH   2   9
ENDBRANCH   1   3
BRANCH   1  16
ATOM     16  C   UNL     1      34.068 -21.158 -19.137  0.00  0.00    +0.069 C 
BRANCH  16  18
ATOM     17  O   UNL     1      34.009 -23.541 -19.495  0.00  0.00    -0.291 OA
ATOM     18  C   UNL     1      33.896 -22.614 -18.666  0.00  0.00    +0.173 C 
BRANCH  18  20
ATOM     19  N   UNL     1      30.616 -23.451 -15.184  0.00  0.00    -0.333 N 
ATOM     20  C   UNL     1      33.606 -22.896 -17.270  0.00  0.00    +0.036 C 
ATOM     21  C   UNL     1      33.021 -23.457 -14.575  0.00  0.00    -0.009 C 
ATOM     22  C   UNL     1      32.823 -23.806 -13.113  0.00  0.00    +0.028 C 
ATOM     23  C   UNL     1      31.962 -23.343 -15.504  0.00  0.00    +0.041 C 
ATOM     24  C   UNL     1      31.794 -24.913 -12.884  0.00  0.00    +0.006 C 
ATOM     25  C   UNL     1      30.342 -24.440 -12.946  0.00  0.00    +0.022 C 
ATOM     26  C   UNL     1      32.287 -23.079 -16.852  0.00  0.00    +0.017 C 
ATOM     27  C   UNL     1      30.093 -23.243 -13.852  0.00  0.00    +0.087 C 
ATOM     28  C   UNL     1      34.636 -22.972 -16.346  0.00  0.00    +0.003 C 
ATOM     29  C   UNL     1      34.346 -23.247 -15.011  0.00  0.00    -0.003 C 
ATOM     30  H   UNL     1      29.982 -23.680 -15.901  0.00  0.00    +0.147 HD
ENDBRANCH  18  20
ENDBRANCH  16  18
ENDBRANCH   1  16
TORSDOF 6
ENDMDL
MODEL 4
REMARK VINA RESULT:     -11.6      0.905      1.600
REMARK  Name = 198752
REMARK  6 active torsions:
REMARK  status: ('A' for Active; 'I' for Inactive)
REMARK    1  A    between atoms: C_1  and  C_3
REMARK    2  A    between atoms: C_1  and  C_16
REMARK    3  A    between atoms: N_2  and  C_9
REMARK    4  A    between atoms: C_9  and  C_10
REMARK    5  A    between atoms: C_16  and  C_18
REMARK    6  A    between atoms: C_18  and  C_20
REMARK                            x       y       z     vdW  Elec       q    Type
REMARK                         _______ _______ _______ _____ _____    ______ ____
ROOT
ATOM      1  C   UNL     1      33.920 -15.329 -24.381  0.00  0.00    +0.008 C 
ENDROOT
BRANCH   1   3
ATOM      2  N   UNL     1      35.115 -18.574 -21.793  0.00  0.00    +0.390 N 
ATOM      3  C   UNL     1      34.788 -16.410 -23.744  0.00  0.00    -0.004 C 
ATOM      4  C   UNL     1      34.174 -17.799 -23.946  0.00  0.00    -0.023 C 
ATOM      5  C   UNL     1      34.989 -16.145 -22.248  0.00  0.00    -0.023 C 
ATOM      6  C   UNL     1      34.986 -18.877 -23.224  0.00  0.00    -0.077 C 
ATOM      7  C   UNL     1      35.774 -17.278 -21.583  0.00  0.00    -0.077 C 
ATOM      8  H   UNL     1      34.177 -18.518 -21.397  0.00  0.00    -0.079 HD
BRANCH   2   9
ATOM      9  C   UNL     1      35.849 -19.638 -21.107  0.00  0.00    -0.050 C 
BRANCH   9  10
ATOM     10  C   UNL     1      34.963 -20.418 -20.173  0.00  0.00    -0.043 C 
ATOM     11  C   UNL     1      35.536 -21.296 -19.263  0.00  0.00    -0.006 C 
ATOM     12  C   UNL     1      33.587 -20.248 -20.233  0.00  0.00    -0.006 C 
ATOM     13  C   UNL     1      34.715 -22.019 -18.398  0.00  0.00    -0.000 C 
ATOM     14  C   UNL     1      32.767 -20.970 -19.368  0.00  0.00    -0.000 C 
ATOM     15  C   UNL     1      33.331 -21.857 -18.450  0.00  0.00    -0.000 C 
ENDBRANCH   9  10
ENDBRANCH   2   9
ENDBRANCH   1   3
BRANCH   1  16
ATOM     16  C   UNL     1      33.863 -14.071 -23.514  0.00  0.00    +0.069 C 
BRANCH  16  18
ATOM     17  O   UNL     1      33.554 -12.837 -25.561  0.00  0.00    -0.291 OA
ATOM     18  C   UNL     1      33.577 -12.787 -24.314  0.00  0.00    +0.173 C 
BRANCH  18  20
ATOM     19  N   UNL     1      34.560  -8.060 -23.788  0.00  0.00    -0.333 N 
ATOM     20  C   UNL     1      33.338 -11.535 -23.615  0.00  0.00    +0.036 C 
ATOM     21  C   UNL     1      32.880  -9.097 -22.287  0.00  0.00    -0.009 C 
ATOM     22  C   UNL     1      32.518  -7.829 -21.538  0.00  0.00    +0.028 C 
ATOM     23  C   UNL     1      33.806  -9.141 -23.353  0.00  0.00    +0.041 C 
ATOM     24  C   UNL     1      32.342  -6.613 -22.446  0.00  0.00    +0.006 C 
ATOM     25  C   UNL     1      33.654  -5.959 -22.879  0.00  0.00    +0.022 C 
ATOM     26  C   UNL     1      34.002 -10.373 -24.012  0.00  0.00    +0.017 C 
ATOM     27  C   UNL     1      34.844  -6.903 -22.969  0.00  0.00    +0.087 C 
ATOM     28  C   UNL     1      32.458 -11.491 -22.545  0.00  0.00    +0.003 C 
ATOM     29  C   UNL     1      32.232 -10.285 -21.886  0.00  0.00    -0.003 C 
ATOM     30  H   UNL     1      34.922  -8.082 -24.704  0.00  0.00    +0.147 HD
ENDBRANCH  18  20
ENDBRANCH  16  18
ENDBRANCH   1  16
TORSDOF 6
ENDMDL
MODEL 5
REMARK VINA RESULT:     -11.6      1.886     10.295
REMARK  Name = 198752
REMARK  6 active torsions:
REMARK  status: ('A' for Active; 'I' for Inactive)
REMARK    1  A    between atoms: C_1  and  C_3
REMARK    2  A    between atoms: C_1  and  C_16
REMARK    3  A    between atoms: N_2  and  C_9
REMARK    4  A    between atoms: C_9  and  C_10
REMARK    5  A    between atoms: C_16  and  C_18
REMARK    6  A    between atoms: C_18  and  C_20
REMARK                            x       y       z     vdW  Elec       q    Type
REMARK                         _______ _______ _______ _____ _____    ______ ____
ROOT
ATOM      1  C   UNL     1      34.888 -15.248 -22.192  0.00  0.00    +0.008 C 
ENDROOT
BRANCH   1   3
ATOM      2  N   UNL     1      32.601 -11.617 -21.702  0.00  0.00    +0.390 N 
ATOM      3  C   UNL     1      33.713 -14.276 -22.240  0.00  0.00    -0.004 C 
ATOM      4  C   UNL     1      34.043 -13.055 -23.106  0.00  0.00    -0.023 C 
ATOM      5  C   UNL     1      33.317 -13.819 -20.832  0.00  0.00    -0.023 C 
ATOM      6  C   UNL     1      32.908 -12.029 -23.078  0.00  0.00    -0.077 C 
ATOM      7  C   UNL     1      32.207 -12.768 -20.879  0.00  0.00    -0.077 C 
ATOM      8  H   UNL     1      33.446 -11.216 -21.297  0.00  0.00    -0.079 HD
BRANCH   2   9
ATOM      9  C   UNL     1      31.550 -10.598 -21.695  0.00  0.00    -0.050 C 
BRANCH   9  10
ATOM     10  C   UNL     1      32.048  -9.284 -21.155  0.00  0.00    -0.043 C 
ATOM     11  C   UNL     1      31.873  -8.988 -19.810  0.00  0.00    -0.006 C 
ATOM     12  C   UNL     1      32.675  -8.387 -22.008  0.00  0.00    -0.006 C 
ATOM     13  C   UNL     1      32.334  -7.770 -19.310  0.00  0.00    -0.000 C 
ATOM     14  C   UNL     1      33.136  -7.170 -21.509  0.00  0.00    -0.000 C 
ATOM     15  C   UNL     1      32.964  -6.861 -20.159  0.00  0.00    -0.000 C 
ENDBRANCH   9  10
ENDBRANCH   2   9
ENDBRANCH   1   3
BRANCH   1  16
ATOM     16  C   UNL     1      35.175 -15.849 -23.568  0.00  0.00    +0.069 C 
BRANCH  16  18
ATOM     17  O   UNL     1      34.352 -17.798 -24.722  0.00  0.00    -0.291 OA
ATOM     18  C   UNL     1      34.840 -17.349 -23.665  0.00  0.00    +0.173 C 
BRANCH  18  20
ATOM     19  N   UNL     1      33.152 -20.520 -20.396  0.00  0.00    -0.333 N 
ATOM     20  C   UNL     1      35.092 -18.223 -22.531  0.00  0.00    +0.036 C 
ATOM     21  C   UNL     1      35.561 -19.934 -20.347  0.00  0.00    -0.009 C 
ATOM     22  C   UNL     1      35.937 -20.860 -19.207  0.00  0.00    +0.028 C 
ATOM     23  C   UNL     1      34.260 -19.844 -20.889  0.00  0.00    +0.041 C 
ATOM     24  C   UNL     1      35.310 -22.250 -19.318  0.00  0.00    +0.006 C 
ATOM     25  C   UNL     1      33.852 -22.317 -18.867  0.00  0.00    +0.022 C 
ATOM     26  C   UNL     1      34.058 -18.992 -21.995  0.00  0.00    +0.017 C 
ATOM     27  C   UNL     1      33.062 -21.029 -19.046  0.00  0.00    +0.087 C 
ATOM     28  C   UNL     1      36.358 -18.288 -21.971  0.00  0.00    +0.003 C 
ATOM     29  C   UNL     1      36.591 -19.134 -20.888  0.00  0.00    -0.003 C 
ATOM     30  H   UNL     1      32.385 -20.660 -20.998  0.00  0.00    +0.147 HD
ENDBRANCH  18  20
ENDBRANCH  16  18
ENDBRANCH   1  16
TORSDOF 6
ENDMDL
MODEL 6
REMARK VINA RESULT:     -11.5      6.891     11.456
REMARK  Name = 198752
REMARK  6 active torsions:
REMARK  status: ('A' for Active; 'I' for Inactive)
REMARK    1  A    between atoms: C_1  and  C_3
REMARK    2  A    between atoms: C_1  and  C_16
REMARK    3  A    between atoms: N_2  and  C_9
REMARK    4  A    between atoms: C_9  and  C_10
REMARK    5  A    between atoms: C_16  and  C_18
REMARK    6  A    between atoms: C_18  and  C_20
REMARK                            x       y       z     vdW  Elec       q    Type
REMARK                         _______ _______ _______ _____ _____    ______ ____
ROOT
ATOM      1  C   UNL     1      32.784 -23.207 -15.151  0.00  0.00    +0.008 C 
ENDROOT
BRANCH   1   3
ATOM      2  N   UNL     1      36.007 -25.073 -12.963  0.00  0.00    +0.390 N 
ATOM      3  C   UNL     1      34.030 -23.357 -14.282  0.00  0.00    -0.004 C 
ATOM      4  C   UNL     1      35.156 -24.055 -15.051  0.00  0.00    -0.023 C 
ATOM      5  C   UNL     1      33.717 -24.136 -13.000  0.00  0.00    -0.023 C 
ATOM      6  C   UNL     1      36.373 -24.298 -14.156  0.00  0.00    -0.077 C 
ATOM      7  C   UNL     1      34.982 -24.377 -12.173  0.00  0.00    -0.077 C 
ATOM      8  H   UNL     1      35.616 -25.962 -13.272  0.00  0.00    -0.079 HD
BRANCH   2   9
ATOM      9  C   UNL     1      37.188 -25.342 -12.143  0.00  0.00    -0.050 C 
BRANCH   9  10
ATOM     10  C   UNL     1      38.284 -26.001 -12.937  0.00  0.00    -0.043 C 
ATOM     11  C   UNL     1      38.125 -27.314 -13.361  0.00  0.00    -0.006 C 
ATOM     12  C   UNL     1      39.437 -25.288 -13.237  0.00  0.00    -0.006 C 
ATOM     13  C   UNL     1      39.141 -27.925 -14.097  0.00  0.00    -0.000 C 
ATOM     14  C   UNL     1      40.451 -25.899 -13.973  0.00  0.00    -0.000 C 
ATOM     15  C   UNL     1      40.303 -27.218 -14.403  0.00  0.00    -0.000 C 
ENDBRANCH   9  10
ENDBRANCH   2   9
ENDBRANCH   1   3
BRANCH   1  16
ATOM     16  C   UNL     1      33.078 -23.536 -16.614  0.00  0.00    +0.069 C 
BRANCH  16  18
ATOM     17  O   UNL     1      31.478 -22.078 -17.674  0.00  0.00    -0.291 OA
ATOM     18  C   UNL     1      32.677 -22.412 -17.588  0.00  0.00    +0.173 C 
BRANCH  18  20
ATOM     19  N   UNL     1      33.799 -19.584 -21.374  0.00  0.00    -0.333 N 
ATOM     20  C   UNL     1      33.693 -21.754 -18.395  0.00  0.00    +0.036 C 
ATOM     21  C   UNL     1      35.639 -20.460 -19.960  0.00  0.00    -0.009 C 
ATOM     22  C   UNL     1      36.766 -19.767 -20.702  0.00  0.00    +0.028 C 
ATOM     23  C   UNL     1      34.274 -20.308 -20.289  0.00  0.00    +0.041 C 
ATOM     24  C   UNL     1      36.461 -18.311 -21.051  0.00  0.00    +0.006 C 
ATOM     25  C   UNL     1      35.570 -18.135 -22.280  0.00  0.00    +0.022 C 
ATOM     26  C   UNL     1      33.319 -20.955 -19.475  0.00  0.00    +0.017 C 
ATOM     27  C   UNL     1      34.598 -19.276 -22.539  0.00  0.00    +0.087 C 
ATOM     28  C   UNL     1      35.036 -21.928 -18.101  0.00  0.00    +0.003 C 
ATOM     29  C   UNL     1      36.000 -21.289 -18.876  0.00  0.00    -0.003 C 
ATOM     30  H   UNL     1      32.868 -19.264 -21.350  0.00  0.00    +0.147 HD
ENDBRANCH  18  20
ENDBRANCH  16  18
ENDBRANCH   1  16
TORSDOF 6
ENDMDL
MODEL 7
REMARK VINA RESULT:     -11.1      6.143     13.360
REMARK  Name = 198752
REMARK  6 active torsions:
REMARK  status: ('A' for Active; 'I' for Inactive)
REMARK    1  A    between atoms: C_1  and  C_3
REMARK    2  A    between atoms: C_1  and  C_16
REMARK    3  A    between atoms: N_2  and  C_9
REMARK    4  A    between atoms: C_9  and  C_10
REMARK    5  A    between atoms: C_16  and  C_18
REMARK    6  A    between atoms: C_18  and  C_20
REMARK                            x       y       z     vdW  Elec       q    Type
REMARK                         _______ _______ _______ _____ _____    ______ ____
ROOT
ATOM      1  C   UNL     1      32.653 -22.333 -17.778  0.00  0.00    +0.008 C 
ENDROOT
BRANCH   1   3
ATOM      2  N   UNL     1      35.401 -19.900 -20.056  0.00  0.00    +0.390 N 
ATOM      3  C   UNL     1      33.579 -21.890 -18.907  0.00  0.00    -0.004 C 
ATOM      4  C   UNL     1      35.012 -21.697 -18.400  0.00  0.00    -0.023 C 
ATOM      5  C   UNL     1      33.079 -20.592 -19.552  0.00  0.00    -0.023 C 
ATOM      6  C   UNL     1      35.924 -21.156 -19.503  0.00  0.00    -0.077 C 
ATOM      7  C   UNL     1      34.056 -20.088 -20.616  0.00  0.00    -0.077 C 
ATOM      8  H   UNL     1      35.332 -19.225 -19.294  0.00  0.00    -0.079 HD
BRANCH   2   9
ATOM      9  C   UNL     1      36.309 -19.369 -21.072  0.00  0.00    -0.050 C 
BRANCH   9  10
ATOM     10  C   UNL     1      35.567 -18.642 -22.161  0.00  0.00    -0.043 C 
ATOM     11  C   UNL     1      35.532 -17.254 -22.155  0.00  0.00    -0.006 C 
ATOM     12  C   UNL     1      34.929 -19.368 -23.158  0.00  0.00    -0.006 C 
ATOM     13  C   UNL     1      34.844 -16.580 -23.165  0.00  0.00    -0.000 C 
ATOM     14  C   UNL     1      34.242 -18.694 -24.166  0.00  0.00    -0.000 C 
ATOM     15  C   UNL     1      34.199 -17.300 -24.170  0.00  0.00    -0.000 C 
ENDBRANCH   9  10
ENDBRANCH   2   9
ENDBRANCH   1   3
BRANCH   1  16
ATOM     16  C   UNL     1      33.258 -23.486 -16.977  0.00  0.00    +0.069 C 
BRANCH  16  18
ATOM     17  O   UNL     1      32.035 -22.803 -15.015  0.00  0.00    -0.291 OA
ATOM     18  C   UNL     1      33.074 -23.338 -15.455  0.00  0.00    +0.173 C 
BRANCH  18  20
ATOM     19  N   UNL     1      37.572 -25.049 -14.800  0.00  0.00    -0.333 N 
ATOM     20  C   UNL     1      34.105 -23.819 -14.549  0.00  0.00    +0.036 C 
ATOM     21  C   UNL     1      36.119 -24.738 -12.813  0.00  0.00    -0.009 C 
ATOM     22  C   UNL     1      37.146 -25.169 -11.785  0.00  0.00    +0.028 C 
ATOM     23  C   UNL     1      36.382 -24.662 -14.199  0.00  0.00    +0.041 C 
ATOM     24  C   UNL     1      38.538 -24.586 -12.031  0.00  0.00    +0.006 C 
ATOM     25  C   UNL     1      39.340 -25.315 -13.108  0.00  0.00    +0.022 C 
ATOM     26  C   UNL     1      35.359 -24.180 -15.043  0.00  0.00    +0.017 C 
ATOM     27  C   UNL     1      38.506 -25.973 -14.197  0.00  0.00    +0.087 C 
ATOM     28  C   UNL     1      33.842 -23.932 -13.193  0.00  0.00    +0.003 C 
ATOM     29  C   UNL     1      34.839 -24.389 -12.333  0.00  0.00    -0.003 C 
ATOM     30  H   UNL     1      37.792 -24.675 -15.684  0.00  0.00    +0.147 HD
ENDBRANCH  18  20
ENDBRANCH  16  18
ENDBRANCH   1  16
TORSDOF 6
ENDMDL
MODEL 8
REMARK VINA RESULT:     -10.9      2.905      5.836
REMARK  Name = 198752
REMARK  6 active torsions:
REMARK  status: ('A' for Active; 'I' for Inactive)
REMARK    1  A    between atoms: C_1  and  C_3
REMARK    2  A    between atoms: C_1  and  C_16
REMARK    3  A    between atoms: N_2  and  C_9
REMARK    4  A    between atoms: C_9  and  C_10
REMARK    5  A    between atoms: C_16  and  C_18
REMARK    6  A    between atoms: C_18  and  C_20
REMARK                            x       y       z     vdW  Elec       q    Type
REMARK                         _______ _______ _______ _____ _____    ______ ____
ROOT
ATOM      1  C   UNL     1      36.398 -19.351 -20.224  0.00  0.00    +0.008 C 
ENDROOT
BRANCH   1   3
ATOM      2  N   UNL     1      33.865 -22.132 -18.102  0.00  0.00    +0.390 N 
ATOM      3  C   UNL     1      35.644 -20.633 -19.887  0.00  0.00    -0.004 C 
ATOM      4  C   UNL     1      34.132 -20.385 -19.833  0.00  0.00    -0.023 C 
ATOM      5  C   UNL     1      36.119 -21.218 -18.553  0.00  0.00    -0.023 C 
ATOM      6  C   UNL     1      33.377 -21.643 -19.398  0.00  0.00    -0.077 C 
ATOM      7  C   UNL     1      35.298 -22.448 -18.160  0.00  0.00    -0.077 C 
ATOM      8  H   UNL     1      33.734 -21.389 -17.416  0.00  0.00    -0.079 HD
BRANCH   2   9
ATOM      9  C   UNL     1      33.099 -23.303 -17.674  0.00  0.00    -0.050 C 
BRANCH   9  10
ATOM     10  C   UNL     1      32.619 -23.171 -16.254  0.00  0.00    -0.043 C 
ATOM     11  C   UNL     1      31.281 -22.898 -16.008  0.00  0.00    -0.006 C 
ATOM     12  C   UNL     1      33.520 -23.325 -15.209  0.00  0.00    -0.006 C 
ATOM     13  C   UNL     1      30.836 -22.775 -14.691  0.00  0.00    -0.000 C 
ATOM     14  C   UNL     1      33.076 -23.202 -13.894  0.00  0.00    -0.000 C 
ATOM     15  C   UNL     1      31.733 -22.927 -13.635  0.00  0.00    -0.000 C 
ENDBRANCH   9  10
ENDBRANCH   2   9
ENDBRANCH   1   3
BRANCH   1  16
ATOM     16  C   UNL     1      35.460 -18.277 -20.776  0.00  0.00    +0.069 C 
BRANCH  16  18
ATOM     17  O   UNL     1      36.453 -18.696 -22.932  0.00  0.00    -0.291 OA
ATOM     18  C   UNL     1      35.705 -17.954 -22.262  0.00  0.00    +0.173 C 
BRANCH  18  20
ATOM     19  N   UNL     1      33.919 -13.463 -21.789  0.00  0.00    -0.333 N 
ATOM     20  C   UNL     1      35.067 -16.797 -22.868  0.00  0.00    +0.036 C 
ATOM     21  C   UNL     1      33.847 -14.539 -24.022  0.00  0.00    -0.009 C 
ATOM     22  C   UNL     1      33.236 -13.363 -24.757  0.00  0.00    +0.028 C 
ATOM     23  C   UNL     1      34.183 -14.519 -22.650  0.00  0.00    +0.041 C 
ATOM     24  C   UNL     1      33.860 -12.019 -24.382  0.00  0.00    +0.006 C 
ATOM     25  C   UNL     1      33.348 -11.437 -23.065  0.00  0.00    +0.022 C 
ATOM     26  C   UNL     1      34.810 -15.659 -22.103  0.00  0.00    +0.017 C 
ATOM     27  C   UNL     1      32.902 -12.466 -22.037  0.00  0.00    +0.087 C 
ATOM     28  C   UNL     1      34.702 -16.823 -24.204  0.00  0.00    +0.003 C 
ATOM     29  C   UNL     1      34.096 -15.706 -24.776  0.00  0.00    -0.003 C 
ATOM     30  H   UNL     1      34.452 -13.389 -20.964  0.00  0.00    +0.147 HD
ENDBRANCH  18  20
ENDBRANCH  16  18
ENDBRANCH   1  16
TORSDOF 6
ENDMDL
MODEL 9
REMARK VINA RESULT:     -10.9      5.271     12.966
REMARK  Name = 198752
REMARK  6 active torsions:
REMARK  status: ('A' for Active; 'I' for Inactive)
REMARK    1  A    between atoms: C_1  and  C_3
REMARK    2  A    between atoms: C_1  and  C_16
REMARK    3  A    between atoms: N_2  and  C_9
REMARK    4  A    between atoms: C_9  and  C_10
REMARK    5  A    between atoms: C_16  and  C_18
REMARK    6  A    between atoms: C_18  and  C_20
REMARK                            x       y       z     vdW  Elec       q    Type
REMARK                         _______ _______ _______ _____ _____    ______ ____
ROOT
ATOM      1  C   UNL     1      32.784 -21.875 -18.358  0.00  0.00    +0.008 C 
ENDROOT
BRANCH   1   3
ATOM      2  N   UNL     1      35.072 -19.298 -20.962  0.00  0.00    +0.390 N 
ATOM      3  C   UNL     1      33.587 -21.407 -19.568  0.00  0.00    -0.004 C 
ATOM      4  C   UNL     1      35.005 -20.993 -19.161  0.00  0.00    -0.023 C 
ATOM      5  C   UNL     1      32.890 -20.240 -20.275  0.00  0.00    -0.023 C 
ATOM      6  C   UNL     1      35.784 -20.429 -20.351  0.00  0.00    -0.077 C 
ATOM      7  C   UNL     1      33.739 -19.701 -21.428  0.00  0.00    -0.077 C 
ATOM      8  H   UNL     1      34.952 -18.580 -20.249  0.00  0.00    -0.079 HD
BRANCH   2   9
ATOM      9  C   UNL     1      35.852 -18.737 -22.066  0.00  0.00    -0.050 C 
BRANCH   9  10
ATOM     10  C   UNL     1      35.290 -17.423 -22.537  0.00  0.00    -0.043 C 
ATOM     11  C   UNL     1      34.874 -17.291 -23.855  0.00  0.00    -0.006 C 
ATOM     12  C   UNL     1      35.194 -16.361 -21.649  0.00  0.00    -0.006 C 
ATOM     13  C   UNL     1      34.354 -16.073 -24.292  0.00  0.00    -0.000 C 
ATOM     14  C   UNL     1      34.673 -15.144 -22.085  0.00  0.00    -0.000 C 
ATOM     15  C   UNL     1      34.254 -14.999 -23.408  0.00  0.00    -0.000 C 
ENDBRANCH   9  10
ENDBRANCH   2   9
ENDBRANCH   1   3
BRANCH   1  16
ATOM     16  C   UNL     1      33.410 -23.112 -17.713  0.00  0.00    +0.069 C 
BRANCH  16  18
ATOM     17  O   UNL     1      32.086 -23.065 -15.700  0.00  0.00    -0.291 OA
ATOM     18  C   UNL     1      33.232 -23.163 -16.184  0.00  0.00    +0.173 C 
BRANCH  18  20
ATOM     19  N   UNL     1      35.137 -24.801 -12.028  0.00  0.00    -0.333 N 
ATOM     20  C   UNL     1      34.393 -23.324 -15.324  0.00  0.00    +0.036 C 
ATOM     21  C   UNL     1      36.628 -23.661 -13.649  0.00  0.00    -0.009 C 
ATOM     22  C   UNL     1      37.906 -23.831 -12.851  0.00  0.00    +0.028 C 
ATOM     23  C   UNL     1      35.374 -24.166 -13.239  0.00  0.00    +0.041 C 
ATOM     24  C   UNL     1      38.066 -25.226 -12.247  0.00  0.00    +0.006 C 
ATOM     25  C   UNL     1      37.261 -25.451 -10.968  0.00  0.00    +0.022 C 
ATOM     26  C   UNL     1      34.275 -23.999 -14.108  0.00  0.00    +0.017 C 
ATOM     27  C   UNL     1      35.979 -24.639 -10.863  0.00  0.00    +0.087 C 
ATOM     28  C   UNL     1      35.618 -22.798 -15.702  0.00  0.00    +0.003 C 
ATOM     29  C   UNL     1      36.725 -22.963 -14.872  0.00  0.00    -0.003 C 
ATOM     30  H   UNL     1      34.352 -25.392 -11.956  0.00  0.00    +0.147 HD
ENDBRANCH  18  20
ENDBRANCH  16  18
ENDBRANCH   1  16
TORSDOF 6
ENDMDL
