MODEL 1
REMARK VINA RESULT:     -11.3      0.000      0.000
REMARK  Name = 6323454
REMARK  1 active torsions:
REMARK  status: ('A' for Active; 'I' for Inactive)
REMARK    1  A    between atoms: C_18  and  O_22
REMARK                            x       y       z     vdW  Elec       q    Type
REMARK                         _______ _______ _______ _____ _____    ______ ____
ROOT
ATOM      1  O   UNL     1      34.341 -24.480 -13.046  0.00  0.00    -0.350 OA
ATOM      2  O   UNL     1      37.409 -22.747 -13.217  0.00  0.00    -0.445 OA
ATOM      3  O   UNL     1      37.814 -22.287 -15.939  0.00  0.00    -0.287 OA
ATOM      4  O   UNL     1      38.286 -22.661 -11.086  0.00  0.00    -0.250 OA
ATOM      5  O   UNL     1      32.677 -23.403 -16.830  0.00  0.00    -0.287 OA
ATOM      6  C   UNL     1      35.327 -23.528 -12.707  0.00  0.00    +0.171 C 
ATOM      7  C   UNL     1      36.378 -23.545 -13.787  0.00  0.00    +0.221 C 
ATOM      8  C   UNL     1      35.760 -23.087 -15.072  0.00  0.00    +0.060 C 
ATOM      9  C   UNL     1      33.594 -24.058 -14.219  0.00  0.00    +0.141 C 
ATOM     10  C   UNL     1      34.455 -23.354 -15.277  0.00  0.00    +0.046 C 
ATOM     11  C   UNL     1      36.184 -23.819 -11.500  0.00  0.00    +0.143 C 
ATOM     12  C   UNL     1      37.413 -23.017 -11.862  0.00  0.00    +0.320 C 
ATOM     13  C   UNL     1      36.610 -22.439 -16.100  0.00  0.00    +0.195 C 
ATOM     14  C   UNL     1      33.817 -23.027 -16.583  0.00  0.00    +0.197 C 
ATOM     15  C   UNL     1      32.422 -23.199 -13.735  0.00  0.00    +0.037 C 
ATOM     16  C   UNL     1      35.952 -21.982 -17.337  0.00  0.00    +0.045 C 
ATOM     17  C   UNL     1      34.606 -22.266 -17.569  0.00  0.00    +0.075 C 
ATOM     18  C   UNL     1      33.998 -21.834 -18.754  0.00  0.00    +0.137 C 
ATOM     19  C   UNL     1      36.691 -21.270 -18.289  0.00  0.00    +0.003 C 
ATOM     20  C   UNL     1      34.736 -21.121 -19.700  0.00  0.00    +0.037 C 
ATOM     21  C   UNL     1      36.080 -20.840 -19.468  0.00  0.00    +0.003 C 
ENDROOT
BRANCH  18  22
ATOM     22  O   UNL     1      32.686 -22.070 -19.040  0.00  0.00    -0.505 OA
ATOM     23  H   UNL     1      32.030 -21.913 -18.390  0.00  0.00    +0.292 HD
ENDBRANCH  18  22
TORSDOF 1
ENDMDL
MODEL 2
REMARK VINA RESULT:     -10.4      1.890      6.188
REMARK  Name = 6323454
REMARK  1 active torsions:
REMARK  status: ('A' for Active; 'I' for Inactive)
REMARK    1  A    between atoms: C_18  and  O_22
REMARK                            x       y       z     vdW  Elec       q    Type
REMARK                         _______ _______ _______ _____ _____    ______ ____
ROOT
ATOM      1  O   UNL     1      37.042 -22.109 -17.756  0.00  0.00    -0.350 OA
ATOM      2  O   UNL     1      34.040 -21.127 -19.326  0.00  0.00    -0.445 OA
ATOM      3  O   UNL     1      32.039 -22.517 -17.966  0.00  0.00    -0.287 OA
ATOM      4  O   UNL     1      34.591 -19.791 -21.123  0.00  0.00    -0.250 OA
ATOM      5  O   UNL     1      35.496 -23.522 -14.034  0.00  0.00    -0.287 OA
ATOM      6  C   UNL     1      36.090 -21.240 -18.332  0.00  0.00    +0.171 C 
ATOM      7  C   UNL     1      34.815 -22.019 -18.534  0.00  0.00    +0.221 C 
ATOM      8  C   UNL     1      34.277 -22.423 -17.195  0.00  0.00    +0.060 C 
ATOM      9  C   UNL     1      36.669 -22.460 -16.396  0.00  0.00    +0.141 C 
ATOM     10  C   UNL     1      35.159 -22.652 -16.202  0.00  0.00    +0.046 C 
ATOM     11  C   UNL     1      36.342 -20.776 -19.744  0.00  0.00    +0.143 C 
ATOM     12  C   UNL     1      34.921 -20.483 -20.173  0.00  0.00    +0.320 C 
ATOM     13  C   UNL     1      32.819 -22.638 -17.030  0.00  0.00    +0.195 C 
ATOM     14  C   UNL     1      34.689 -23.169 -14.886  0.00  0.00    +0.197 C 
ATOM     15  C   UNL     1      37.260 -21.396 -15.466  0.00  0.00    +0.037 C 
ATOM     16  C   UNL     1      32.334 -23.010 -15.688  0.00  0.00    +0.045 C 
ATOM     17  C   UNL     1      33.236 -23.266 -14.656  0.00  0.00    +0.075 C 
ATOM     18  C   UNL     1      32.760 -23.628 -13.390  0.00  0.00    +0.137 C 
ATOM     19  C   UNL     1      30.958 -23.118 -15.458  0.00  0.00    +0.003 C 
ATOM     20  C   UNL     1      31.387 -23.732 -13.162  0.00  0.00    +0.037 C 
ATOM     21  C   UNL     1      30.488 -23.478 -14.195  0.00  0.00    +0.003 C 
ENDROOT
BRANCH  18  22
ATOM     22  O   UNL     1      33.586 -23.884 -12.336  0.00  0.00    -0.505 OA
ATOM     23  H   UNL     1      34.331 -23.337 -12.180  0.00  0.00    +0.292 HD
ENDBRANCH  18  22
TORSDOF 1
ENDMDL
MODEL 3
REMARK VINA RESULT:     -10.2      2.044      4.469
REMARK  Name = 6323454
REMARK  1 active torsions:
REMARK  status: ('A' for Active; 'I' for Inactive)
REMARK    1  A    between atoms: C_18  and  O_22
REMARK                            x       y       z     vdW  Elec       q    Type
REMARK                         _______ _______ _______ _____ _____    ______ ____
ROOT
ATOM      1  O   UNL     1      33.447 -24.203 -13.165  0.00  0.00    -0.350 OA
ATOM      2  O   UNL     1      30.542 -24.103 -15.163  0.00  0.00    -0.445 OA
ATOM      3  O   UNL     1      31.114 -22.234 -17.155  0.00  0.00    -0.287 OA
ATOM      4  O   UNL     1      28.953 -25.441 -14.161  0.00  0.00    -0.250 OA
ATOM      5  O   UNL     1      36.287 -22.589 -15.917  0.00  0.00    -0.287 OA
ATOM      6  C   UNL     1      32.346 -24.695 -13.900  0.00  0.00    +0.171 C 
ATOM      7  C   UNL     1      31.757 -23.546 -14.677  0.00  0.00    +0.221 C 
ATOM      8  C   UNL     1      32.765 -23.069 -15.677  0.00  0.00    +0.060 C 
ATOM      9  C   UNL     1      34.537 -23.830 -14.050  0.00  0.00    +0.141 C 
ATOM     10  C   UNL     1      34.071 -23.185 -15.363  0.00  0.00    +0.046 C 
ATOM     11  C   UNL     1      31.134 -25.135 -13.118  0.00  0.00    +0.143 C 
ATOM     12  C   UNL     1      30.068 -24.941 -14.173  0.00  0.00    +0.320 C 
ATOM     13  C   UNL     1      32.302 -22.417 -16.925  0.00  0.00    +0.195 C 
ATOM     14  C   UNL     1      35.113 -22.622 -16.267  0.00  0.00    +0.197 C 
ATOM     15  C   UNL     1      35.400 -25.077 -14.271  0.00  0.00    +0.037 C 
ATOM     16  C   UNL     1      33.330 -21.989 -17.891  0.00  0.00    +0.045 C 
ATOM     17  C   UNL     1      34.684 -22.088 -17.573  0.00  0.00    +0.075 C 
ATOM     18  C   UNL     1      35.649 -21.666 -18.496  0.00  0.00    +0.137 C 
ATOM     19  C   UNL     1      32.938 -21.467 -19.130  0.00  0.00    +0.003 C 
ATOM     20  C   UNL     1      35.256 -21.150 -19.732  0.00  0.00    +0.037 C 
ATOM     21  C   UNL     1      33.903 -21.050 -20.048  0.00  0.00    +0.003 C 
ENDROOT
BRANCH  18  22
ATOM     22  O   UNL     1      36.988 -21.742 -18.252  0.00  0.00    -0.505 OA
ATOM     23  H   UNL     1      37.390 -22.575 -18.102  0.00  0.00    +0.292 HD
ENDBRANCH  18  22
TORSDOF 1
ENDMDL
MODEL 4
REMARK VINA RESULT:      -9.8      2.094      5.478
REMARK  Name = 6323454
REMARK  1 active torsions:
REMARK  status: ('A' for Active; 'I' for Inactive)
REMARK    1  A    between atoms: C_18  and  O_22
REMARK                            x       y       z     vdW  Elec       q    Type
REMARK                         _______ _______ _______ _____ _____    ______ ____
ROOT
ATOM      1  O   UNL     1      36.532 -23.594 -15.356  0.00  0.00    -0.350 OA
ATOM      2  O   UNL     1      34.890 -21.752 -17.877  0.00  0.00    -0.445 OA
ATOM      3  O   UNL     1      32.234 -22.602 -17.761  0.00  0.00    -0.287 OA
ATOM      4  O   UNL     1      36.487 -20.537 -19.012  0.00  0.00    -0.250 OA
ATOM      5  O   UNL     1      33.179 -24.700 -12.952  0.00  0.00    -0.287 OA
ATOM      6  C   UNL     1      36.172 -22.471 -16.132  0.00  0.00    +0.171 C 
ATOM      7  C   UNL     1      34.993 -22.859 -16.989  0.00  0.00    +0.221 C 
ATOM      8  C   UNL     1      33.827 -23.162 -16.100  0.00  0.00    +0.060 C 
ATOM      9  C   UNL     1      35.509 -23.893 -14.368  0.00  0.00    +0.141 C 
ATOM     10  C   UNL     1      34.078 -23.671 -14.877  0.00  0.00    +0.046 C 
ATOM     11  C   UNL     1      37.140 -22.028 -17.200  0.00  0.00    +0.143 C 
ATOM     12  C   UNL     1      36.180 -21.337 -18.143  0.00  0.00    +0.320 C 
ATOM     13  C   UNL     1      32.449 -22.976 -16.615  0.00  0.00    +0.195 C 
ATOM     14  C   UNL     1      32.955 -24.100 -13.996  0.00  0.00    +0.197 C 
ATOM     15  C   UNL     1      35.829 -23.076 -13.112  0.00  0.00    +0.037 C 
ATOM     16  C   UNL     1      31.333 -23.262 -15.695  0.00  0.00    +0.045 C 
ATOM     17  C   UNL     1      31.579 -23.804 -14.434  0.00  0.00    +0.075 C 
ATOM     18  C   UNL     1      30.507 -24.080 -13.575  0.00  0.00    +0.137 C 
ATOM     19  C   UNL     1      30.020 -22.999 -16.101  0.00  0.00    +0.003 C 
ATOM     20  C   UNL     1      29.199 -23.813 -13.980  0.00  0.00    +0.037 C 
ATOM     21  C   UNL     1      28.956 -23.274 -15.241  0.00  0.00    +0.003 C 
ENDROOT
BRANCH  18  22
ATOM     22  O   UNL     1      30.677 -24.603 -12.327  0.00  0.00    -0.505 OA
ATOM     23  H   UNL     1      30.613 -24.047 -11.574  0.00  0.00    +0.292 HD
ENDBRANCH  18  22
TORSDOF 1
ENDMDL
MODEL 5
REMARK VINA RESULT:      -9.7      2.106      5.787
REMARK  Name = 6323454
REMARK  1 active torsions:
REMARK  status: ('A' for Active; 'I' for Inactive)
REMARK    1  A    between atoms: C_18  and  O_22
REMARK                            x       y       z     vdW  Elec       q    Type
REMARK                         _______ _______ _______ _____ _____    ______ ____
ROOT
ATOM      1  O   UNL     1      31.937 -22.934 -14.387  0.00  0.00    -0.350 OA
ATOM      2  O   UNL     1      34.137 -22.906 -17.144  0.00  0.00    -0.445 OA
ATOM      3  O   UNL     1      36.684 -23.107 -16.022  0.00  0.00    -0.287 OA
ATOM      4  O   UNL     1      32.880 -22.539 -19.042  0.00  0.00    -0.250 OA
ATOM      5  O   UNL     1      34.474 -24.704 -11.442  0.00  0.00    -0.287 OA
ATOM      6  C   UNL     1      32.439 -23.267 -15.664  0.00  0.00    +0.171 C 
ATOM      7  C   UNL     1      33.844 -22.729 -15.764  0.00  0.00    +0.221 C 
ATOM      8  C   UNL     1      34.706 -23.437 -14.763  0.00  0.00    +0.060 C 
ATOM      9  C   UNL     1      32.631 -23.674 -13.347  0.00  0.00    +0.141 C 
ATOM     10  C   UNL     1      34.131 -23.857 -13.618  0.00  0.00    +0.046 C 
ATOM     11  C   UNL     1      31.812 -22.584 -16.854  0.00  0.00    +0.143 C 
ATOM     12  C   UNL     1      32.963 -22.667 -17.831  0.00  0.00    +0.320 C 
ATOM     13  C   UNL     1      36.159 -23.576 -15.021  0.00  0.00    +0.195 C 
ATOM     14  C   UNL     1      34.962 -24.461 -12.539  0.00  0.00    +0.197 C 
ATOM     15  C   UNL     1      31.893 -25.003 -13.156  0.00  0.00    +0.037 C 
ATOM     16  C   UNL     1      36.961 -24.303 -14.020  0.00  0.00    +0.045 C 
ATOM     17  C   UNL     1      36.383 -24.729 -12.825  0.00  0.00    +0.075 C 
ATOM     18  C   UNL     1      37.161 -25.409 -11.879  0.00  0.00    +0.137 C 
ATOM     19  C   UNL     1      38.315 -24.554 -14.272  0.00  0.00    +0.003 C 
ATOM     20  C   UNL     1      38.510 -25.660 -12.134  0.00  0.00    +0.037 C 
ATOM     21  C   UNL     1      39.086 -25.233 -13.327  0.00  0.00    +0.003 C 
ENDROOT
BRANCH  18  22
ATOM     22  O   UNL     1      36.658 -25.859 -10.695  0.00  0.00    -0.505 OA
ATOM     23  H   UNL     1      36.634 -25.290  -9.950  0.00  0.00    +0.292 HD
ENDBRANCH  18  22
TORSDOF 1
ENDMDL
MODEL 6
REMARK VINA RESULT:      -9.5      2.376      5.410
REMARK  Name = 6323454
REMARK  1 active torsions:
REMARK  status: ('A' for Active; 'I' for Inactive)
REMARK    1  A    between atoms: C_18  and  O_22
REMARK                            x       y       z     vdW  Elec       q    Type
REMARK                         _______ _______ _______ _____ _____    ______ ____
ROOT
ATOM      1  O   UNL     1      30.712 -23.756 -13.515  0.00  0.00    -0.350 OA
ATOM      2  O   UNL     1      29.726 -23.397 -16.883  0.00  0.00    -0.445 OA
ATOM      3  O   UNL     1      31.799 -21.962 -18.081  0.00  0.00    -0.287 OA
ATOM      4  O   UNL     1      27.599 -24.264 -17.089  0.00  0.00    -0.250 OA
ATOM      5  O   UNL     1      34.914 -23.095 -13.906  0.00  0.00    -0.287 OA
ATOM      6  C   UNL     1      30.202 -24.132 -14.777  0.00  0.00    +0.171 C 
ATOM      7  C   UNL     1      30.488 -23.013 -15.745  0.00  0.00    +0.221 C 
ATOM      8  C   UNL     1      31.972 -22.876 -15.902  0.00  0.00    +0.060 C 
ATOM      9  C   UNL     1      32.164 -23.718 -13.532  0.00  0.00    +0.141 C 
ATOM     10  C   UNL     1      32.751 -23.187 -14.848  0.00  0.00    +0.046 C 
ATOM     11  C   UNL     1      28.703 -24.226 -14.918  0.00  0.00    +0.143 C 
ATOM     12  C   UNL     1      28.572 -23.987 -16.405  0.00  0.00    +0.320 C 
ATOM     13  C   UNL     1      32.524 -22.329 -17.165  0.00  0.00    +0.195 C 
ATOM     14  C   UNL     1      34.223 -22.959 -14.908  0.00  0.00    +0.197 C 
ATOM     15  C   UNL     1      32.666 -25.122 -13.179  0.00  0.00    +0.037 C 
ATOM     16  C   UNL     1      33.991 -22.238 -17.283  0.00  0.00    +0.045 C 
ATOM     17  C   UNL     1      34.808 -22.541 -16.195  0.00  0.00    +0.075 C 
ATOM     18  C   UNL     1      36.199 -22.439 -16.319  0.00  0.00    +0.137 C 
ATOM     19  C   UNL     1      34.561 -21.830 -18.495  0.00  0.00    +0.003 C 
ATOM     20  C   UNL     1      36.765 -22.035 -17.529  0.00  0.00    +0.037 C 
ATOM     21  C   UNL     1      35.948 -21.731 -18.615  0.00  0.00    +0.003 C 
ENDROOT
BRANCH  18  22
ATOM     22  O   UNL     1      37.055 -22.727 -15.299  0.00  0.00    -0.505 OA
ATOM     23  H   UNL     1      37.961 -22.891 -15.479  0.00  0.00    +0.292 HD
ENDBRANCH  18  22
TORSDOF 1
ENDMDL
MODEL 7
REMARK VINA RESULT:      -9.4     12.588     15.347
REMARK  Name = 6323454
REMARK  1 active torsions:
REMARK  status: ('A' for Active; 'I' for Inactive)
REMARK    1  A    between atoms: C_18  and  O_22
REMARK                            x       y       z     vdW  Elec       q    Type
REMARK                         _______ _______ _______ _____ _____    ______ ____
ROOT
ATOM      1  O   UNL     1      31.432 -11.868 -20.886  0.00  0.00    -0.350 OA
ATOM      2  O   UNL     1      34.215 -12.433 -22.979  0.00  0.00    -0.445 OA
ATOM      3  O   UNL     1      34.450 -10.100 -24.493  0.00  0.00    -0.287 OA
ATOM      4  O   UNL     1      34.917 -14.604 -22.644  0.00  0.00    -0.250 OA
ATOM      5  O   UNL     1      31.260  -7.602 -21.029  0.00  0.00    -0.287 OA
ATOM      6  C   UNL     1      32.735 -12.273 -21.250  0.00  0.00    +0.171 C 
ATOM      7  C   UNL     1      33.005 -11.764 -22.644  0.00  0.00    +0.221 C 
ATOM      8  C   UNL     1      33.009 -10.266 -22.621  0.00  0.00    +0.060 C 
ATOM      9  C   UNL     1      31.365 -10.426 -20.714  0.00  0.00    +0.141 C 
ATOM     10  C   UNL     1      32.216  -9.646 -21.725  0.00  0.00    +0.046 C 
ATOM     11  C   UNL     1      32.968 -13.748 -21.458  0.00  0.00    +0.143 C 
ATOM     12  C   UNL     1      34.144 -13.688 -22.407  0.00  0.00    +0.320 C 
ATOM     13  C   UNL     1      33.807  -9.523 -23.625  0.00  0.00    +0.195 C 
ATOM     14  C   UNL     1      32.091  -8.161 -21.735  0.00  0.00    +0.197 C 
ATOM     15  C   UNL     1      31.735 -10.118 -19.259  0.00  0.00    +0.037 C 
ATOM     16  C   UNL     1      33.800  -8.051 -23.547  0.00  0.00    +0.045 C 
ATOM     17  C   UNL     1      32.973  -7.396 -22.636  0.00  0.00    +0.075 C 
ATOM     18  C   UNL     1      32.969  -5.997 -22.581  0.00  0.00    +0.137 C 
ATOM     19  C   UNL     1      34.623  -7.311 -24.404  0.00  0.00    +0.003 C 
ATOM     20  C   UNL     1      33.793  -5.261 -23.434  0.00  0.00    +0.037 C 
ATOM     21  C   UNL     1      34.618  -5.917 -24.344  0.00  0.00    +0.003 C 
ENDROOT
BRANCH  18  22
ATOM     22  O   UNL     1      32.191  -5.293 -21.710  0.00  0.00    -0.505 OA
ATOM     23  H   UNL     1      31.259  -5.299 -21.805  0.00  0.00    +0.292 HD
ENDBRANCH  18  22
TORSDOF 1
ENDMDL
MODEL 8
REMARK VINA RESULT:      -8.7      1.907      6.198
REMARK  Name = 6323454
REMARK  1 active torsions:
REMARK  status: ('A' for Active; 'I' for Inactive)
REMARK    1  A    between atoms: C_18  and  O_22
REMARK                            x       y       z     vdW  Elec       q    Type
REMARK                         _______ _______ _______ _____ _____    ______ ____
ROOT
ATOM      1  O   UNL     1      32.415 -23.419 -17.297  0.00  0.00    -0.350 OA
ATOM      2  O   UNL     1      30.737 -23.036 -14.218  0.00  0.00    -0.445 OA
ATOM      3  O   UNL     1      32.516 -24.029 -12.311  0.00  0.00    -0.287 OA
ATOM      4  O   UNL     1      28.609 -22.269 -14.669  0.00  0.00    -0.250 OA
ATOM      5  O   UNL     1      36.442 -23.727 -15.904  0.00  0.00    -0.287 OA
ATOM      6  C   UNL     1      31.646 -22.788 -16.296  0.00  0.00    +0.171 C 
ATOM      7  C   UNL     1      31.726 -23.631 -15.049  0.00  0.00    +0.221 C 
ATOM      8  C   UNL     1      33.143 -23.642 -14.562  0.00  0.00    +0.060 C 
ATOM      9  C   UNL     1      33.831 -23.368 -16.973  0.00  0.00    +0.141 C 
ATOM     10  C   UNL     1      34.127 -23.542 -15.477  0.00  0.00    +0.046 C 
ATOM     11  C   UNL     1      30.151 -22.750 -16.492  0.00  0.00    +0.143 C 
ATOM     12  C   UNL     1      29.707 -22.642 -15.051  0.00  0.00    +0.320 C 
ATOM     13  C   UNL     1      33.417 -23.845 -13.119  0.00  0.00    +0.195 C 
ATOM     14  C   UNL     1      35.554 -23.665 -15.063  0.00  0.00    +0.197 C 
ATOM     15  C   UNL     1      34.388 -22.059 -17.544  0.00  0.00    +0.037 C 
ATOM     16  C   UNL     1      34.825 -23.822 -12.683  0.00  0.00    +0.045 C 
ATOM     17  C   UNL     1      35.853 -23.735 -13.621  0.00  0.00    +0.075 C 
ATOM     18  C   UNL     1      37.187 -23.725 -13.192  0.00  0.00    +0.137 C 
ATOM     19  C   UNL     1      35.126 -23.902 -11.319  0.00  0.00    +0.003 C 
ATOM     20  C   UNL     1      37.485 -23.801 -11.831  0.00  0.00    +0.037 C 
ATOM     21  C   UNL     1      36.456 -23.890 -10.896  0.00  0.00    +0.003 C 
ENDROOT
BRANCH  18  22
ATOM     22  O   UNL     1      38.239 -23.635 -14.054  0.00  0.00    -0.505 OA
ATOM     23  H   UNL     1      39.060 -24.030 -13.834  0.00  0.00    +0.292 HD
ENDBRANCH  18  22
TORSDOF 1
ENDMDL
MODEL 9
REMARK VINA RESULT:      -8.7      1.742      3.628
REMARK  Name = 6323454
REMARK  1 active torsions:
REMARK  status: ('A' for Active; 'I' for Inactive)
REMARK    1  A    between atoms: C_18  and  O_22
REMARK                            x       y       z     vdW  Elec       q    Type
REMARK                         _______ _______ _______ _____ _____    ______ ____
ROOT
ATOM      1  O   UNL     1      37.927 -23.296 -12.595  0.00  0.00    -0.350 OA
ATOM      2  O   UNL     1      34.824 -24.229 -11.201  0.00  0.00    -0.445 OA
ATOM      3  O   UNL     1      32.916 -23.162 -12.935  0.00  0.00    -0.287 OA
ATOM      4  O   UNL     1      35.244 -25.269  -9.186  0.00  0.00    -0.250 OA
ATOM      5  O   UNL     1      36.717 -22.505 -16.615  0.00  0.00    -0.287 OA
ATOM      6  C   UNL     1      36.960 -24.132 -11.997  0.00  0.00    +0.171 C 
ATOM      7  C   UNL     1      35.637 -23.411 -12.033  0.00  0.00    +0.221 C 
ATOM      8  C   UNL     1      35.225 -23.228 -13.462  0.00  0.00    +0.060 C 
ATOM      9  C   UNL     1      37.683 -23.158 -14.021  0.00  0.00    +0.141 C 
ATOM     10  C   UNL     1      36.194 -23.086 -14.387  0.00  0.00    +0.046 C 
ATOM     11  C   UNL     1      37.083 -24.381 -10.514  0.00  0.00    +0.143 C 
ATOM     12  C   UNL     1      35.640 -24.696 -10.189  0.00  0.00    +0.320 C 
ATOM     13  C   UNL     1      33.784 -23.125 -13.798  0.00  0.00    +0.195 C 
ATOM     14  C   UNL     1      35.843 -22.784 -15.804  0.00  0.00    +0.197 C 
ATOM     15  C   UNL     1      38.417 -24.304 -14.727  0.00  0.00    +0.037 C 
ATOM     16  C   UNL     1      33.426 -22.972 -15.220  0.00  0.00    +0.045 C 
ATOM     17  C   UNL     1      34.419 -22.808 -16.185  0.00  0.00    +0.075 C 
ATOM     18  C   UNL     1      34.063 -22.652 -17.531  0.00  0.00    +0.137 C 
ATOM     19  C   UNL     1      32.078 -22.979 -15.596  0.00  0.00    +0.003 C 
ATOM     20  C   UNL     1      32.718 -22.663 -17.904  0.00  0.00    +0.037 C 
ATOM     21  C   UNL     1      31.727 -22.825 -16.938  0.00  0.00    +0.003 C 
ENDROOT
BRANCH  18  22
ATOM     22  O   UNL     1      34.982 -22.495 -18.525  0.00  0.00    -0.505 OA
ATOM     23  H   UNL     1      35.641 -21.833 -18.453  0.00  0.00    +0.292 HD
ENDBRANCH  18  22
TORSDOF 1
ENDMDL
