MODEL 1
REMARK VINA RESULT:     -10.6      0.000      0.000
REMARK  Name = 445018
REMARK  7 active torsions:
REMARK  status: ('A' for Active; 'I' for Inactive)
REMARK    1  A    between atoms: N_2  and  S_14
REMARK    2  A    between atoms: N_3  and  C_25
REMARK    3  A    between atoms: C_4  and  C_10
REMARK    4  A    between atoms: N_9  and  O_12
REMARK    5  A    between atoms: S_14  and  C_17
REMARK    6  A    between atoms: C_22  and  O_23
REMARK    7  A    between atoms: C_25  and  C_26
REMARK                            x       y       z     vdW  Elec       q    Type
REMARK                         _______ _______ _______ _____ _____    ______ ____
ROOT
ATOM      1  O   UNL     1      36.284 -22.680 -16.699  0.00  0.00    -0.275 OA
ATOM      2  N   UNL     1      33.173 -23.830 -14.306  0.00  0.00    -0.128 NA
ATOM      3  N   UNL     1      34.017 -23.178 -16.495  0.00  0.00    -0.260 N 
ATOM      4  C   UNL     1      34.458 -23.417 -13.686  0.00  0.00    +0.168 C 
ATOM      5  C   UNL     1      32.870 -23.171 -15.599  0.00  0.00    +0.192 C 
ATOM      6  C   UNL     1      35.268 -22.449 -14.541  0.00  0.00    +0.112 C 
ATOM      7  C   UNL     1      35.266 -22.791 -16.019  0.00  0.00    +0.229 C 
ENDROOT
BRANCH   4  10
ATOM      8  O   UNL     1      35.384 -25.496 -14.377  0.00  0.00    -0.272 OA
ATOM      9  N   UNL     1      35.648 -24.839 -12.177  0.00  0.00    -0.196 N 
ATOM     10  C   UNL     1      35.203 -24.693 -13.465  0.00  0.00    +0.261 C 
ATOM     11  H   UNL     1      35.474 -24.162 -11.484  0.00  0.00    +0.182 HD
BRANCH   9  12
ATOM     12  O   UNL     1      36.366 -26.012 -11.909  0.00  0.00    -0.295 OA
ATOM     13  H   UNL     1      37.256 -25.940 -12.287  0.00  0.00    +0.241 HD
ENDBRANCH   9  12
ENDBRANCH   4  10
BRANCH   2  14
ATOM     14  S   UNL     1      31.847 -24.078 -13.256  0.00  0.00    +0.065 S 
ATOM     15  O   UNL     1      31.783 -22.986 -12.306  0.00  0.00    -0.153 OA
ATOM     16  O   UNL     1      31.848 -25.454 -12.807  0.00  0.00    -0.153 OA
BRANCH  14  17
ATOM     17  C   UNL     1      30.509 -23.881 -14.392  0.00  0.00    +0.122 C 
ATOM     18  C   UNL     1      30.032 -22.609 -14.663  0.00  0.00    +0.023 C 
ATOM     19  C   UNL     1      29.959 -25.002 -14.992  0.00  0.00    +0.023 C 
ATOM     20  C   UNL     1      28.974 -22.454 -15.560  0.00  0.00    +0.038 C 
ATOM     21  C   UNL     1      28.901 -24.847 -15.889  0.00  0.00    +0.038 C 
ATOM     22  C   UNL     1      28.409 -23.572 -16.172  0.00  0.00    +0.139 C 
BRANCH  22  23
ATOM     23  O   UNL     1      27.378 -23.420 -17.048  0.00  0.00    -0.471 OA
ATOM     24  C   UNL     1      26.741 -22.145 -17.085  0.00  0.00    +0.252 C 
ENDBRANCH  22  23
ENDBRANCH  14  17
ENDBRANCH   2  14
BRANCH   3  25
ATOM     25  C   UNL     1      33.790 -23.462 -17.901  0.00  0.00    +0.121 C 
BRANCH  25  26
ATOM     26  C   UNL     1      33.902 -22.227 -18.749  0.00  0.00    -0.002 C 
ATOM     27  C   UNL     1      32.765 -21.475 -19.022  0.00  0.00    -0.003 C 
ATOM     28  C   UNL     1      35.141 -21.849 -19.254  0.00  0.00    -0.003 C 
ATOM     29  C   UNL     1      32.869 -20.329 -19.809  0.00  0.00    -0.000 C 
ATOM     30  C   UNL     1      35.244 -20.702 -20.041  0.00  0.00    -0.000 C 
ATOM     31  C   UNL     1      34.108 -19.942 -20.319  0.00  0.00    -0.000 C 
ENDBRANCH  25  26
ENDBRANCH   3  25
TORSDOF 7
ENDMDL
MODEL 2
REMARK VINA RESULT:      -8.9      2.975      6.026
REMARK  Name = 445018
REMARK  7 active torsions:
REMARK  status: ('A' for Active; 'I' for Inactive)
REMARK    1  A    between atoms: N_2  and  S_14
REMARK    2  A    between atoms: N_3  and  C_25
REMARK    3  A    between atoms: C_4  and  C_10
REMARK    4  A    between atoms: N_9  and  O_12
REMARK    5  A    between atoms: S_14  and  C_17
REMARK    6  A    between atoms: C_22  and  O_23
REMARK    7  A    between atoms: C_25  and  C_26
REMARK                            x       y       z     vdW  Elec       q    Type
REMARK                         _______ _______ _______ _____ _____    ______ ____
ROOT
ATOM      1  O   UNL     1      39.114 -24.550 -14.058  0.00  0.00    -0.275 OA
ATOM      2  N   UNL     1      35.061 -24.413 -13.520  0.00  0.00    -0.128 NA
ATOM      3  N   UNL     1      37.014 -25.425 -14.565  0.00  0.00    -0.260 N 
ATOM      4  C   UNL     1      35.901 -23.286 -13.039  0.00  0.00    +0.168 C 
ATOM      5  C   UNL     1      35.598 -25.121 -14.707  0.00  0.00    +0.192 C 
ATOM      6  C   UNL     1      37.206 -23.121 -13.809  0.00  0.00    +0.112 C 
ATOM      7  C   UNL     1      37.892 -24.434 -14.137  0.00  0.00    +0.229 C 
ENDROOT
BRANCH   4  10
ATOM      8  O   UNL     1      36.959 -22.929 -10.938  0.00  0.00    -0.272 OA
ATOM      9  N   UNL     1      35.424 -24.647 -11.132  0.00  0.00    -0.196 N 
ATOM     10  C   UNL     1      36.162 -23.591 -11.599  0.00  0.00    +0.261 C 
ATOM     11  H   UNL     1      34.799 -25.143 -11.707  0.00  0.00    +0.182 HD
BRANCH   9  12
ATOM     12  O   UNL     1      35.616 -24.975  -9.783  0.00  0.00    -0.295 OA
ATOM     13  H   UNL     1      36.423 -24.548  -9.458  0.00  0.00    +0.241 HD
ENDBRANCH   9  12
ENDBRANCH   4  10
BRANCH   2  14
ATOM     14  S   UNL     1      33.367 -24.195 -13.473  0.00  0.00    +0.065 S 
ATOM     15  O   UNL     1      33.046 -23.172 -12.499  0.00  0.00    -0.153 OA
ATOM     16  O   UNL     1      32.723 -25.491 -13.429  0.00  0.00    -0.153 OA
BRANCH  14  17
ATOM     17  C   UNL     1      33.096 -23.511 -15.079  0.00  0.00    +0.122 C 
ATOM     18  C   UNL     1      31.808 -23.182 -15.467  0.00  0.00    +0.023 C 
ATOM     19  C   UNL     1      34.176 -23.316 -15.923  0.00  0.00    +0.023 C 
ATOM     20  C   UNL     1      31.593 -22.643 -16.735  0.00  0.00    +0.038 C 
ATOM     21  C   UNL     1      33.962 -22.776 -17.192  0.00  0.00    +0.038 C 
ATOM     22  C   UNL     1      32.670 -22.440 -17.598  0.00  0.00    +0.139 C 
BRANCH  22  23
ATOM     23  O   UNL     1      32.461 -21.912 -18.835  0.00  0.00    -0.471 OA
ATOM     24  C   UNL     1      33.411 -20.956 -19.302  0.00  0.00    +0.252 C 
ENDBRANCH  22  23
ENDBRANCH  14  17
ENDBRANCH   2  14
BRANCH   3  25
ATOM     25  C   UNL     1      37.487 -26.725 -15.007  0.00  0.00    +0.121 C 
BRANCH  25  26
ATOM     26  C   UNL     1      37.639 -27.686 -13.863  0.00  0.00    -0.002 C 
ATOM     27  C   UNL     1      37.947 -29.017 -14.119  0.00  0.00    -0.003 C 
ATOM     28  C   UNL     1      37.468 -27.236 -12.559  0.00  0.00    -0.003 C 
ATOM     29  C   UNL     1      38.087 -29.910 -13.057  0.00  0.00    -0.000 C 
ATOM     30  C   UNL     1      37.609 -28.129 -11.497  0.00  0.00    -0.000 C 
ATOM     31  C   UNL     1      37.918 -29.466 -11.746  0.00  0.00    -0.000 C 
ENDBRANCH  25  26
ENDBRANCH   3  25
TORSDOF 7
ENDMDL
MODEL 3
REMARK VINA RESULT:      -8.5     14.514     17.719
REMARK  Name = 445018
REMARK  7 active torsions:
REMARK  status: ('A' for Active; 'I' for Inactive)
REMARK    1  A    between atoms: N_2  and  S_14
REMARK    2  A    between atoms: N_3  and  C_25
REMARK    3  A    between atoms: C_4  and  C_10
REMARK    4  A    between atoms: N_9  and  O_12
REMARK    5  A    between atoms: S_14  and  C_17
REMARK    6  A    between atoms: C_22  and  O_23
REMARK    7  A    between atoms: C_25  and  C_26
REMARK                            x       y       z     vdW  Elec       q    Type
REMARK                         _______ _______ _______ _____ _____    ______ ____
ROOT
ATOM      1  O   UNL     1      30.992  -9.627 -19.152  0.00  0.00    -0.275 OA
ATOM      2  N   UNL     1      33.147  -7.969 -22.208  0.00  0.00    -0.128 NA
ATOM      3  N   UNL     1      32.082  -9.909 -21.192  0.00  0.00    -0.260 N 
ATOM      4  C   UNL     1      32.955  -7.203 -20.950  0.00  0.00    +0.168 C 
ATOM      5  C   UNL     1      33.170  -9.442 -22.038  0.00  0.00    +0.192 C 
ATOM      6  C   UNL     1      32.734  -8.083 -19.725  0.00  0.00    +0.112 C 
ATOM      7  C   UNL     1      31.827  -9.272 -19.982  0.00  0.00    +0.229 C 
ENDROOT
BRANCH   4  10
ATOM      8  O   UNL     1      30.757  -6.773 -21.754  0.00  0.00    -0.272 OA
ATOM      9  N   UNL     1      31.940  -5.047 -20.771  0.00  0.00    -0.196 N 
ATOM     10  C   UNL     1      31.768  -6.333 -21.209  0.00  0.00    +0.261 C 
ATOM     11  H   UNL     1      32.772  -4.747 -20.340  0.00  0.00    +0.182 HD
BRANCH   9  12
ATOM     12  O   UNL     1      30.855  -4.183 -20.975  0.00  0.00    -0.295 OA
ATOM     13  H   UNL     1      30.092  -4.691 -21.291  0.00  0.00    +0.241 HD
ENDBRANCH   9  12
ENDBRANCH   4  10
BRANCH   2  14
ATOM     14  S   UNL     1      34.240  -7.324 -23.352  0.00  0.00    +0.065 S 
ATOM     15  O   UNL     1      34.437  -8.285 -24.417  0.00  0.00    -0.153 OA
ATOM     16  O   UNL     1      35.370  -6.746 -22.655  0.00  0.00    -0.153 OA
BRANCH  14  17
ATOM     17  C   UNL     1      33.268  -5.998 -23.998  0.00  0.00    +0.122 C 
ATOM     18  C   UNL     1      33.808  -4.724 -24.049  0.00  0.00    +0.023 C 
ATOM     19  C   UNL     1      31.983  -6.255 -24.444  0.00  0.00    +0.023 C 
ATOM     20  C   UNL     1      33.041  -3.676 -24.559  0.00  0.00    +0.038 C 
ATOM     21  C   UNL     1      31.214  -5.208 -24.955  0.00  0.00    +0.038 C 
ATOM     22  C   UNL     1      31.744  -3.919 -25.012  0.00  0.00    +0.139 C 
BRANCH  22  23
ATOM     23  O   UNL     1      30.996  -2.897 -25.511  0.00  0.00    -0.471 OA
ATOM     24  C   UNL     1      30.665  -1.837 -24.615  0.00  0.00    +0.252 C 
ENDBRANCH  22  23
ENDBRANCH  14  17
ENDBRANCH   2  14
BRANCH   3  25
ATOM     25  C   UNL     1      31.378 -11.119 -21.581  0.00  0.00    +0.121 C 
BRANCH  25  26
ATOM     26  C   UNL     1      32.301 -12.300 -21.672  0.00  0.00    -0.002 C 
ATOM     27  C   UNL     1      32.651 -12.991 -20.517  0.00  0.00    -0.003 C 
ATOM     28  C   UNL     1      32.799 -12.691 -22.910  0.00  0.00    -0.003 C 
ATOM     29  C   UNL     1      33.508 -14.088 -20.601  0.00  0.00    -0.000 C 
ATOM     30  C   UNL     1      33.656 -13.788 -22.994  0.00  0.00    -0.000 C 
ATOM     31  C   UNL     1      34.011 -14.486 -21.840  0.00  0.00    -0.000 C 
ENDBRANCH  25  26
ENDBRANCH   3  25
TORSDOF 7
ENDMDL
MODEL 4
REMARK VINA RESULT:      -8.4      2.256      3.215
REMARK  Name = 445018
REMARK  7 active torsions:
REMARK  status: ('A' for Active; 'I' for Inactive)
REMARK    1  A    between atoms: N_2  and  S_14
REMARK    2  A    between atoms: N_3  and  C_25
REMARK    3  A    between atoms: C_4  and  C_10
REMARK    4  A    between atoms: N_9  and  O_12
REMARK    5  A    between atoms: S_14  and  C_17
REMARK    6  A    between atoms: C_22  and  O_23
REMARK    7  A    between atoms: C_25  and  C_26
REMARK                            x       y       z     vdW  Elec       q    Type
REMARK                         _______ _______ _______ _____ _____    ______ ____
ROOT
ATOM      1  O   UNL     1      39.206 -23.519 -15.925  0.00  0.00    -0.275 OA
ATOM      2  N   UNL     1      35.955 -24.004 -13.490  0.00  0.00    -0.128 NA
ATOM      3  N   UNL     1      37.397 -22.557 -14.816  0.00  0.00    -0.260 N 
ATOM      4  C   UNL     1      36.939 -25.109 -13.625  0.00  0.00    +0.168 C 
ATOM      5  C   UNL     1      36.526 -22.646 -13.653  0.00  0.00    +0.192 C 
ATOM      6  C   UNL     1      38.342 -24.639 -13.990  0.00  0.00    +0.112 C 
ATOM      7  C   UNL     1      38.366 -23.532 -15.028  0.00  0.00    +0.229 C 
ENDROOT
BRANCH   4  10
ATOM      8  O   UNL     1      35.201 -25.907 -15.041  0.00  0.00    -0.272 OA
ATOM      9  N   UNL     1      37.296 -26.871 -15.201  0.00  0.00    -0.196 N 
ATOM     10  C   UNL     1      36.375 -25.995 -14.688  0.00  0.00    +0.261 C 
ATOM     11  H   UNL     1      38.226 -26.900 -14.881  0.00  0.00    +0.182 HD
BRANCH   9  12
ATOM     12  O   UNL     1      36.830 -27.722 -16.212  0.00  0.00    -0.295 OA
ATOM     13  H   UNL     1      36.451 -28.521 -15.814  0.00  0.00    +0.241 HD
ENDBRANCH   9  12
ENDBRANCH   4  10
BRANCH   2  14
ATOM     14  S   UNL     1      34.750 -24.179 -12.292  0.00  0.00    +0.065 S 
ATOM     15  O   UNL     1      34.741 -22.999 -11.451  0.00  0.00    -0.153 OA
ATOM     16  O   UNL     1      34.845 -25.502 -11.712  0.00  0.00    -0.153 OA
BRANCH  14  17
ATOM     17  C   UNL     1      33.300 -24.132 -13.298  0.00  0.00    +0.122 C 
ATOM     18  C   UNL     1      33.203 -23.185 -14.304  0.00  0.00    +0.023 C 
ATOM     19  C   UNL     1      32.283 -25.043 -13.064  0.00  0.00    +0.023 C 
ATOM     20  C   UNL     1      32.057 -23.148 -15.099  0.00  0.00    +0.038 C 
ATOM     21  C   UNL     1      31.137 -25.007 -13.859  0.00  0.00    +0.038 C 
ATOM     22  C   UNL     1      31.024 -24.058 -14.876  0.00  0.00    +0.139 C 
BRANCH  22  23
ATOM     23  O   UNL     1      29.907 -24.023 -15.653  0.00  0.00    -0.471 OA
ATOM     24  C   UNL     1      29.410 -22.736 -16.016  0.00  0.00    +0.252 C 
ENDBRANCH  22  23
ENDBRANCH  14  17
ENDBRANCH   2  14
BRANCH   3  25
ATOM     25  C   UNL     1      37.312 -21.370 -15.650  0.00  0.00    +0.121 C 
BRANCH  25  26
ATOM     26  C   UNL     1      36.468 -21.601 -16.871  0.00  0.00    -0.002 C 
ATOM     27  C   UNL     1      35.272 -22.300 -16.758  0.00  0.00    -0.003 C 
ATOM     28  C   UNL     1      36.891 -21.115 -18.102  0.00  0.00    -0.003 C 
ATOM     29  C   UNL     1      34.488 -22.514 -17.891  0.00  0.00    -0.000 C 
ATOM     30  C   UNL     1      36.107 -21.329 -19.236  0.00  0.00    -0.000 C 
ATOM     31  C   UNL     1      34.906 -22.030 -19.130  0.00  0.00    -0.000 C 
ENDBRANCH  25  26
ENDBRANCH   3  25
TORSDOF 7
ENDMDL
MODEL 5
REMARK VINA RESULT:      -8.1      3.227      7.287
REMARK  Name = 445018
REMARK  7 active torsions:
REMARK  status: ('A' for Active; 'I' for Inactive)
REMARK    1  A    between atoms: N_2  and  S_14
REMARK    2  A    between atoms: N_3  and  C_25
REMARK    3  A    between atoms: C_4  and  C_10
REMARK    4  A    between atoms: N_9  and  O_12
REMARK    5  A    between atoms: S_14  and  C_17
REMARK    6  A    between atoms: C_22  and  O_23
REMARK    7  A    between atoms: C_25  and  C_26
REMARK                            x       y       z     vdW  Elec       q    Type
REMARK                         _______ _______ _______ _____ _____    ______ ____
ROOT
ATOM      1  O   UNL     1      32.509 -23.498 -15.749  0.00  0.00    -0.275 OA
ATOM      2  N   UNL     1      35.172 -24.326 -12.757  0.00  0.00    -0.128 NA
ATOM      3  N   UNL     1      32.884 -24.288 -13.589  0.00  0.00    -0.260 N 
ATOM      4  C   UNL     1      35.611 -23.516 -13.923  0.00  0.00    +0.168 C 
ATOM      5  C   UNL     1      33.737 -24.189 -12.414  0.00  0.00    +0.192 C 
ATOM      6  C   UNL     1      34.478 -22.756 -14.602  0.00  0.00    +0.112 C 
ATOM      7  C   UNL     1      33.195 -23.557 -14.731  0.00  0.00    +0.229 C 
ENDROOT
BRANCH   4  10
ATOM      8  O   UNL     1      37.224 -24.209 -15.528  0.00  0.00    -0.272 OA
ATOM      9  N   UNL     1      35.598 -25.713 -14.866  0.00  0.00    -0.196 N 
ATOM     10  C   UNL     1      36.235 -24.500 -14.859  0.00  0.00    +0.261 C 
ATOM     11  H   UNL     1      34.807 -25.892 -14.309  0.00  0.00    +0.182 HD
BRANCH   9  12
ATOM     12  O   UNL     1      36.144 -26.683 -15.717  0.00  0.00    -0.295 OA
ATOM     13  H   UNL     1      36.467 -26.259 -16.526  0.00  0.00    +0.241 HD
ENDBRANCH   9  12
ENDBRANCH   4  10
BRANCH   2  14
ATOM     14  S   UNL     1      36.256 -24.444 -11.441  0.00  0.00    +0.065 S 
ATOM     15  O   UNL     1      35.755 -25.423 -10.499  0.00  0.00    -0.153 OA
ATOM     16  O   UNL     1      36.620 -23.112 -11.005  0.00  0.00    -0.153 OA
BRANCH  14  17
ATOM     17  C   UNL     1      37.658 -25.148 -12.253  0.00  0.00    +0.122 C 
ATOM     18  C   UNL     1      38.767 -24.356 -12.500  0.00  0.00    +0.023 C 
ATOM     19  C   UNL     1      37.624 -26.480 -12.629  0.00  0.00    +0.023 C 
ATOM     20  C   UNL     1      39.873 -24.911 -13.142  0.00  0.00    +0.038 C 
ATOM     21  C   UNL     1      38.732 -27.037 -13.271  0.00  0.00    +0.038 C 
ATOM     22  C   UNL     1      39.856 -26.252 -13.527  0.00  0.00    +0.139 C 
BRANCH  22  23
ATOM     23  O   UNL     1      40.937 -26.794 -14.152  0.00  0.00    -0.471 OA
ATOM     24  C   UNL     1      40.696 -27.896 -15.025  0.00  0.00    +0.252 C 
ENDBRANCH  22  23
ENDBRANCH  14  17
ENDBRANCH   2  14
BRANCH   3  25
ATOM     25  C   UNL     1      31.653 -25.052 -13.483  0.00  0.00    +0.121 C 
BRANCH  25  26
ATOM     26  C   UNL     1      30.501 -24.353 -14.148  0.00  0.00    -0.002 C 
ATOM     27  C   UNL     1      30.218 -23.032 -13.824  0.00  0.00    -0.003 C 
ATOM     28  C   UNL     1      29.727 -25.036 -15.080  0.00  0.00    -0.003 C 
ATOM     29  C   UNL     1      29.148 -22.384 -14.440  0.00  0.00    -0.000 C 
ATOM     30  C   UNL     1      28.658 -24.388 -15.697  0.00  0.00    -0.000 C 
ATOM     31  C   UNL     1      28.368 -23.062 -15.376  0.00  0.00    -0.000 C 
ENDBRANCH  25  26
ENDBRANCH   3  25
TORSDOF 7
ENDMDL
MODEL 6
REMARK VINA RESULT:      -8.0      3.444      6.441
REMARK  Name = 445018
REMARK  7 active torsions:
REMARK  status: ('A' for Active; 'I' for Inactive)
REMARK    1  A    between atoms: N_2  and  S_14
REMARK    2  A    between atoms: N_3  and  C_25
REMARK    3  A    between atoms: C_4  and  C_10
REMARK    4  A    between atoms: N_9  and  O_12
REMARK    5  A    between atoms: S_14  and  C_17
REMARK    6  A    between atoms: C_22  and  O_23
REMARK    7  A    between atoms: C_25  and  C_26
REMARK                            x       y       z     vdW  Elec       q    Type
REMARK                         _______ _______ _______ _____ _____    ______ ____
ROOT
ATOM      1  O   UNL     1      39.346 -25.815 -12.802  0.00  0.00    -0.275 OA
ATOM      2  N   UNL     1      35.425 -24.686 -13.090  0.00  0.00    -0.128 NA
ATOM      3  N   UNL     1      37.177 -26.332 -13.479  0.00  0.00    -0.260 N 
ATOM      4  C   UNL     1      36.453 -23.674 -12.737  0.00  0.00    +0.168 C 
ATOM      5  C   UNL     1      35.914 -25.788 -13.954  0.00  0.00    +0.192 C 
ATOM      6  C   UNL     1      37.845 -24.004 -13.262  0.00  0.00    +0.112 C 
ATOM      7  C   UNL     1      38.214 -25.471 -13.136  0.00  0.00    +0.229 C 
ENDROOT
BRANCH   4  10
ATOM      8  O   UNL     1      37.128 -22.814 -10.623  0.00  0.00    -0.272 OA
ATOM      9  N   UNL     1      35.596 -24.543 -10.681  0.00  0.00    -0.196 N 
ATOM     10  C   UNL     1      36.441 -23.622 -11.243  0.00  0.00    +0.261 C 
ATOM     11  H   UNL     1      35.067 -25.169 -11.226  0.00  0.00    +0.182 HD
BRANCH   9  12
ATOM     12  O   UNL     1      35.531 -24.536  -9.281  0.00  0.00    -0.295 OA
ATOM     13  H   UNL     1      34.766 -25.056  -8.990  0.00  0.00    +0.241 HD
ENDBRANCH   9  12
ENDBRANCH   4  10
BRANCH   2  14
ATOM     14  S   UNL     1      33.850 -24.112 -13.418  0.00  0.00    +0.065 S 
ATOM     15  O   UNL     1      33.545 -23.020 -12.517  0.00  0.00    -0.153 OA
ATOM     16  O   UNL     1      32.951 -25.240 -13.549  0.00  0.00    -0.153 OA
BRANCH  14  17
ATOM     17  C   UNL     1      34.096 -23.427 -15.028  0.00  0.00    +0.122 C 
ATOM     18  C   UNL     1      35.327 -22.882 -15.352  0.00  0.00    +0.023 C 
ATOM     19  C   UNL     1      33.053 -23.447 -15.939  0.00  0.00    +0.023 C 
ATOM     20  C   UNL     1      35.521 -22.341 -16.622  0.00  0.00    +0.038 C 
ATOM     21  C   UNL     1      33.247 -22.906 -17.211  0.00  0.00    +0.038 C 
ATOM     22  C   UNL     1      34.481 -22.353 -17.552  0.00  0.00    +0.139 C 
BRANCH  22  23
ATOM     23  O   UNL     1      34.671 -21.826 -18.792  0.00  0.00    -0.471 OA
ATOM     24  C   UNL     1      35.963 -21.295 -19.081  0.00  0.00    +0.252 C 
ENDBRANCH  22  23
ENDBRANCH  14  17
ENDBRANCH   2  14
BRANCH   3  25
ATOM     25  C   UNL     1      37.359 -27.774 -13.506  0.00  0.00    +0.121 C 
BRANCH  25  26
ATOM     26  C   UNL     1      38.541 -28.175 -14.342  0.00  0.00    -0.002 C 
ATOM     27  C   UNL     1      38.639 -27.726 -15.654  0.00  0.00    -0.003 C 
ATOM     28  C   UNL     1      39.524 -28.992 -13.796  0.00  0.00    -0.003 C 
ATOM     29  C   UNL     1      39.736 -28.099 -16.430  0.00  0.00    -0.000 C 
ATOM     30  C   UNL     1      40.621 -29.364 -14.572  0.00  0.00    -0.000 C 
ATOM     31  C   UNL     1      40.727 -28.918 -15.890  0.00  0.00    -0.000 C 
ENDBRANCH  25  26
ENDBRANCH   3  25
TORSDOF 7
ENDMDL
MODEL 7
REMARK VINA RESULT:      -7.7      2.411      5.666
REMARK  Name = 445018
REMARK  7 active torsions:
REMARK  status: ('A' for Active; 'I' for Inactive)
REMARK    1  A    between atoms: N_2  and  S_14
REMARK    2  A    between atoms: N_3  and  C_25
REMARK    3  A    between atoms: C_4  and  C_10
REMARK    4  A    between atoms: N_9  and  O_12
REMARK    5  A    between atoms: S_14  and  C_17
REMARK    6  A    between atoms: C_22  and  O_23
REMARK    7  A    between atoms: C_25  and  C_26
REMARK                            x       y       z     vdW  Elec       q    Type
REMARK                         _______ _______ _______ _____ _____    ______ ____
ROOT
ATOM      1  O   UNL     1      34.175 -24.899 -11.682  0.00  0.00    -0.275 OA
ATOM      2  N   UNL     1      36.269 -22.886 -14.562  0.00  0.00    -0.128 NA
ATOM      3  N   UNL     1      34.150 -23.436 -13.495  0.00  0.00    -0.260 N 
ATOM      4  C   UNL     1      36.938 -23.967 -13.793  0.00  0.00    +0.168 C 
ATOM      5  C   UNL     1      34.808 -23.067 -14.739  0.00  0.00    +0.192 C 
ATOM      6  C   UNL     1      35.978 -25.022 -13.257  0.00  0.00    +0.112 C 
ATOM      7  C   UNL     1      34.685 -24.449 -12.706  0.00  0.00    +0.229 C 
ENDROOT
BRANCH   4  10
ATOM      8  O   UNL     1      37.484 -22.061 -12.478  0.00  0.00    -0.272 OA
ATOM      9  N   UNL     1      38.438 -24.096 -11.936  0.00  0.00    -0.196 N 
ATOM     10  C   UNL     1      37.641 -23.264 -12.678  0.00  0.00    +0.261 C 
ATOM     11  H   UNL     1      38.528 -25.055 -12.141  0.00  0.00    +0.182 HD
BRANCH   9  12
ATOM     12  O   UNL     1      39.116 -23.497 -10.866  0.00  0.00    -0.295 OA
ATOM     13  H   UNL     1      39.080 -22.533 -10.958  0.00  0.00    +0.241 HD
ENDBRANCH   9  12
ENDBRANCH   4  10
BRANCH   2  14
ATOM     14  S   UNL     1      37.118 -22.243 -15.898  0.00  0.00    +0.065 S 
ATOM     15  O   UNL     1      38.051 -23.235 -16.391  0.00  0.00    -0.153 OA
ATOM     16  O   UNL     1      37.561 -20.901 -15.578  0.00  0.00    -0.153 OA
BRANCH  14  17
ATOM     17  C   UNL     1      35.803 -22.113 -17.070  0.00  0.00    +0.122 C 
ATOM     18  C   UNL     1      36.025 -21.453 -18.267  0.00  0.00    +0.023 C 
ATOM     19  C   UNL     1      34.572 -22.674 -16.772  0.00  0.00    +0.023 C 
ATOM     20  C   UNL     1      34.987 -21.349 -19.193  0.00  0.00    +0.038 C 
ATOM     21  C   UNL     1      33.533 -22.571 -17.698  0.00  0.00    +0.038 C 
ATOM     22  C   UNL     1      33.741 -21.908 -18.908  0.00  0.00    +0.139 C 
BRANCH  22  23
ATOM     23  O   UNL     1      32.729 -21.809 -19.812  0.00  0.00    -0.471 OA
ATOM     24  C   UNL     1      32.462 -20.514 -20.348  0.00  0.00    +0.252 C 
ENDBRANCH  22  23
ENDBRANCH  14  17
ENDBRANCH   2  14
BRANCH   3  25
ATOM     25  C   UNL     1      32.872 -22.819 -13.183  0.00  0.00    +0.121 C 
BRANCH  25  26
ATOM     26  C   UNL     1      31.738 -23.476 -13.916  0.00  0.00    -0.002 C 
ATOM     27  C   UNL     1      31.175 -22.845 -15.019  0.00  0.00    -0.003 C 
ATOM     28  C   UNL     1      31.261 -24.708 -13.483  0.00  0.00    -0.003 C 
ATOM     29  C   UNL     1      30.121 -23.455 -15.699  0.00  0.00    -0.000 C 
ATOM     30  C   UNL     1      30.208 -25.318 -14.164  0.00  0.00    -0.000 C 
ATOM     31  C   UNL     1      29.637 -24.691 -15.271  0.00  0.00    -0.000 C 
ENDBRANCH  25  26
ENDBRANCH   3  25
TORSDOF 7
ENDMDL
