MODEL 1
REMARK VINA RESULT:     -11.8      0.000      0.000
REMARK  Name = 45268539
REMARK  6 active torsions:
REMARK  status: ('A' for Active; 'I' for Inactive)
REMARK    1  A    between atoms: N_2  and  C_22
REMARK    2  A    between atoms: N_3  and  C_7
REMARK    3  A    between atoms: N_3  and  O_12
REMARK    4  A    between atoms: C_8  and  C_14
REMARK    5  A    between atoms: C_15  and  C_16
REMARK    6  A    between atoms: C_22  and  C_26
REMARK                            x       y       z     vdW  Elec       q    Type
REMARK                         _______ _______ _______ _____ _____    ______ ____
ROOT
ATOM      1  O   UNL     1      31.969 -23.650 -16.548  0.00  0.00    -0.273 OA
ATOM      2  N   UNL     1      34.171 -23.228 -15.759  0.00  0.00    -0.253 N 
ATOM      3  C   UNL     1      35.284 -22.570 -16.319  0.00  0.00    +0.052 C 
ATOM      4  C   UNL     1      34.977 -22.091 -17.593  0.00  0.00    +0.018 C 
ATOM      5  C   UNL     1      33.096 -23.209 -16.631  0.00  0.00    +0.252 C 
ATOM      6  C   UNL     1      33.599 -22.467 -17.846  0.00  0.00    +0.202 C 
ATOM      7  C   UNL     1      35.882 -21.405 -18.375  0.00  0.00    -0.001 C 
ATOM      8  C   UNL     1      36.540 -22.371 -15.778  0.00  0.00    +0.015 C 
ATOM      9  C   UNL     1      37.152 -21.199 -17.836  0.00  0.00    -0.000 C 
ATOM     10  C   UNL     1      37.479 -21.677 -16.551  0.00  0.00    +0.001 C 
ENDROOT
BRANCH   7  11
ATOM     11  C   UNL     1      35.569 -20.906 -19.701  0.00  0.00    -0.000 C 
ATOM     12  C   UNL     1      35.480 -19.596 -20.044  0.00  0.00    -0.000 C 
BRANCH  12  13
ATOM     13  C   UNL     1      35.179 -19.088 -21.394  0.00  0.00    -0.000 C 
ATOM     14  C   UNL     1      34.483 -19.888 -22.301  0.00  0.00    -0.000 C 
ATOM     15  C   UNL     1      35.588 -17.808 -21.765  0.00  0.00    -0.000 C 
ATOM     16  C   UNL     1      34.198 -19.407 -23.580  0.00  0.00    +0.000 C 
ATOM     17  C   UNL     1      35.304 -17.327 -23.043  0.00  0.00    +0.000 C 
ATOM     18  C   UNL     1      34.609 -18.127 -23.951  0.00  0.00    +0.000 C 
ENDBRANCH  12  13
ENDBRANCH   7  11
BRANCH   6  19
ATOM     19  N   UNL     1      32.883 -22.242 -18.890  0.00  0.00    -0.075 NA
BRANCH  19  20
ATOM     20  O   UNL     1      32.262 -20.999 -18.742  0.00  0.00    -0.294 OA
ATOM     21  H   UNL     1      32.689 -20.315 -18.264  0.00  0.00    +0.238 HD
ENDBRANCH  19  20
ENDBRANCH   6  19
BRANCH   2  22
ATOM     22  C   UNL     1      34.182 -23.830 -14.448  0.00  0.00    +0.128 C 
BRANCH  22  26
ATOM     23  F   UNL     1      37.047 -27.558 -15.689  0.00  0.00    -0.204 F 
ATOM     24  O   UNL     1      35.997 -23.286 -12.392  0.00  0.00    -0.448 OA
ATOM     25  O   UNL     1      37.718 -24.019 -10.886  0.00  0.00    -0.311 OA
ATOM     26  C   UNL     1      35.412 -24.659 -14.220  0.00  0.00    +0.034 C 
ATOM     27  C   UNL     1      36.301 -24.363 -13.186  0.00  0.00    +0.138 C 
ATOM     28  C   UNL     1      37.436 -25.157 -12.976  0.00  0.00    +0.043 C 
ATOM     29  C   UNL     1      35.666 -25.740 -15.063  0.00  0.00    +0.030 C 
ATOM     30  C   UNL     1      38.379 -24.825 -11.860  0.00  0.00    +0.176 C 
ATOM     31  C   UNL     1      37.688 -26.232 -13.834  0.00  0.00    +0.031 C 
ATOM     32  C   UNL     1      36.804 -26.524 -14.873  0.00  0.00    +0.140 C 
ATOM     33  C   UNL     1      37.067 -22.917 -11.515  0.00  0.00    +0.361 C 
ENDBRANCH  22  26
ENDBRANCH   2  22
TORSDOF 6
ENDMDL
MODEL 2
REMARK VINA RESULT:     -11.5      2.415      3.448
REMARK  Name = 45268539
REMARK  6 active torsions:
REMARK  status: ('A' for Active; 'I' for Inactive)
REMARK    1  A    between atoms: N_2  and  C_22
REMARK    2  A    between atoms: N_3  and  C_7
REMARK    3  A    between atoms: N_3  and  O_12
REMARK    4  A    between atoms: C_8  and  C_14
REMARK    5  A    between atoms: C_15  and  C_16
REMARK    6  A    between atoms: C_22  and  C_26
REMARK                            x       y       z     vdW  Elec       q    Type
REMARK                         _______ _______ _______ _____ _____    ______ ____
ROOT
ATOM      1  O   UNL     1      37.856 -22.340 -15.085  0.00  0.00    -0.273 OA
ATOM      2  N   UNL     1      35.622 -23.131 -15.271  0.00  0.00    -0.253 N 
ATOM      3  C   UNL     1      34.611 -22.940 -16.233  0.00  0.00    +0.052 C 
ATOM      4  C   UNL     1      35.066 -22.113 -17.260  0.00  0.00    +0.018 C 
ATOM      5  C   UNL     1      36.773 -22.445 -15.621  0.00  0.00    +0.252 C 
ATOM      6  C   UNL     1      36.434 -21.766 -16.926  0.00  0.00    +0.202 C 
ATOM      7  C   UNL     1      34.284 -21.756 -18.338  0.00  0.00    -0.001 C 
ATOM      8  C   UNL     1      33.326 -23.448 -16.257  0.00  0.00    +0.015 C 
ATOM      9  C   UNL     1      32.984 -22.265 -18.370  0.00  0.00    -0.000 C 
ATOM     10  C   UNL     1      32.510 -23.101 -17.341  0.00  0.00    +0.001 C 
ENDROOT
BRANCH   7  11
ATOM     11  C   UNL     1      34.750 -20.894 -19.409  0.00  0.00    -0.000 C 
ATOM     12  C   UNL     1      33.954 -20.179 -20.242  0.00  0.00    -0.000 C 
BRANCH  12  13
ATOM     13  C   UNL     1      34.427 -19.290 -21.318  0.00  0.00    -0.000 C 
ATOM     14  C   UNL     1      33.970 -19.471 -22.623  0.00  0.00    -0.000 C 
ATOM     15  C   UNL     1      35.331 -18.267 -21.031  0.00  0.00    -0.000 C 
ATOM     16  C   UNL     1      34.419 -18.629 -23.642  0.00  0.00    +0.000 C 
ATOM     17  C   UNL     1      35.779 -17.426 -22.049  0.00  0.00    +0.000 C 
ATOM     18  C   UNL     1      35.324 -17.608 -23.355  0.00  0.00    +0.000 C 
ENDBRANCH  12  13
ENDBRANCH   7  11
BRANCH   6  19
ATOM     19  N   UNL     1      37.256 -21.023 -17.576  0.00  0.00    -0.075 NA
BRANCH  19  20
ATOM     20  O   UNL     1      37.801 -20.086 -16.694  0.00  0.00    -0.294 OA
ATOM     21  H   UNL     1      38.613 -20.266 -16.261  0.00  0.00    +0.238 HD
ENDBRANCH  19  20
ENDBRANCH   6  19
BRANCH   2  22
ATOM     22  C   UNL     1      35.451 -23.941 -14.090  0.00  0.00    +0.128 C 
BRANCH  22  26
ATOM     23  F   UNL     1      39.290 -23.774 -11.109  0.00  0.00    -0.204 F 
ATOM     24  O   UNL     1      36.564 -26.261 -15.184  0.00  0.00    -0.448 OA
ATOM     25  O   UNL     1      38.475 -27.646 -15.624  0.00  0.00    -0.311 OA
ATOM     26  C   UNL     1      36.751 -24.515 -13.608  0.00  0.00    +0.034 C 
ATOM     27  C   UNL     1      37.282 -25.676 -14.171  0.00  0.00    +0.138 C 
ATOM     28  C   UNL     1      38.504 -26.190 -13.721  0.00  0.00    +0.043 C 
ATOM     29  C   UNL     1      37.433 -23.873 -12.574  0.00  0.00    +0.030 C 
ATOM     30  C   UNL     1      39.059 -27.437 -14.339  0.00  0.00    +0.176 C 
ATOM     31  C   UNL     1      39.175 -25.546 -12.676  0.00  0.00    +0.031 C 
ATOM     32  C   UNL     1      38.641 -24.390 -12.106  0.00  0.00    +0.140 C 
ATOM     33  C   UNL     1      37.054 -27.558 -15.541  0.00  0.00    +0.361 C 
ENDBRANCH  22  26
ENDBRANCH   2  22
TORSDOF 6
ENDMDL
MODEL 3
REMARK VINA RESULT:     -11.0      2.078      2.715
REMARK  Name = 45268539
REMARK  6 active torsions:
REMARK  status: ('A' for Active; 'I' for Inactive)
REMARK    1  A    between atoms: N_2  and  C_22
REMARK    2  A    between atoms: N_3  and  C_7
REMARK    3  A    between atoms: N_3  and  O_12
REMARK    4  A    between atoms: C_8  and  C_14
REMARK    5  A    between atoms: C_15  and  C_16
REMARK    6  A    between atoms: C_22  and  C_26
REMARK                            x       y       z     vdW  Elec       q    Type
REMARK                         _______ _______ _______ _____ _____    ______ ____
ROOT
ATOM      1  O   UNL     1      37.829 -22.279 -14.956  0.00  0.00    -0.273 OA
ATOM      2  N   UNL     1      35.603 -23.093 -15.136  0.00  0.00    -0.253 N 
ATOM      3  C   UNL     1      34.603 -22.949 -16.117  0.00  0.00    +0.052 C 
ATOM      4  C   UNL     1      35.065 -22.161 -17.172  0.00  0.00    +0.018 C 
ATOM      5  C   UNL     1      36.753 -22.414 -15.500  0.00  0.00    +0.252 C 
ATOM      6  C   UNL     1      36.426 -21.791 -16.836  0.00  0.00    +0.202 C 
ATOM      7  C   UNL     1      34.293 -21.854 -18.273  0.00  0.00    -0.001 C 
ATOM      8  C   UNL     1      33.321 -23.466 -16.136  0.00  0.00    +0.015 C 
ATOM      9  C   UNL     1      32.998 -22.372 -18.300  0.00  0.00    -0.000 C 
ATOM     10  C   UNL     1      32.516 -23.169 -17.243  0.00  0.00    +0.001 C 
ENDROOT
BRANCH   7  11
ATOM     11  C   UNL     1      34.768 -21.033 -19.372  0.00  0.00    -0.000 C 
ATOM     12  C   UNL     1      34.002 -20.186 -20.104  0.00  0.00    -0.000 C 
BRANCH  12  13
ATOM     13  C   UNL     1      34.486 -19.340 -21.209  0.00  0.00    -0.000 C 
ATOM     14  C   UNL     1      33.968 -19.506 -22.494  0.00  0.00    -0.000 C 
ATOM     15  C   UNL     1      35.461 -18.372 -20.971  0.00  0.00    -0.000 C 
ATOM     16  C   UNL     1      34.427 -18.705 -23.540  0.00  0.00    +0.000 C 
ATOM     17  C   UNL     1      35.920 -17.571 -22.016  0.00  0.00    +0.000 C 
ATOM     18  C   UNL     1      35.403 -17.738 -23.301  0.00  0.00    +0.000 C 
ENDBRANCH  12  13
ENDBRANCH   7  11
BRANCH   6  19
ATOM     19  N   UNL     1      37.252 -21.069 -17.506  0.00  0.00    -0.075 NA
BRANCH  19  20
ATOM     20  O   UNL     1      37.787 -20.099 -16.653  0.00  0.00    -0.294 OA
ATOM     21  H   UNL     1      38.655 -20.200 -16.315  0.00  0.00    +0.238 HD
ENDBRANCH  19  20
ENDBRANCH   6  19
BRANCH   2  22
ATOM     22  C   UNL     1      35.422 -23.855 -13.925  0.00  0.00    +0.128 C 
BRANCH  22  26
ATOM     23  F   UNL     1      36.791 -27.754 -16.488  0.00  0.00    -0.204 F 
ATOM     24  O   UNL     1      36.612 -25.060 -11.699  0.00  0.00    -0.448 OA
ATOM     25  O   UNL     1      37.372 -27.030 -10.557  0.00  0.00    -0.311 OA
ATOM     26  C   UNL     1      36.093 -25.195 -13.997  0.00  0.00    +0.034 C 
ATOM     27  C   UNL     1      36.681 -25.772 -12.871  0.00  0.00    +0.138 C 
ATOM     28  C   UNL     1      37.288 -27.031 -12.951  0.00  0.00    +0.043 C 
ATOM     29  C   UNL     1      36.131 -25.868 -15.218  0.00  0.00    +0.030 C 
ATOM     30  C   UNL     1      37.912 -27.635 -11.731  0.00  0.00    +0.176 C 
ATOM     31  C   UNL     1      37.331 -27.693 -14.182  0.00  0.00    +0.031 C 
ATOM     32  C   UNL     1      36.752 -27.113 -15.312  0.00  0.00    +0.140 C 
ATOM     33  C   UNL     1      37.430 -25.609 -10.661  0.00  0.00    +0.361 C 
ENDBRANCH  22  26
ENDBRANCH   2  22
TORSDOF 6
ENDMDL
MODEL 4
REMARK VINA RESULT:     -10.6      1.732      2.283
REMARK  Name = 45268539
REMARK  6 active torsions:
REMARK  status: ('A' for Active; 'I' for Inactive)
REMARK    1  A    between atoms: N_2  and  C_22
REMARK    2  A    between atoms: N_3  and  C_7
REMARK    3  A    between atoms: N_3  and  O_12
REMARK    4  A    between atoms: C_8  and  C_14
REMARK    5  A    between atoms: C_15  and  C_16
REMARK    6  A    between atoms: C_22  and  C_26
REMARK                            x       y       z     vdW  Elec       q    Type
REMARK                         _______ _______ _______ _____ _____    ______ ____
ROOT
ATOM      1  O   UNL     1      31.904 -23.744 -16.459  0.00  0.00    -0.273 OA
ATOM      2  N   UNL     1      34.136 -23.416 -15.708  0.00  0.00    -0.253 N 
ATOM      3  C   UNL     1      35.252 -22.763 -16.266  0.00  0.00    +0.052 C 
ATOM      4  C   UNL     1      34.927 -22.218 -17.509  0.00  0.00    +0.018 C 
ATOM      5  C   UNL     1      33.040 -23.329 -16.550  0.00  0.00    +0.252 C 
ATOM      6  C   UNL     1      33.534 -22.546 -17.743  0.00  0.00    +0.202 C 
ATOM      7  C   UNL     1      35.831 -21.522 -18.282  0.00  0.00    -0.001 C 
ATOM      8  C   UNL     1      36.526 -22.622 -15.749  0.00  0.00    +0.015 C 
ATOM      9  C   UNL     1      37.120 -21.374 -17.767  0.00  0.00    -0.000 C 
ATOM     10  C   UNL     1      37.464 -21.918 -16.514  0.00  0.00    +0.001 C 
ENDROOT
BRANCH   7  11
ATOM     11  C   UNL     1      35.500 -20.954 -19.576  0.00  0.00    -0.000 C 
ATOM     12  C   UNL     1      35.611 -19.644 -19.908  0.00  0.00    -0.000 C 
BRANCH  12  13
ATOM     13  C   UNL     1      35.291 -19.069 -21.227  0.00  0.00    -0.000 C 
ATOM     14  C   UNL     1      34.568 -19.817 -22.157  0.00  0.00    -0.000 C 
ATOM     15  C   UNL     1      35.710 -17.778 -21.546  0.00  0.00    -0.000 C 
ATOM     16  C   UNL     1      34.265 -19.274 -23.406  0.00  0.00    +0.000 C 
ATOM     17  C   UNL     1      35.407 -17.234 -22.794  0.00  0.00    +0.000 C 
ATOM     18  C   UNL     1      34.685 -17.982 -23.724  0.00  0.00    +0.000 C 
ENDBRANCH  12  13
ENDBRANCH   7  11
BRANCH   6  19
ATOM     19  N   UNL     1      32.799 -22.255 -18.757  0.00  0.00    -0.075 NA
BRANCH  19  20
ATOM     20  O   UNL     1      31.971 -21.183 -18.412  0.00  0.00    -0.294 OA
ATOM     21  H   UNL     1      31.831 -20.971 -17.510  0.00  0.00    +0.238 HD
ENDBRANCH  19  20
ENDBRANCH   6  19
BRANCH   2  22
ATOM     22  C   UNL     1      34.162 -24.078 -14.426  0.00  0.00    +0.128 C 
BRANCH  22  26
ATOM     23  F   UNL     1      37.789 -22.426 -11.640  0.00  0.00    -0.204 F 
ATOM     24  O   UNL     1      35.840 -26.202 -15.127  0.00  0.00    -0.448 OA
ATOM     25  O   UNL     1      38.044 -27.120 -15.374  0.00  0.00    -0.311 OA
ATOM     26  C   UNL     1      35.557 -24.212 -13.890  0.00  0.00    +0.034 C 
ATOM     27  C   UNL     1      36.371 -25.285 -14.256  0.00  0.00    +0.138 C 
ATOM     28  C   UNL     1      37.677 -25.387 -13.760  0.00  0.00    +0.043 C 
ATOM     29  C   UNL     1      36.040 -23.247 -13.007  0.00  0.00    +0.030 C 
ATOM     30  C   UNL     1      38.537 -26.545 -14.165  0.00  0.00    +0.176 C 
ATOM     31  C   UNL     1      38.148 -24.421 -12.866  0.00  0.00    +0.031 C 
ATOM     32  C   UNL     1      37.331 -23.352 -12.492  0.00  0.00    +0.140 C 
ATOM     33  C   UNL     1      36.646 -27.377 -15.265  0.00  0.00    +0.361 C 
ENDBRANCH  22  26
ENDBRANCH   2  22
TORSDOF 6
ENDMDL
MODEL 5
REMARK VINA RESULT:     -10.3      7.488     13.243
REMARK  Name = 45268539
REMARK  6 active torsions:
REMARK  status: ('A' for Active; 'I' for Inactive)
REMARK    1  A    between atoms: N_2  and  C_22
REMARK    2  A    between atoms: N_3  and  C_7
REMARK    3  A    between atoms: N_3  and  O_12
REMARK    4  A    between atoms: C_8  and  C_14
REMARK    5  A    between atoms: C_15  and  C_16
REMARK    6  A    between atoms: C_22  and  C_26
REMARK                            x       y       z     vdW  Elec       q    Type
REMARK                         _______ _______ _______ _____ _____    ______ ____
ROOT
ATOM      1  O   UNL     1      32.642 -12.309 -20.242  0.00  0.00    -0.273 OA
ATOM      2  N   UNL     1      32.904 -12.731 -22.566  0.00  0.00    -0.253 N 
ATOM      3  C   UNL     1      33.496 -13.783 -23.291  0.00  0.00    +0.052 C 
ATOM      4  C   UNL     1      34.020 -14.741 -22.422  0.00  0.00    +0.018 C 
ATOM      5  C   UNL     1      33.009 -12.950 -21.203  0.00  0.00    +0.252 C 
ATOM      6  C   UNL     1      33.740 -14.266 -21.081  0.00  0.00    +0.202 C 
ATOM      7  C   UNL     1      34.659 -15.881 -22.859  0.00  0.00    -0.001 C 
ATOM      8  C   UNL     1      33.602 -13.945 -24.660  0.00  0.00    +0.015 C 
ATOM      9  C   UNL     1      34.769 -16.053 -24.240  0.00  0.00    -0.000 C 
ATOM     10  C   UNL     1      34.247 -15.095 -25.131  0.00  0.00    +0.001 C 
ENDROOT
BRANCH   7  11
ATOM     11  C   UNL     1      35.207 -16.880 -21.960  0.00  0.00    -0.000 C 
ATOM     12  C   UNL     1      34.716 -18.133 -21.789  0.00  0.00    -0.000 C 
BRANCH  12  13
ATOM     13  C   UNL     1      35.282 -19.154 -20.889  0.00  0.00    -0.000 C 
ATOM     14  C   UNL     1      34.457 -20.137 -20.342  0.00  0.00    -0.000 C 
ATOM     15  C   UNL     1      36.643 -19.138 -20.585  0.00  0.00    -0.000 C 
ATOM     16  C   UNL     1      34.993 -21.103 -19.490  0.00  0.00    +0.000 C 
ATOM     17  C   UNL     1      37.179 -20.104 -19.734  0.00  0.00    +0.000 C 
ATOM     18  C   UNL     1      36.354 -21.086 -19.186  0.00  0.00    +0.000 C 
ENDBRANCH  12  13
ENDBRANCH   7  11
BRANCH   6  19
ATOM     19  N   UNL     1      34.035 -14.815 -19.956  0.00  0.00    -0.075 NA
BRANCH  19  20
ATOM     20  O   UNL     1      32.858 -14.976 -19.220  0.00  0.00    -0.294 OA
ATOM     21  H   UNL     1      32.799 -14.633 -18.349  0.00  0.00    +0.238 HD
ENDBRANCH  19  20
ENDBRANCH   6  19
BRANCH   2  22
ATOM     22  C   UNL     1      32.276 -11.592 -23.189  0.00  0.00    +0.128 C 
BRANCH  22  26
ATOM     23  F   UNL     1      36.045  -9.833 -25.709  0.00  0.00    -0.204 F 
ATOM     24  O   UNL     1      32.261  -9.179 -21.776  0.00  0.00    -0.448 OA
ATOM     25  O   UNL     1      33.401  -7.214 -20.999  0.00  0.00    -0.311 OA
ATOM     26  C   UNL     1      33.257 -10.491 -23.466  0.00  0.00    +0.034 C 
ATOM     27  C   UNL     1      33.225  -9.296 -22.746  0.00  0.00    +0.138 C 
ATOM     28  C   UNL     1      34.158  -8.284 -23.005  0.00  0.00    +0.043 C 
ATOM     29  C   UNL     1      34.213 -10.670 -24.466  0.00  0.00    +0.030 C 
ATOM     30  C   UNL     1      34.108  -7.009 -22.221  0.00  0.00    +0.176 C 
ATOM     31  C   UNL     1      35.104  -8.468 -24.018  0.00  0.00    +0.031 C 
ATOM     32  C   UNL     1      35.133  -9.659 -24.745  0.00  0.00    +0.140 C 
ATOM     33  C   UNL     1      32.151  -7.851 -21.252  0.00  0.00    +0.361 C 
ENDBRANCH  22  26
ENDBRANCH   2  22
TORSDOF 6
ENDMDL
MODEL 6
REMARK VINA RESULT:     -10.0      3.902      9.121
REMARK  Name = 45268539
REMARK  6 active torsions:
REMARK  status: ('A' for Active; 'I' for Inactive)
REMARK    1  A    between atoms: N_2  and  C_22
REMARK    2  A    between atoms: N_3  and  C_7
REMARK    3  A    between atoms: N_3  and  O_12
REMARK    4  A    between atoms: C_8  and  C_14
REMARK    5  A    between atoms: C_15  and  C_16
REMARK    6  A    between atoms: C_22  and  C_26
REMARK                            x       y       z     vdW  Elec       q    Type
REMARK                         _______ _______ _______ _____ _____    ______ ____
ROOT
ATOM      1  O   UNL     1      33.330 -20.156 -20.945  0.00  0.00    -0.273 OA
ATOM      2  N   UNL     1      35.427 -20.249 -19.830  0.00  0.00    -0.253 N 
ATOM      3  C   UNL     1      35.880 -20.940 -18.690  0.00  0.00    +0.052 C 
ATOM      4  C   UNL     1      34.851 -21.708 -18.144  0.00  0.00    +0.018 C 
ATOM      5  C   UNL     1      34.095 -20.530 -20.082  0.00  0.00    +0.252 C 
ATOM      6  C   UNL     1      33.691 -21.488 -18.986  0.00  0.00    +0.202 C 
ATOM      7  C   UNL     1      35.013 -22.489 -17.019  0.00  0.00    -0.001 C 
ATOM      8  C   UNL     1      37.134 -20.932 -18.108  0.00  0.00    +0.015 C 
ATOM      9  C   UNL     1      36.276 -22.486 -16.427  0.00  0.00    -0.000 C 
ATOM     10  C   UNL     1      37.326 -21.716 -16.965  0.00  0.00    +0.001 C 
ENDROOT
BRANCH   7  11
ATOM     11  C   UNL     1      33.946 -23.288 -16.446  0.00  0.00    -0.000 C 
ATOM     12  C   UNL     1      33.063 -22.860 -15.510  0.00  0.00    -0.000 C 
BRANCH  12  13
ATOM     13  C   UNL     1      31.969 -23.667 -14.940  0.00  0.00    -0.000 C 
ATOM     14  C   UNL     1      32.140 -24.307 -13.712  0.00  0.00    -0.000 C 
ATOM     15  C   UNL     1      30.761 -23.788 -15.627  0.00  0.00    -0.000 C 
ATOM     16  C   UNL     1      31.104 -25.070 -13.173  0.00  0.00    +0.000 C 
ATOM     17  C   UNL     1      29.726 -24.551 -15.088  0.00  0.00    +0.000 C 
ATOM     18  C   UNL     1      29.897 -25.193 -13.862  0.00  0.00    +0.000 C 
ENDBRANCH  12  13
ENDBRANCH   7  11
BRANCH   6  19
ATOM     19  N   UNL     1      32.511 -21.984 -18.874  0.00  0.00    -0.075 NA
BRANCH  19  20
ATOM     20  O   UNL     1      31.699 -21.055 -18.218  0.00  0.00    -0.294 OA
ATOM     21  H   UNL     1      30.772 -21.060 -18.359  0.00  0.00    +0.238 HD
ENDBRANCH  19  20
ENDBRANCH   6  19
BRANCH   2  22
ATOM     22  C   UNL     1      36.264 -19.372 -20.612  0.00  0.00    +0.128 C 
BRANCH  22  26
ATOM     23  F   UNL     1      34.587 -20.623 -25.002  0.00  0.00    -0.204 F 
ATOM     24  O   UNL     1      35.487 -16.752 -21.204  0.00  0.00    -0.448 OA
ATOM     25  O   UNL     1      34.973 -15.046 -22.813  0.00  0.00    -0.311 OA
ATOM     26  C   UNL     1      35.623 -18.998 -21.917  0.00  0.00    +0.034 C 
ATOM     27  C   UNL     1      35.243 -17.682 -22.184  0.00  0.00    +0.138 C 
ATOM     28  C   UNL     1      34.662 -17.345 -23.412  0.00  0.00    +0.043 C 
ATOM     29  C   UNL     1      35.401 -19.990 -22.872  0.00  0.00    +0.030 C 
ATOM     30  C   UNL     1      34.262 -15.927 -23.682  0.00  0.00    +0.176 C 
ATOM     31  C   UNL     1      34.432 -18.349 -24.359  0.00  0.00    +0.031 C 
ATOM     32  C   UNL     1      34.803 -19.667 -24.090  0.00  0.00    +0.140 C 
ATOM     33  C   UNL     1      34.864 -15.489 -21.463  0.00  0.00    +0.361 C 
ENDBRANCH  22  26
ENDBRANCH   2  22
TORSDOF 6
ENDMDL
MODEL 7
REMARK VINA RESULT:      -9.8      8.034     13.439
REMARK  Name = 45268539
REMARK  6 active torsions:
REMARK  status: ('A' for Active; 'I' for Inactive)
REMARK    1  A    between atoms: N_2  and  C_22
REMARK    2  A    between atoms: N_3  and  C_7
REMARK    3  A    between atoms: N_3  and  O_12
REMARK    4  A    between atoms: C_8  and  C_14
REMARK    5  A    between atoms: C_15  and  C_16
REMARK    6  A    between atoms: C_22  and  C_26
REMARK                            x       y       z     vdW  Elec       q    Type
REMARK                         _______ _______ _______ _____ _____    ______ ____
ROOT
ATOM      1  O   UNL     1      31.977 -11.878 -19.778  0.00  0.00    -0.273 OA
ATOM      2  N   UNL     1      32.421 -11.975 -22.111  0.00  0.00    -0.253 N 
ATOM      3  C   UNL     1      33.118 -12.893 -22.920  0.00  0.00    +0.052 C 
ATOM      4  C   UNL     1      33.631 -13.934 -22.145  0.00  0.00    +0.018 C 
ATOM      5  C   UNL     1      32.444 -12.369 -20.784  0.00  0.00    +0.252 C 
ATOM      6  C   UNL     1      33.235 -13.655 -20.779  0.00  0.00    +0.202 C 
ATOM      7  C   UNL     1      34.360 -14.977 -22.677  0.00  0.00    -0.001 C 
ATOM      8  C   UNL     1      33.326 -12.867 -24.287  0.00  0.00    +0.015 C 
ATOM      9  C   UNL     1      34.574 -14.957 -24.056  0.00  0.00    -0.000 C 
ATOM     10  C   UNL     1      34.063 -13.914 -24.853  0.00  0.00    +0.001 C 
ENDROOT
BRANCH   7  11
ATOM     11  C   UNL     1      34.898 -16.061 -21.876  0.00  0.00    -0.000 C 
ATOM     12  C   UNL     1      34.748 -17.382 -22.145  0.00  0.00    -0.000 C 
BRANCH  12  13
ATOM     13  C   UNL     1      35.308 -18.483 -21.342  0.00  0.00    -0.000 C 
ATOM     14  C   UNL     1      34.491 -19.540 -20.940  0.00  0.00    -0.000 C 
ATOM     15  C   UNL     1      36.656 -18.470 -20.985  0.00  0.00    -0.000 C 
ATOM     16  C   UNL     1      35.021 -20.582 -20.179  0.00  0.00    +0.000 C 
ATOM     17  C   UNL     1      37.187 -19.512 -20.225  0.00  0.00    +0.000 C 
ATOM     18  C   UNL     1      36.369 -20.568 -19.821  0.00  0.00    +0.000 C 
ENDBRANCH  12  13
ENDBRANCH   7  11
BRANCH   6  19
ATOM     19  N   UNL     1      33.481 -14.335 -19.716  0.00  0.00    -0.075 NA
BRANCH  19  20
ATOM     20  O   UNL     1      32.265 -14.723 -19.146  0.00  0.00    -0.294 OA
ATOM     21  H   UNL     1      32.161 -15.591 -18.809  0.00  0.00    +0.238 HD
ENDBRANCH  19  20
ENDBRANCH   6  19
BRANCH   2  22
ATOM     22  C   UNL     1      31.777 -10.792 -22.627  0.00  0.00    +0.128 C 
BRANCH  22  26
ATOM     23  F   UNL     1      35.229  -8.072 -24.708  0.00  0.00    -0.204 F 
ATOM     24  O   UNL     1      31.803  -8.972 -20.504  0.00  0.00    -0.448 OA
ATOM     25  O   UNL     1      32.937  -7.294 -19.214  0.00  0.00    -0.311 OA
ATOM     26  C   UNL     1      32.687  -9.599 -22.601  0.00  0.00    +0.034 C 
ATOM     27  C   UNL     1      32.677  -8.706 -21.529  0.00  0.00    +0.138 C 
ATOM     28  C   UNL     1      33.544  -7.606 -21.511  0.00  0.00    +0.043 C 
ATOM     29  C   UNL     1      33.552  -9.383 -23.673  0.00  0.00    +0.030 C 
ATOM     30  C   UNL     1      33.521  -6.659 -20.351  0.00  0.00    +0.176 C 
ATOM     31  C   UNL     1      34.400  -7.391 -22.597  0.00  0.00    +0.031 C 
ATOM     32  C   UNL     1      34.404  -8.279 -23.674  0.00  0.00    +0.140 C 
ATOM     33  C   UNL     1      31.693  -7.895 -19.568  0.00  0.00    +0.361 C 
ENDBRANCH  22  26
ENDBRANCH   2  22
TORSDOF 6
ENDMDL
MODEL 8
REMARK VINA RESULT:      -9.7      4.396     10.599
REMARK  Name = 45268539
REMARK  6 active torsions:
REMARK  status: ('A' for Active; 'I' for Inactive)
REMARK    1  A    between atoms: N_2  and  C_22
REMARK    2  A    between atoms: N_3  and  C_7
REMARK    3  A    between atoms: N_3  and  O_12
REMARK    4  A    between atoms: C_8  and  C_14
REMARK    5  A    between atoms: C_15  and  C_16
REMARK    6  A    between atoms: C_22  and  C_26
REMARK                            x       y       z     vdW  Elec       q    Type
REMARK                         _______ _______ _______ _____ _____    ______ ____
ROOT
ATOM      1  O   UNL     1      37.843 -18.027 -21.535  0.00  0.00    -0.273 OA
ATOM      2  N   UNL     1      35.542 -18.511 -21.880  0.00  0.00    -0.253 N 
ATOM      3  C   UNL     1      34.628 -19.357 -21.222  0.00  0.00    +0.052 C 
ATOM      4  C   UNL     1      35.252 -20.020 -20.164  0.00  0.00    +0.018 C 
ATOM      5  C   UNL     1      36.793 -18.580 -21.289  0.00  0.00    +0.252 C 
ATOM      6  C   UNL     1      36.629 -19.566 -20.157  0.00  0.00    +0.202 C 
ATOM      7  C   UNL     1      34.594 -20.913 -19.346  0.00  0.00    -0.001 C 
ATOM      8  C   UNL     1      33.292 -19.577 -21.497  0.00  0.00    +0.015 C 
ATOM      9  C   UNL     1      33.244 -21.140 -19.617  0.00  0.00    -0.000 C 
ATOM     10  C   UNL     1      32.599 -20.480 -20.681  0.00  0.00    +0.001 C 
ENDROOT
BRANCH   7  11
ATOM     11  C   UNL     1      35.237 -21.607 -18.245  0.00  0.00    -0.000 C 
ATOM     12  C   UNL     1      34.592 -22.225 -17.225  0.00  0.00    -0.000 C 
BRANCH  12  13
ATOM     13  C   UNL     1      35.245 -22.945 -16.116  0.00  0.00    -0.000 C 
ATOM     14  C   UNL     1      36.590 -22.711 -15.830  0.00  0.00    -0.000 C 
ATOM     15  C   UNL     1      34.517 -23.857 -15.353  0.00  0.00    -0.000 C 
ATOM     16  C   UNL     1      37.208 -23.392 -14.780  0.00  0.00    +0.000 C 
ATOM     17  C   UNL     1      35.134 -24.537 -14.303  0.00  0.00    +0.000 C 
ATOM     18  C   UNL     1      36.480 -24.306 -14.018  0.00  0.00    +0.000 C 
ENDBRANCH  12  13
ENDBRANCH   7  11
BRANCH   6  19
ATOM     19  N   UNL     1      37.583 -19.903 -19.364  0.00  0.00    -0.075 NA
BRANCH  19  20
ATOM     20  O   UNL     1      38.075 -18.749 -18.747  0.00  0.00    -0.294 OA
ATOM     21  H   UNL     1      38.990 -18.549 -18.788  0.00  0.00    +0.238 HD
ENDBRANCH  19  20
ENDBRANCH   6  19
BRANCH   2  22
ATOM     22  C   UNL     1      35.191 -17.694 -23.015  0.00  0.00    +0.128 C 
BRANCH  22  26
ATOM     23  F   UNL     1      34.547 -14.331 -19.562  0.00  0.00    -0.204 F 
ATOM     24  O   UNL     1      34.295 -15.789 -24.856  0.00  0.00    -0.448 OA
ATOM     25  O   UNL     1      33.051 -13.796 -25.351  0.00  0.00    -0.311 OA
ATOM     26  C   UNL     1      34.780 -16.309 -22.606  0.00  0.00    +0.034 C 
ATOM     27  C   UNL     1      34.338 -15.379 -23.547  0.00  0.00    +0.138 C 
ATOM     28  C   UNL     1      33.942 -14.096 -23.147  0.00  0.00    +0.043 C 
ATOM     29  C   UNL     1      34.848 -15.953 -21.259  0.00  0.00    +0.030 C 
ATOM     30  C   UNL     1      33.469 -13.111 -24.172  0.00  0.00    +0.176 C 
ATOM     31  C   UNL     1      34.025 -13.744 -21.796  0.00  0.00    +0.031 C 
ATOM     32  C   UNL     1      34.475 -14.671 -20.855  0.00  0.00    +0.140 C 
ATOM     33  C   UNL     1      34.056 -14.715 -25.772  0.00  0.00    +0.361 C 
ENDBRANCH  22  26
ENDBRANCH   2  22
TORSDOF 6
ENDMDL
MODEL 9
REMARK VINA RESULT:      -9.6      9.795     15.355
REMARK  Name = 45268539
REMARK  6 active torsions:
REMARK  status: ('A' for Active; 'I' for Inactive)
REMARK    1  A    between atoms: N_2  and  C_22
REMARK    2  A    between atoms: N_3  and  C_7
REMARK    3  A    between atoms: N_3  and  O_12
REMARK    4  A    between atoms: C_8  and  C_14
REMARK    5  A    between atoms: C_15  and  C_16
REMARK    6  A    between atoms: C_22  and  C_26
REMARK                            x       y       z     vdW  Elec       q    Type
REMARK                         _______ _______ _______ _____ _____    ______ ____
ROOT
ATOM      1  O   UNL     1      30.415 -10.700 -20.540  0.00  0.00    -0.273 OA
ATOM      2  N   UNL     1      31.569 -10.002 -22.498  0.00  0.00    -0.253 N 
ATOM      3  C   UNL     1      32.601 -10.580 -23.263  0.00  0.00    +0.052 C 
ATOM      4  C   UNL     1      32.986 -11.805 -22.717  0.00  0.00    +0.018 C 
ATOM      5  C   UNL     1      31.234 -10.815 -21.428  0.00  0.00    +0.252 C 
ATOM      6  C   UNL     1      32.152 -12.008 -21.549  0.00  0.00    +0.202 C 
ATOM      7  C   UNL     1      33.979 -12.590 -23.263  0.00  0.00    -0.001 C 
ATOM      8  C   UNL     1      33.217 -10.094 -24.401  0.00  0.00    +0.015 C 
ATOM      9  C   UNL     1      34.605 -12.107 -24.412  0.00  0.00    -0.000 C 
ATOM     10  C   UNL     1      34.229 -10.872 -24.976  0.00  0.00    +0.001 C 
ENDROOT
BRANCH   7  11
ATOM     11  C   UNL     1      34.385 -13.865 -22.699  0.00  0.00    -0.000 C 
ATOM     12  C   UNL     1      34.416 -15.043 -23.369  0.00  0.00    -0.000 C 
BRANCH  12  13
ATOM     13  C   UNL     1      34.844 -16.335 -22.802  0.00  0.00    -0.000 C 
ATOM     14  C   UNL     1      35.229 -16.415 -21.464  0.00  0.00    -0.000 C 
ATOM     15  C   UNL     1      34.863 -17.476 -23.603  0.00  0.00    -0.000 C 
ATOM     16  C   UNL     1      35.635 -17.637 -20.926  0.00  0.00    +0.000 C 
ATOM     17  C   UNL     1      35.268 -18.698 -23.066  0.00  0.00    +0.000 C 
ATOM     18  C   UNL     1      35.655 -18.779 -21.728  0.00  0.00    +0.000 C 
ENDBRANCH  12  13
ENDBRANCH   7  11
BRANCH   6  19
ATOM     19  N   UNL     1      32.146 -12.996 -20.726  0.00  0.00    -0.075 NA
BRANCH  19  20
ATOM     20  O   UNL     1      32.356 -12.501 -19.436  0.00  0.00    -0.294 OA
ATOM     21  H   UNL     1      32.339 -13.083 -18.702  0.00  0.00    +0.238 HD
ENDBRANCH  19  20
ENDBRANCH   6  19
BRANCH   2  22
ATOM     22  C   UNL     1      30.962  -8.733 -22.814  0.00  0.00    +0.128 C 
BRANCH  22  26
ATOM     23  F   UNL     1      33.261  -7.125 -18.842  0.00  0.00    -0.204 F 
ATOM     24  O   UNL     1      30.991  -6.095 -23.741  0.00  0.00    -0.448 OA
ATOM     25  O   UNL     1      31.112  -3.737 -23.308  0.00  0.00    -0.311 OA
ATOM     26  C   UNL     1      31.565  -7.608 -22.024  0.00  0.00    +0.034 C 
ATOM     27  C   UNL     1      31.568  -6.302 -22.513  0.00  0.00    +0.138 C 
ATOM     28  C   UNL     1      32.120  -5.260 -21.757  0.00  0.00    +0.043 C 
ATOM     29  C   UNL     1      32.137  -7.883 -20.782  0.00  0.00    +0.030 C 
ATOM     30  C   UNL     1      32.112  -3.863 -22.298  0.00  0.00    +0.176 C 
ATOM     31  C   UNL     1      32.702  -5.548 -20.518  0.00  0.00    +0.031 C 
ATOM     32  C   UNL     1      32.708  -6.856 -20.032  0.00  0.00    +0.140 C 
ATOM     33  C   UNL     1      31.241  -4.786 -24.265  0.00  0.00    +0.361 C 
ENDBRANCH  22  26
ENDBRANCH   2  22
TORSDOF 6
ENDMDL
