MODEL 1
REMARK VINA RESULT:     -11.7      0.000      0.000
REMARK  Name = 24883488
REMARK  8 active torsions:
REMARK  status: ('A' for Active; 'I' for Inactive)
REMARK    1  A    between atoms: N_2  and  C_11
REMARK    2  A    between atoms: C_3  and  C_19
REMARK    3  A    between atoms: C_19  and  C_20
REMARK    4  A    between atoms: C_20  and  C_23
REMARK    5  A    between atoms: N_22  and  C_25
REMARK    6  A    between atoms: C_27  and  O_31
REMARK    7  A    between atoms: O_31  and  C_32
REMARK    8  A    between atoms: C_32  and  C_34
REMARK                            x       y       z     vdW  Elec       q    Type
REMARK                         _______ _______ _______ _____ _____    ______ ____
ROOT
ATOM      1  O   UNL     1      34.858 -15.595 -21.585  0.00  0.00    -0.275 OA
ATOM      2  N   UNL     1      35.469 -17.565 -22.720  0.00  0.00    -0.284 N 
ATOM      3  C   UNL     1      35.145 -16.207 -22.609  0.00  0.00    +0.227 C 
ATOM      4  H   UNL     1      35.648 -17.890 -23.632  0.00  0.00    +0.155 HD
ENDROOT
BRANCH   2  11
ATOM      5  O   UNL     1      32.220 -20.631 -20.242  0.00  0.00    -0.282 OA
ATOM      6  O   UNL     1      36.992 -21.680 -18.095  0.00  0.00    -0.270 OA
ATOM      7  O   UNL     1      32.437 -22.436 -18.310  0.00  0.00    -0.266 OA
ATOM      8  N   UNL     1      34.725 -22.060 -18.196  0.00  0.00    -0.246 N 
ATOM      9  C   UNL     1      34.533 -20.138 -20.243  0.00  0.00    +0.049 C 
ATOM     10  C   UNL     1      35.772 -20.425 -19.671  0.00  0.00    +0.057 C 
ATOM     11  C   UNL     1      35.569 -18.516 -21.704  0.00  0.00    +0.050 C 
ATOM     12  C   UNL     1      34.427 -19.183 -21.260  0.00  0.00    +0.018 C 
ATOM     13  C   UNL     1      36.914 -19.752 -20.120  0.00  0.00    +0.006 C 
ATOM     14  C   UNL     1      36.810 -18.799 -21.136  0.00  0.00    +0.015 C 
ATOM     15  C   UNL     1      33.329 -20.840 -19.777  0.00  0.00    +0.249 C 
ATOM     16  C   UNL     1      35.899 -21.430 -18.595  0.00  0.00    +0.252 C 
ATOM     17  C   UNL     1      33.448 -21.861 -18.686  0.00  0.00    +0.291 C 
ATOM     18  H   UNL     1      34.815 -22.729 -17.479  0.00  0.00    +0.158 HD
ENDBRANCH   2  11
BRANCH   3  19
ATOM     19  C   UNL     1      35.140 -15.502 -23.956  0.00  0.00    +0.095 C 
BRANCH  19  20
ATOM     20  C   UNL     1      33.716 -15.241 -24.438  0.00  0.00    +0.095 C 
BRANCH  20  23
ATOM     21  O   UNL     1      33.023 -13.364 -25.748  0.00  0.00    -0.275 OA
ATOM     22  N   UNL     1      33.795 -12.999 -23.558  0.00  0.00    -0.284 N 
ATOM     23  C   UNL     1      33.476 -13.759 -24.677  0.00  0.00    +0.227 C 
ATOM     24  H   UNL     1      34.127 -13.498 -22.776  0.00  0.00    +0.155 HD
BRANCH  22  25
ATOM     25  C   UNL     1      33.702 -11.597 -23.410  0.00  0.00    +0.053 C 
ATOM     26  C   UNL     1      32.720 -11.046 -22.586  0.00  0.00    +0.052 C 
ATOM     27  C   UNL     1      32.627  -9.662 -22.440  0.00  0.00    +0.140 C 
ATOM     28  C   UNL     1      34.592 -10.763 -24.086  0.00  0.00    +0.015 C 
ATOM     29  C   UNL     1      33.518  -8.828 -23.117  0.00  0.00    +0.037 C 
ATOM     30  C   UNL     1      34.500  -9.379 -23.941  0.00  0.00    +0.004 C 
BRANCH  27  31
ATOM     31  O   UNL     1      31.669  -9.124 -21.637  0.00  0.00    -0.472 OA
BRANCH  31  32
ATOM     32  C   UNL     1      32.114  -8.390 -20.498  0.00  0.00    +0.243 C 
BRANCH  32  34
ATOM     33  F   UNL     1      31.074 -10.262 -19.565  0.00  0.00    -0.230 F 
ATOM     34  C   UNL     1      31.927  -9.244 -19.264  0.00  0.00    +0.240 C 
ENDBRANCH  32  34
ENDBRANCH  31  32
ENDBRANCH  27  31
ENDBRANCH  22  25
ENDBRANCH  20  23
ENDBRANCH  19  20
ENDBRANCH   3  19
TORSDOF 8
ENDMDL
MODEL 2
REMARK VINA RESULT:     -11.6      1.760      2.309
REMARK  Name = 24883488
REMARK  8 active torsions:
REMARK  status: ('A' for Active; 'I' for Inactive)
REMARK    1  A    between atoms: N_2  and  C_11
REMARK    2  A    between atoms: C_3  and  C_19
REMARK    3  A    between atoms: C_19  and  C_20
REMARK    4  A    between atoms: C_20  and  C_23
REMARK    5  A    between atoms: N_22  and  C_25
REMARK    6  A    between atoms: C_27  and  O_31
REMARK    7  A    between atoms: O_31  and  C_32
REMARK    8  A    between atoms: C_32  and  C_34
REMARK                            x       y       z     vdW  Elec       q    Type
REMARK                         _______ _______ _______ _____ _____    ______ ____
ROOT
ATOM      1  O   UNL     1      34.013 -19.054 -24.029  0.00  0.00    -0.275 OA
ATOM      2  N   UNL     1      35.264 -17.898 -22.404  0.00  0.00    -0.284 N 
ATOM      3  C   UNL     1      34.584 -18.049 -23.619  0.00  0.00    +0.227 C 
ATOM      4  H   UNL     1      35.686 -17.021 -22.254  0.00  0.00    +0.155 HD
ENDROOT
BRANCH   2  11
ATOM      5  O   UNL     1      32.181 -21.028 -19.797  0.00  0.00    -0.282 OA
ATOM      6  O   UNL     1      37.042 -21.905 -17.775  0.00  0.00    -0.270 OA
ATOM      7  O   UNL     1      32.508 -22.800 -17.850  0.00  0.00    -0.266 OA
ATOM      8  N   UNL     1      34.786 -22.354 -17.806  0.00  0.00    -0.246 N 
ATOM      9  C   UNL     1      34.477 -20.466 -19.870  0.00  0.00    +0.049 C 
ATOM     10  C   UNL     1      35.741 -20.708 -19.330  0.00  0.00    +0.057 C 
ATOM     11  C   UNL     1      35.422 -18.832 -21.380  0.00  0.00    +0.050 C 
ATOM     12  C   UNL     1      34.314 -19.528 -20.895  0.00  0.00    +0.018 C 
ATOM     13  C   UNL     1      36.848 -20.006 -19.820  0.00  0.00    +0.006 C 
ATOM     14  C   UNL     1      36.686 -19.071 -20.845  0.00  0.00    +0.015 C 
ATOM     15  C   UNL     1      33.309 -21.197 -19.361  0.00  0.00    +0.249 C 
ATOM     16  C   UNL     1      35.928 -21.695 -18.246  0.00  0.00    +0.252 C 
ATOM     17  C   UNL     1      33.490 -22.200 -18.261  0.00  0.00    +0.291 C 
ATOM     18  H   UNL     1      34.916 -23.011 -17.084  0.00  0.00    +0.158 HD
ENDBRANCH   2  11
BRANCH   3  19
ATOM     19  C   UNL     1      34.641 -16.792 -24.473  0.00  0.00    +0.095 C 
BRANCH  19  20
ATOM     20  C   UNL     1      35.055 -15.578 -23.645  0.00  0.00    +0.095 C 
BRANCH  20  23
ATOM     21  O   UNL     1      33.221 -14.415 -24.643  0.00  0.00    -0.275 OA
ATOM     22  N   UNL     1      34.040 -13.678 -22.567  0.00  0.00    -0.284 N 
ATOM     23  C   UNL     1      33.999 -14.487 -23.696  0.00  0.00    +0.227 C 
ATOM     24  H   UNL     1      34.725 -13.903 -21.896  0.00  0.00    +0.155 HD
BRANCH  22  25
ATOM     25  C   UNL     1      33.216 -12.569 -22.267  0.00  0.00    +0.053 C 
ATOM     26  C   UNL     1      33.337 -11.390 -23.003  0.00  0.00    +0.052 C 
ATOM     27  C   UNL     1      32.525 -10.296 -22.707  0.00  0.00    +0.140 C 
ATOM     28  C   UNL     1      32.282 -12.654 -21.235  0.00  0.00    +0.015 C 
ATOM     29  C   UNL     1      31.590 -10.381 -21.674  0.00  0.00    +0.037 C 
ATOM     30  C   UNL     1      31.468 -11.560 -20.938  0.00  0.00    +0.004 C 
BRANCH  27  31
ATOM     31  O   UNL     1      32.642  -9.145 -23.424  0.00  0.00    -0.472 OA
BRANCH  31  32
ATOM     32  C   UNL     1      33.295  -8.048 -22.787  0.00  0.00    +0.243 C 
BRANCH  32  34
ATOM     33  F   UNL     1      35.292  -6.836 -22.821  0.00  0.00    -0.230 F 
ATOM     34  C   UNL     1      34.735  -8.003 -23.248  0.00  0.00    +0.240 C 
ENDBRANCH  32  34
ENDBRANCH  31  32
ENDBRANCH  27  31
ENDBRANCH  22  25
ENDBRANCH  20  23
ENDBRANCH  19  20
ENDBRANCH   3  19
TORSDOF 8
ENDMDL
MODEL 3
REMARK VINA RESULT:     -11.5      6.161     10.063
REMARK  Name = 24883488
REMARK  8 active torsions:
REMARK  status: ('A' for Active; 'I' for Inactive)
REMARK    1  A    between atoms: N_2  and  C_11
REMARK    2  A    between atoms: C_3  and  C_19
REMARK    3  A    between atoms: C_19  and  C_20
REMARK    4  A    between atoms: C_20  and  C_23
REMARK    5  A    between atoms: N_22  and  C_25
REMARK    6  A    between atoms: C_27  and  O_31
REMARK    7  A    between atoms: O_31  and  C_32
REMARK    8  A    between atoms: C_32  and  C_34
REMARK                            x       y       z     vdW  Elec       q    Type
REMARK                         _______ _______ _______ _____ _____    ______ ____
ROOT
ATOM      1  O   UNL     1      35.857 -24.752 -15.344  0.00  0.00    -0.275 OA
ATOM      2  N   UNL     1      34.667 -23.136 -14.113  0.00  0.00    -0.284 N 
ATOM      3  C   UNL     1      35.806 -23.724 -14.677  0.00  0.00    +0.227 C 
ATOM      4  H   UNL     1      34.821 -22.320 -13.584  0.00  0.00    +0.155 HD
ENDROOT
BRANCH   2  11
ATOM      5  O   UNL     1      30.633 -21.943 -17.012  0.00  0.00    -0.282 OA
ATOM      6  O   UNL     1      28.867 -25.754 -13.721  0.00  0.00    -0.270 OA
ATOM      7  O   UNL     1      28.117 -22.767 -17.168  0.00  0.00    -0.266 OA
ATOM      8  N   UNL     1      28.486 -24.268 -15.435  0.00  0.00    -0.246 N 
ATOM      9  C   UNL     1      31.162 -23.418 -15.242  0.00  0.00    +0.049 C 
ATOM     10  C   UNL     1      30.684 -24.414 -14.389  0.00  0.00    +0.057 C 
ATOM     11  C   UNL     1      33.341 -23.559 -14.205  0.00  0.00    +0.050 C 
ATOM     12  C   UNL     1      32.490 -22.988 -15.152  0.00  0.00    +0.018 C 
ATOM     13  C   UNL     1      31.541 -24.983 -13.441  0.00  0.00    +0.006 C 
ATOM     14  C   UNL     1      32.868 -24.555 -13.351  0.00  0.00    +0.015 C 
ATOM     15  C   UNL     1      30.269 -22.815 -16.240  0.00  0.00    +0.249 C 
ATOM     16  C   UNL     1      29.283 -24.877 -14.472  0.00  0.00    +0.252 C 
ATOM     17  C   UNL     1      28.846 -23.278 -16.331  0.00  0.00    +0.291 C 
ATOM     18  H   UNL     1      27.554 -24.581 -15.487  0.00  0.00    +0.158 HD
ENDBRANCH   2  11
BRANCH   3  19
ATOM     19  C   UNL     1      37.076 -22.957 -14.345  0.00  0.00    +0.095 C 
BRANCH  19  20
ATOM     20  C   UNL     1      37.901 -22.681 -15.599  0.00  0.00    +0.095 C 
BRANCH  20  23
ATOM     21  O   UNL     1      37.502 -20.463 -16.396  0.00  0.00    -0.275 OA
ATOM     22  N   UNL     1      36.339 -22.251 -17.383  0.00  0.00    -0.284 N 
ATOM     23  C   UNL     1      37.224 -21.655 -16.492  0.00  0.00    +0.227 C 
ATOM     24  H   UNL     1      36.263 -23.232 -17.327  0.00  0.00    +0.155 HD
BRANCH  22  25
ATOM     25  C   UNL     1      35.537 -21.619 -18.359  0.00  0.00    +0.053 C 
ATOM     26  C   UNL     1      36.127 -20.819 -19.338  0.00  0.00    +0.052 C 
ATOM     27  C   UNL     1      35.335 -20.194 -20.301  0.00  0.00    +0.140 C 
ATOM     28  C   UNL     1      34.153 -21.793 -18.343  0.00  0.00    +0.015 C 
ATOM     29  C   UNL     1      33.950 -20.370 -20.285  0.00  0.00    +0.037 C 
ATOM     30  C   UNL     1      33.359 -21.169 -19.306  0.00  0.00    +0.004 C 
BRANCH  27  31
ATOM     31  O   UNL     1      35.911 -19.415 -21.255  0.00  0.00    -0.472 OA
BRANCH  31  32
ATOM     32  C   UNL     1      35.296 -18.155 -21.522  0.00  0.00    +0.243 C 
BRANCH  32  34
ATOM     33  F   UNL     1      34.862 -19.310 -23.506  0.00  0.00    -0.230 F 
ATOM     34  C   UNL     1      35.017 -18.053 -23.005  0.00  0.00    +0.240 C 
ENDBRANCH  32  34
ENDBRANCH  31  32
ENDBRANCH  27  31
ENDBRANCH  22  25
ENDBRANCH  20  23
ENDBRANCH  19  20
ENDBRANCH   3  19
TORSDOF 8
ENDMDL
MODEL 4
REMARK VINA RESULT:     -11.4      2.472      3.558
REMARK  Name = 24883488
REMARK  8 active torsions:
REMARK  status: ('A' for Active; 'I' for Inactive)
REMARK    1  A    between atoms: N_2  and  C_11
REMARK    2  A    between atoms: C_3  and  C_19
REMARK    3  A    between atoms: C_19  and  C_20
REMARK    4  A    between atoms: C_20  and  C_23
REMARK    5  A    between atoms: N_22  and  C_25
REMARK    6  A    between atoms: C_27  and  O_31
REMARK    7  A    between atoms: O_31  and  C_32
REMARK    8  A    between atoms: C_32  and  C_34
REMARK                            x       y       z     vdW  Elec       q    Type
REMARK                         _______ _______ _______ _____ _____    ______ ____
ROOT
ATOM      1  O   UNL     1      35.370 -17.841 -20.584  0.00  0.00    -0.275 OA
ATOM      2  N   UNL     1      34.875 -20.087 -21.085  0.00  0.00    -0.284 N 
ATOM      3  C   UNL     1      35.049 -18.727 -21.369  0.00  0.00    +0.227 C 
ATOM      4  H   UNL     1      34.589 -20.650 -21.840  0.00  0.00    +0.155 HD
ENDROOT
BRANCH   2  11
ATOM      5  O   UNL     1      31.850 -22.454 -17.717  0.00  0.00    -0.282 OA
ATOM      6  O   UNL     1      36.759 -22.870 -15.667  0.00  0.00    -0.270 OA
ATOM      7  O   UNL     1      32.220 -23.704 -15.407  0.00  0.00    -0.266 OA
ATOM      8  N   UNL     1      34.501 -23.287 -15.530  0.00  0.00    -0.246 N 
ATOM      9  C   UNL     1      34.145 -21.953 -17.983  0.00  0.00    +0.049 C 
ATOM     10  C   UNL     1      35.422 -22.071 -17.433  0.00  0.00    +0.057 C 
ATOM     11  C   UNL     1      35.056 -20.746 -19.869  0.00  0.00    +0.050 C 
ATOM     12  C   UNL     1      33.959 -21.290 -19.201  0.00  0.00    +0.018 C 
ATOM     13  C   UNL     1      36.519 -21.523 -18.107  0.00  0.00    +0.006 C 
ATOM     14  C   UNL     1      36.334 -20.862 -19.324  0.00  0.00    +0.015 C 
ATOM     15  C   UNL     1      32.988 -22.525 -17.282  0.00  0.00    +0.249 C 
ATOM     16  C   UNL     1      35.634 -22.767 -16.147  0.00  0.00    +0.252 C 
ATOM     17  C   UNL     1      33.194 -23.233 -15.977  0.00  0.00    +0.291 C 
ATOM     18  H   UNL     1      34.648 -23.750 -14.674  0.00  0.00    +0.158 HD
ENDBRANCH   2  11
BRANCH   3  19
ATOM     19  C   UNL     1      34.750 -18.397 -22.823  0.00  0.00    +0.095 C 
BRANCH  19  20
ATOM     20  C   UNL     1      35.486 -17.136 -23.267  0.00  0.00    +0.095 C 
BRANCH  20  23
ATOM     21  O   UNL     1      33.828 -15.848 -24.409  0.00  0.00    -0.275 OA
ATOM     22  N   UNL     1      34.571 -15.129 -22.298  0.00  0.00    -0.284 N 
ATOM     23  C   UNL     1      34.534 -15.961 -23.411  0.00  0.00    +0.227 C 
ATOM     24  H   UNL     1      35.189 -15.395 -21.579  0.00  0.00    +0.155 HD
BRANCH  22  25
ATOM     25  C   UNL     1      33.828 -13.948 -22.076  0.00  0.00    +0.053 C 
ATOM     26  C   UNL     1      33.862 -12.915 -23.014  0.00  0.00    +0.052 C 
ATOM     27  C   UNL     1      33.129 -11.749 -22.794  0.00  0.00    +0.140 C 
ATOM     28  C   UNL     1      33.060 -13.814 -20.919  0.00  0.00    +0.015 C 
ATOM     29  C   UNL     1      32.361 -11.616 -21.636  0.00  0.00    +0.037 C 
ATOM     30  C   UNL     1      32.327 -12.648 -20.699  0.00  0.00    +0.004 C 
BRANCH  27  31
ATOM     31  O   UNL     1      33.162 -10.741 -23.708  0.00  0.00    -0.472 OA
BRANCH  31  32
ATOM     32  C   UNL     1      34.056 -10.893 -24.809  0.00  0.00    +0.243 C 
BRANCH  32  34
ATOM     33  F   UNL     1      35.983  -9.983 -25.765  0.00  0.00    -0.230 F 
ATOM     34  C   UNL     1      35.107  -9.808 -24.737  0.00  0.00    +0.240 C 
ENDBRANCH  32  34
ENDBRANCH  31  32
ENDBRANCH  27  31
ENDBRANCH  22  25
ENDBRANCH  20  23
ENDBRANCH  19  20
ENDBRANCH   3  19
TORSDOF 8
ENDMDL
MODEL 5
REMARK VINA RESULT:     -11.3      3.591      7.140
REMARK  Name = 24883488
REMARK  8 active torsions:
REMARK  status: ('A' for Active; 'I' for Inactive)
REMARK    1  A    between atoms: N_2  and  C_11
REMARK    2  A    between atoms: C_3  and  C_19
REMARK    3  A    between atoms: C_19  and  C_20
REMARK    4  A    between atoms: C_20  and  C_23
REMARK    5  A    between atoms: N_22  and  C_25
REMARK    6  A    between atoms: C_27  and  O_31
REMARK    7  A    between atoms: O_31  and  C_32
REMARK    8  A    between atoms: C_32  and  C_34
REMARK                            x       y       z     vdW  Elec       q    Type
REMARK                         _______ _______ _______ _____ _____    ______ ____
ROOT
ATOM      1  O   UNL     1      33.358 -21.222 -18.950  0.00  0.00    -0.275 OA
ATOM      2  N   UNL     1      34.617 -22.705 -17.624  0.00  0.00    -0.284 N 
ATOM      3  C   UNL     1      34.390 -21.835 -18.698  0.00  0.00    +0.227 C 
ATOM      4  H   UNL     1      35.504 -23.131 -17.596  0.00  0.00    +0.155 HD
ENDROOT
BRANCH   2  11
ATOM      5  O   UNL     1      29.562 -22.560 -16.896  0.00  0.00    -0.282 OA
ATOM      6  O   UNL     1      31.535 -24.572 -12.364  0.00  0.00    -0.270 OA
ATOM      7  O   UNL     1      27.926 -23.219 -14.915  0.00  0.00    -0.266 OA
ATOM      8  N   UNL     1      29.735 -23.899 -13.627  0.00  0.00    -0.246 N 
ATOM      9  C   UNL     1      31.501 -23.210 -15.707  0.00  0.00    +0.049 C 
ATOM     10  C   UNL     1      31.999 -23.737 -14.516  0.00  0.00    +0.057 C 
ATOM     11  C   UNL     1      33.745 -23.047 -16.590  0.00  0.00    +0.050 C 
ATOM     12  C   UNL     1      32.371 -22.863 -16.747  0.00  0.00    +0.018 C 
ATOM     13  C   UNL     1      33.379 -23.919 -14.365  0.00  0.00    +0.006 C 
ATOM     14  C   UNL     1      34.248 -23.575 -15.402  0.00  0.00    +0.015 C 
ATOM     15  C   UNL     1      30.055 -23.015 -15.876  0.00  0.00    +0.249 C 
ATOM     16  C   UNL     1      31.092 -24.107 -13.410  0.00  0.00    +0.252 C 
ATOM     17  C   UNL     1      29.127 -23.387 -14.758  0.00  0.00    +0.291 C 
ATOM     18  H   UNL     1      29.135 -24.147 -12.887  0.00  0.00    +0.158 HD
ENDBRANCH   2  11
BRANCH   3  19
ATOM     19  C   UNL     1      35.595 -21.728 -19.618  0.00  0.00    +0.095 C 
BRANCH  19  20
ATOM     20  C   UNL     1      36.490 -20.555 -19.224  0.00  0.00    +0.095 C 
BRANCH  20  23
ATOM     21  O   UNL     1      37.511 -18.786 -20.465  0.00  0.00    -0.275 OA
ATOM     22  N   UNL     1      35.348 -19.487 -21.057  0.00  0.00    -0.284 N 
ATOM     23  C   UNL     1      36.520 -19.493 -20.311  0.00  0.00    +0.227 C 
ATOM     24  H   UNL     1      34.665 -20.148 -20.798  0.00  0.00    +0.155 HD
BRANCH  22  25
ATOM     25  C   UNL     1      35.018 -18.644 -22.142  0.00  0.00    +0.053 C 
ATOM     26  C   UNL     1      35.300 -17.279 -22.077  0.00  0.00    +0.052 C 
ATOM     27  C   UNL     1      34.974 -16.447 -23.149  0.00  0.00    +0.140 C 
ATOM     28  C   UNL     1      34.409 -19.177 -23.278  0.00  0.00    +0.015 C 
ATOM     29  C   UNL     1      34.365 -16.981 -24.285  0.00  0.00    +0.037 C 
ATOM     30  C   UNL     1      34.083 -18.346 -24.350  0.00  0.00    +0.004 C 
BRANCH  27  31
ATOM     31  O   UNL     1      35.248 -15.116 -23.086  0.00  0.00    -0.472 OA
BRANCH  31  32
ATOM     32  C   UNL     1      34.143 -14.220 -23.186  0.00  0.00    +0.243 C 
BRANCH  32  34
ATOM     33  F   UNL     1      34.472 -14.170 -20.874  0.00  0.00    -0.230 F 
ATOM     34  C   UNL     1      34.066 -13.397 -21.920  0.00  0.00    +0.240 C 
ENDBRANCH  32  34
ENDBRANCH  31  32
ENDBRANCH  27  31
ENDBRANCH  22  25
ENDBRANCH  20  23
ENDBRANCH  19  20
ENDBRANCH   3  19
TORSDOF 8
ENDMDL
MODEL 6
REMARK VINA RESULT:     -11.1      3.172     10.393
REMARK  Name = 24883488
REMARK  8 active torsions:
REMARK  status: ('A' for Active; 'I' for Inactive)
REMARK    1  A    between atoms: N_2  and  C_11
REMARK    2  A    between atoms: C_3  and  C_19
REMARK    3  A    between atoms: C_19  and  C_20
REMARK    4  A    between atoms: C_20  and  C_23
REMARK    5  A    between atoms: N_22  and  C_25
REMARK    6  A    between atoms: C_27  and  O_31
REMARK    7  A    between atoms: O_31  and  C_32
REMARK    8  A    between atoms: C_32  and  C_34
REMARK                            x       y       z     vdW  Elec       q    Type
REMARK                         _______ _______ _______ _____ _____    ______ ____
ROOT
ATOM      1  O   UNL     1      33.389 -15.654 -24.382  0.00  0.00    -0.275 OA
ATOM      2  N   UNL     1      34.496 -14.897 -22.447  0.00  0.00    -0.284 N 
ATOM      3  C   UNL     1      34.282 -15.740 -23.545  0.00  0.00    +0.227 C 
ATOM      4  H   UNL     1      35.252 -15.136 -21.863  0.00  0.00    +0.155 HD
ENDROOT
BRANCH   2  11
ATOM      5  O   UNL     1      33.832 -10.196 -24.332  0.00  0.00    -0.282 OA
ATOM      6  O   UNL     1      30.863 -10.319 -19.900  0.00  0.00    -0.270 OA
ATOM      7  O   UNL     1      32.450  -8.053 -23.603  0.00  0.00    -0.266 OA
ATOM      8  N   UNL     1      31.650  -9.185 -21.740  0.00  0.00    -0.246 N 
ATOM      9  C   UNL     1      33.105 -11.477 -22.483  0.00  0.00    +0.049 C 
ATOM     10  C   UNL     1      32.323 -11.492 -21.327  0.00  0.00    +0.057 C 
ATOM     11  C   UNL     1      33.774 -13.763 -22.074  0.00  0.00    +0.050 C 
ATOM     12  C   UNL     1      33.832 -12.611 -22.859  0.00  0.00    +0.018 C 
ATOM     13  C   UNL     1      32.269 -12.650 -20.544  0.00  0.00    +0.006 C 
ATOM     14  C   UNL     1      32.994 -13.783 -20.919  0.00  0.00    +0.015 C 
ATOM     15  C   UNL     1      33.167 -10.265 -23.311  0.00  0.00    +0.249 C 
ATOM     16  C   UNL     1      31.550 -10.301 -20.917  0.00  0.00    +0.252 C 
ATOM     17  C   UNL     1      32.387  -9.052 -22.902  0.00  0.00    +0.291 C 
ATOM     18  H   UNL     1      31.133  -8.394 -21.462  0.00  0.00    +0.158 HD
ENDBRANCH   2  11
BRANCH   3  19
ATOM     19  C   UNL     1      35.289 -16.876 -23.606  0.00  0.00    +0.095 C 
BRANCH  19  20
ATOM     20  C   UNL     1      34.615 -18.227 -23.381  0.00  0.00    +0.095 C 
BRANCH  20  23
ATOM     21  O   UNL     1      36.300 -18.712 -21.756  0.00  0.00    -0.275 OA
ATOM     22  N   UNL     1      34.180 -19.701 -21.525  0.00  0.00    -0.284 N 
ATOM     23  C   UNL     1      35.149 -18.910 -22.133  0.00  0.00    +0.227 C 
ATOM     24  H   UNL     1      33.299 -19.720 -21.964  0.00  0.00    +0.155 HD
BRANCH  22  25
ATOM     25  C   UNL     1      34.310 -20.481 -20.354  0.00  0.00    +0.053 C 
ATOM     26  C   UNL     1      33.172 -20.935 -19.688  0.00  0.00    +0.052 C 
ATOM     27  C   UNL     1      33.300 -21.704 -18.531  0.00  0.00    +0.140 C 
ATOM     28  C   UNL     1      35.577 -20.795 -19.862  0.00  0.00    +0.015 C 
ATOM     29  C   UNL     1      34.568 -22.019 -18.040  0.00  0.00    +0.037 C 
ATOM     30  C   UNL     1      35.707 -21.564 -18.706  0.00  0.00    +0.004 C 
BRANCH  27  31
ATOM     31  O   UNL     1      32.190 -22.148 -17.881  0.00  0.00    -0.472 OA
BRANCH  31  32
ATOM     32  C   UNL     1      32.393 -23.029 -16.777  0.00  0.00    +0.243 C 
BRANCH  32  34
ATOM     33  F   UNL     1      31.429 -22.410 -14.742  0.00  0.00    -0.230 F 
ATOM     34  C   UNL     1      31.147 -23.032 -15.921  0.00  0.00    +0.240 C 
ENDBRANCH  32  34
ENDBRANCH  31  32
ENDBRANCH  27  31
ENDBRANCH  22  25
ENDBRANCH  20  23
ENDBRANCH  19  20
ENDBRANCH   3  19
TORSDOF 8
ENDMDL
MODEL 7
REMARK VINA RESULT:     -11.0      1.968      3.357
REMARK  Name = 24883488
REMARK  8 active torsions:
REMARK  status: ('A' for Active; 'I' for Inactive)
REMARK    1  A    between atoms: N_2  and  C_11
REMARK    2  A    between atoms: C_3  and  C_19
REMARK    3  A    between atoms: C_19  and  C_20
REMARK    4  A    between atoms: C_20  and  C_23
REMARK    5  A    between atoms: N_22  and  C_25
REMARK    6  A    between atoms: C_27  and  O_31
REMARK    7  A    between atoms: O_31  and  C_32
REMARK    8  A    between atoms: C_32  and  C_34
REMARK                            x       y       z     vdW  Elec       q    Type
REMARK                         _______ _______ _______ _____ _____    ______ ____
ROOT
ATOM      1  O   UNL     1      35.324 -17.032 -20.471  0.00  0.00    -0.275 OA
ATOM      2  N   UNL     1      34.947 -19.069 -21.590  0.00  0.00    -0.284 N 
ATOM      3  C   UNL     1      35.347 -17.731 -21.478  0.00  0.00    +0.227 C 
ATOM      4  H   UNL     1      35.013 -19.463 -22.489  0.00  0.00    +0.155 HD
ENDROOT
BRANCH   2  11
ATOM      5  O   UNL     1      37.000 -21.695 -17.718  0.00  0.00    -0.282 OA
ATOM      6  O   UNL     1      31.773 -22.740 -17.455  0.00  0.00    -0.270 OA
ATOM      7  O   UNL     1      36.062 -23.297 -15.823  0.00  0.00    -0.266 OA
ATOM      8  N   UNL     1      33.905 -23.023 -16.638  0.00  0.00    -0.246 N 
ATOM      9  C   UNL     1      34.865 -21.320 -18.663  0.00  0.00    +0.049 C 
ATOM     10  C   UNL     1      33.502 -21.603 -18.579  0.00  0.00    +0.057 C 
ATOM     11  C   UNL     1      34.467 -19.914 -20.589  0.00  0.00    +0.050 C 
ATOM     12  C   UNL     1      35.351 -20.475 -19.667  0.00  0.00    +0.018 C 
ATOM     13  C   UNL     1      32.619 -21.037 -19.507  0.00  0.00    +0.006 C 
ATOM     14  C   UNL     1      33.104 -20.193 -20.509  0.00  0.00    +0.015 C 
ATOM     15  C   UNL     1      35.798 -21.909 -17.694  0.00  0.00    +0.249 C 
ATOM     16  C   UNL     1      32.974 -22.494 -17.525  0.00  0.00    +0.252 C 
ATOM     17  C   UNL     1      35.272 -22.815 -16.622  0.00  0.00    +0.291 C 
ATOM     18  H   UNL     1      33.548 -23.616 -15.938  0.00  0.00    +0.158 HD
ENDBRANCH   2  11
BRANCH   3  19
ATOM     19  C   UNL     1      35.811 -17.155 -22.806  0.00  0.00    +0.095 C 
BRANCH  19  20
ATOM     20  C   UNL     1      34.686 -17.166 -23.838  0.00  0.00    +0.095 C 
BRANCH  20  23
ATOM     21  O   UNL     1      33.907 -15.409 -25.259  0.00  0.00    -0.275 OA
ATOM     22  N   UNL     1      34.043 -15.023 -22.945  0.00  0.00    -0.284 N 
ATOM     23  C   UNL     1      34.175 -15.761 -24.115  0.00  0.00    +0.227 C 
ATOM     24  H   UNL     1      34.288 -15.485 -22.110  0.00  0.00    +0.155 HD
BRANCH  22  25
ATOM     25  C   UNL     1      33.598 -13.688 -22.811  0.00  0.00    +0.053 C 
ATOM     26  C   UNL     1      34.061 -12.707 -23.688  0.00  0.00    +0.052 C 
ATOM     27  C   UNL     1      33.623 -11.389 -23.555  0.00  0.00    +0.140 C 
ATOM     28  C   UNL     1      32.698 -13.351 -21.801  0.00  0.00    +0.015 C 
ATOM     29  C   UNL     1      32.721 -11.053 -22.544  0.00  0.00    +0.037 C 
ATOM     30  C   UNL     1      32.259 -12.034 -21.667  0.00  0.00    +0.004 C 
BRANCH  27  31
ATOM     31  O   UNL     1      34.073 -10.431 -24.410  0.00  0.00    -0.472 OA
BRANCH  31  32
ATOM     32  C   UNL     1      35.086  -9.552 -23.925  0.00  0.00    +0.243 C 
BRANCH  32  34
ATOM     33  F   UNL     1      34.176  -7.989 -22.447  0.00  0.00    -0.230 F 
ATOM     34  C   UNL     1      34.495  -8.171 -23.759  0.00  0.00    +0.240 C 
ENDBRANCH  32  34
ENDBRANCH  31  32
ENDBRANCH  27  31
ENDBRANCH  22  25
ENDBRANCH  20  23
ENDBRANCH  19  20
ENDBRANCH   3  19
TORSDOF 8
ENDMDL
MODEL 8
REMARK VINA RESULT:     -10.9      4.403      7.826
REMARK  Name = 24883488
REMARK  8 active torsions:
REMARK  status: ('A' for Active; 'I' for Inactive)
REMARK    1  A    between atoms: N_2  and  C_11
REMARK    2  A    between atoms: C_3  and  C_19
REMARK    3  A    between atoms: C_19  and  C_20
REMARK    4  A    between atoms: C_20  and  C_23
REMARK    5  A    between atoms: N_22  and  C_25
REMARK    6  A    between atoms: C_27  and  O_31
REMARK    7  A    between atoms: O_31  and  C_32
REMARK    8  A    between atoms: C_32  and  C_34
REMARK                            x       y       z     vdW  Elec       q    Type
REMARK                         _______ _______ _______ _____ _____    ______ ____
ROOT
ATOM      1  O   UNL     1      33.088 -23.801 -16.839  0.00  0.00    -0.275 OA
ATOM      2  N   UNL     1      34.915 -22.319 -16.732  0.00  0.00    -0.284 N 
ATOM      3  C   UNL     1      33.709 -22.820 -17.238  0.00  0.00    +0.227 C 
ATOM      4  H   UNL     1      35.282 -21.533 -17.197  0.00  0.00    +0.155 HD
ENDROOT
BRANCH   2  11
ATOM      5  O   UNL     1      33.880 -24.139 -12.072  0.00  0.00    -0.282 OA
ATOM      6  O   UNL     1      39.202 -24.286 -12.442  0.00  0.00    -0.270 OA
ATOM      7  O   UNL     1      35.327 -25.037 -10.038  0.00  0.00    -0.266 OA
ATOM      8  N   UNL     1      37.277 -24.661 -11.240  0.00  0.00    -0.246 N 
ATOM      9  C   UNL     1      35.775 -23.701 -13.417  0.00  0.00    +0.049 C 
ATOM     10  C   UNL     1      37.167 -23.746 -13.497  0.00  0.00    +0.057 C 
ATOM     11  C   UNL     1      35.664 -22.793 -15.655  0.00  0.00    +0.050 C 
ATOM     12  C   UNL     1      35.020 -23.224 -14.495  0.00  0.00    +0.018 C 
ATOM     13  C   UNL     1      37.807 -23.312 -14.664  0.00  0.00    +0.006 C 
ATOM     14  C   UNL     1      37.054 -22.837 -15.740  0.00  0.00    +0.015 C 
ATOM     15  C   UNL     1      35.095 -24.154 -12.197  0.00  0.00    +0.249 C 
ATOM     16  C   UNL     1      37.977 -24.247 -12.367  0.00  0.00    +0.252 C 
ATOM     17  C   UNL     1      35.908 -24.663 -11.046  0.00  0.00    +0.291 C 
ATOM     18  H   UNL     1      37.822 -24.993 -10.490  0.00  0.00    +0.158 HD
ENDBRANCH   2  11
BRANCH   3  19
ATOM     19  C   UNL     1      33.206 -22.022 -18.429  0.00  0.00    +0.095 C 
BRANCH  19  20
ATOM     20  C   UNL     1      34.349 -21.287 -19.126  0.00  0.00    +0.095 C 
BRANCH  20  23
ATOM     21  O   UNL     1      32.628 -20.266 -20.433  0.00  0.00    -0.275 OA
ATOM     22  N   UNL     1      34.872 -19.773 -20.925  0.00  0.00    -0.284 N 
ATOM     23  C   UNL     1      33.833 -20.394 -20.242  0.00  0.00    +0.227 C 
ATOM     24  H   UNL     1      35.783 -19.982 -20.613  0.00  0.00    +0.155 HD
BRANCH  22  25
ATOM     25  C   UNL     1      34.778 -18.878 -22.015  0.00  0.00    +0.053 C 
ATOM     26  C   UNL     1      35.133 -17.539 -21.852  0.00  0.00    +0.052 C 
ATOM     27  C   UNL     1      35.039 -16.656 -22.928  0.00  0.00    +0.140 C 
ATOM     28  C   UNL     1      34.328 -19.334 -23.254  0.00  0.00    +0.015 C 
ATOM     29  C   UNL     1      34.590 -17.113 -24.167  0.00  0.00    +0.037 C 
ATOM     30  C   UNL     1      34.235 -18.452 -24.331  0.00  0.00    +0.004 C 
BRANCH  27  31
ATOM     31  O   UNL     1      35.386 -15.350 -22.769  0.00  0.00    -0.472 OA
BRANCH  31  32
ATOM     32  C   UNL     1      34.397 -14.478 -22.224  0.00  0.00    +0.243 C 
BRANCH  32  34
ATOM     33  F   UNL     1      32.693 -13.514 -23.500  0.00  0.00    -0.230 F 
ATOM     34  C   UNL     1      34.033 -13.443 -23.265  0.00  0.00    +0.240 C 
ENDBRANCH  32  34
ENDBRANCH  31  32
ENDBRANCH  27  31
ENDBRANCH  22  25
ENDBRANCH  20  23
ENDBRANCH  19  20
ENDBRANCH   3  19
TORSDOF 8
ENDMDL
MODEL 9
REMARK VINA RESULT:     -10.9      2.979     10.671
REMARK  Name = 24883488
REMARK  8 active torsions:
REMARK  status: ('A' for Active; 'I' for Inactive)
REMARK    1  A    between atoms: N_2  and  C_11
REMARK    2  A    between atoms: C_3  and  C_19
REMARK    3  A    between atoms: C_19  and  C_20
REMARK    4  A    between atoms: C_20  and  C_23
REMARK    5  A    between atoms: N_22  and  C_25
REMARK    6  A    between atoms: C_27  and  O_31
REMARK    7  A    between atoms: O_31  and  C_32
REMARK    8  A    between atoms: C_32  and  C_34
REMARK                            x       y       z     vdW  Elec       q    Type
REMARK                         _______ _______ _______ _____ _____    ______ ____
ROOT
ATOM      1  O   UNL     1      35.236 -15.131 -22.478  0.00  0.00    -0.275 OA
ATOM      2  N   UNL     1      33.391 -14.386 -23.737  0.00  0.00    -0.284 N 
ATOM      3  C   UNL     1      34.368 -15.302 -23.328  0.00  0.00    +0.227 C 
ATOM      4  H   UNL     1      32.790 -14.690 -24.455  0.00  0.00    +0.155 HD
ENDROOT
BRANCH   2  11
ATOM      5  O   UNL     1      35.120  -9.706 -24.836  0.00  0.00    -0.282 OA
ATOM      6  O   UNL     1      31.636  -8.973 -20.860  0.00  0.00    -0.270 OA
ATOM      7  O   UNL     1      34.663  -7.264 -23.906  0.00  0.00    -0.266 OA
ATOM      8  N   UNL     1      33.142  -8.116 -22.372  0.00  0.00    -0.246 N 
ATOM      9  C   UNL     1      33.602 -10.721 -23.333  0.00  0.00    +0.049 C 
ATOM     10  C   UNL     1      32.695 -10.511 -22.295  0.00  0.00    +0.057 C 
ATOM     11  C   UNL     1      33.161 -13.096 -23.256  0.00  0.00    +0.050 C 
ATOM     12  C   UNL     1      33.838 -12.013 -23.816  0.00  0.00    +0.018 C 
ATOM     13  C   UNL     1      32.018 -11.603 -21.737  0.00  0.00    +0.006 C 
ATOM     14  C   UNL     1      32.252 -12.892 -22.219  0.00  0.00    +0.015 C 
ATOM     15  C   UNL     1      34.316  -9.582 -23.925  0.00  0.00    +0.249 C 
ATOM     16  C   UNL     1      32.436  -9.153 -21.774  0.00  0.00    +0.252 C 
ATOM     17  C   UNL     1      34.061  -8.201 -23.402  0.00  0.00    +0.291 C 
ATOM     18  H   UNL     1      32.966  -7.213 -22.022  0.00  0.00    +0.158 HD
ENDBRANCH   2  11
BRANCH   3  19
ATOM     19  C   UNL     1      34.292 -16.609 -24.100  0.00  0.00    +0.095 C 
BRANCH  19  20
ATOM     20  C   UNL     1      35.273 -17.638 -23.545  0.00  0.00    +0.095 C 
BRANCH  20  23
ATOM     21  O   UNL     1      33.517 -19.208 -23.139  0.00  0.00    -0.275 OA
ATOM     22  N   UNL     1      35.244 -19.001 -21.559  0.00  0.00    -0.284 N 
ATOM     23  C   UNL     1      34.558 -18.702 -22.730  0.00  0.00    +0.227 C 
ATOM     24  H   UNL     1      36.081 -18.504 -21.408  0.00  0.00    +0.155 HD
BRANCH  22  25
ATOM     25  C   UNL     1      34.885 -19.934 -20.560  0.00  0.00    +0.053 C 
ATOM     26  C   UNL     1      35.873 -20.542 -19.785  0.00  0.00    +0.052 C 
ATOM     27  C   UNL     1      35.518 -21.463 -18.799  0.00  0.00    +0.140 C 
ATOM     28  C   UNL     1      33.542 -20.246 -20.348  0.00  0.00    +0.015 C 
ATOM     29  C   UNL     1      34.174 -21.775 -18.587  0.00  0.00    +0.037 C 
ATOM     30  C   UNL     1      33.187 -21.167 -19.362  0.00  0.00    +0.004 C 
BRANCH  27  31
ATOM     31  O   UNL     1      36.481 -22.056 -18.043  0.00  0.00    -0.472 OA
BRANCH  31  32
ATOM     32  C   UNL     1      36.256 -22.116 -16.635  0.00  0.00    +0.243 C 
BRANCH  32  34
ATOM     33  F   UNL     1      37.905 -20.468 -16.780  0.00  0.00    -0.230 F 
ATOM     34  C   UNL     1      37.383 -21.395 -15.930  0.00  0.00    +0.240 C 
ENDBRANCH  32  34
ENDBRANCH  31  32
ENDBRANCH  27  31
ENDBRANCH  22  25
ENDBRANCH  20  23
ENDBRANCH  19  20
ENDBRANCH   3  19
TORSDOF 8
ENDMDL
