MODEL 1
REMARK VINA RESULT:     -12.0      0.000      0.000
REMARK  Name = 447736
REMARK  4 active torsions:
REMARK  status: ('A' for Active; 'I' for Inactive)
REMARK    1  A    between atoms: N_2  and  C_13
REMARK    2  A    between atoms: C_3  and  C_20
REMARK    3  A    between atoms: C_6  and  C_17
REMARK    4  A    between atoms: C_28  and  C_32
REMARK                            x       y       z     vdW  Elec       q    Type
REMARK                         _______ _______ _______ _____ _____    ______ ____
ROOT
ATOM      1  O   UNL     1      33.797 -23.983 -17.644  0.00  0.00    -0.270 OA
ATOM      2  N   UNL     1      35.059 -22.447 -16.391  0.00  0.00    -0.280 N 
ATOM      3  C   UNL     1      34.336 -22.891 -17.506  0.00  0.00    +0.249 C 
ATOM      4  H   UNL     1      35.427 -21.535 -16.450  0.00  0.00    +0.155 HD
ENDROOT
BRANCH   2  13
ATOM      5  N   UNL     1      38.381 -25.749 -12.339  0.00  0.00    +0.388 N 
ATOM      6  C   UNL     1      38.313 -24.786 -13.456  0.00  0.00    -0.039 C 
ATOM      7  C   UNL     1      36.901 -24.305 -13.764  0.00  0.00    -0.045 C 
ATOM      8  C   UNL     1      35.867 -24.493 -12.823  0.00  0.00    -0.030 C 
ATOM      9  C   UNL     1      36.128 -25.225 -11.531  0.00  0.00    +0.003 C 
ATOM     10  C   UNL     1      37.614 -25.270 -11.189  0.00  0.00    -0.076 C 
ATOM     11  C   UNL     1      36.615 -23.600 -14.944  0.00  0.00    +0.008 C 
ATOM     12  C   UNL     1      34.571 -24.036 -13.103  0.00  0.00    -0.003 C 
ATOM     13  C   UNL     1      35.323 -23.138 -15.207  0.00  0.00    +0.050 C 
ATOM     14  C   UNL     1      34.301 -23.361 -14.291  0.00  0.00    +0.014 C 
ATOM     15  H   UNL     1      39.355 -25.871 -12.062  0.00  0.00    -0.084 HD
ATOM     16  H   UNL     1      37.982 -26.635 -12.648  0.00  0.00    -0.084 HD
BRANCH   6  17
ATOM     17  C   UNL     1      39.000 -25.456 -14.653  0.00  0.00    -0.015 C 
ATOM     18  C   UNL     1      40.515 -25.399 -14.496  0.00  0.00    -0.002 C 
ATOM     19  C   UNL     1      38.524 -26.897 -14.799  0.00  0.00    -0.002 C 
ENDBRANCH   6  17
ENDBRANCH   2  13
BRANCH   3  20
ATOM     20  C   UNL     1      34.252 -21.928 -18.634  0.00  0.00    +0.054 C 
ATOM     21  C   UNL     1      35.346 -20.400 -20.136  0.00  0.00    +0.000 C 
ATOM     22  C   UNL     1      35.408 -21.315 -19.071  0.00  0.00    +0.005 C 
ATOM     23  C   UNL     1      34.095 -20.125 -20.740  0.00  0.00    +0.000 C 
ATOM     24  C   UNL     1      33.025 -21.677 -19.203  0.00  0.00    +0.005 C 
ATOM     25  C   UNL     1      32.944 -20.772 -20.261  0.00  0.00    +0.000 C 
ATOM     26  C   UNL     1      34.033 -19.211 -21.804  0.00  0.00    +0.003 C 
ATOM     27  C   UNL     1      36.496 -19.754 -20.615  0.00  0.00    +0.000 C 
ATOM     28  C   UNL     1      35.187 -18.578 -22.267  0.00  0.00    +0.031 C 
ATOM     29  C   UNL     1      36.416 -18.849 -21.673  0.00  0.00    +0.003 C 
BRANCH  28  32
ATOM     30  N   UNL     1      35.623 -16.344 -23.260  0.00  0.00    -0.343 N 
ATOM     31  N   UNL     1      34.528 -17.992 -24.503  0.00  0.00    -0.285 NA
ATOM     32  C   UNL     1      35.105 -17.633 -23.370  0.00  0.00    +0.117 C 
ATOM     33  H   UNL     1      35.558 -15.720 -24.019  0.00  0.00    +0.144 HD
ATOM     34  H   UNL     1      36.054 -16.057 -22.423  0.00  0.00    +0.144 HD
ATOM     35  H   UNL     1      34.473 -17.354 -25.250  0.00  0.00    +0.188 HD
ENDBRANCH  28  32
ENDBRANCH   3  20
TORSDOF 4
ENDMDL
MODEL 2
REMARK VINA RESULT:     -10.9      1.138      2.628
REMARK  Name = 447736
REMARK  4 active torsions:
REMARK  status: ('A' for Active; 'I' for Inactive)
REMARK    1  A    between atoms: N_2  and  C_13
REMARK    2  A    between atoms: C_3  and  C_20
REMARK    3  A    between atoms: C_6  and  C_17
REMARK    4  A    between atoms: C_28  and  C_32
REMARK                            x       y       z     vdW  Elec       q    Type
REMARK                         _______ _______ _______ _____ _____    ______ ____
ROOT
ATOM      1  O   UNL     1      34.386 -23.321 -17.447  0.00  0.00    -0.270 OA
ATOM      2  N   UNL     1      36.456 -22.276 -17.062  0.00  0.00    -0.280 N 
ATOM      3  C   UNL     1      35.226 -22.467 -17.706  0.00  0.00    +0.249 C 
ATOM      4  H   UNL     1      37.012 -21.538 -17.402  0.00  0.00    +0.155 HD
ENDROOT
BRANCH   2  13
ATOM      5  N   UNL     1      36.420 -25.498 -11.773  0.00  0.00    +0.388 N 
ATOM      6  C   UNL     1      35.731 -25.032 -12.993  0.00  0.00    -0.039 C 
ATOM      7  C   UNL     1      36.655 -24.342 -13.989  0.00  0.00    -0.045 C 
ATOM      8  C   UNL     1      38.052 -24.494 -13.884  0.00  0.00    -0.030 C 
ATOM      9  C   UNL     1      38.656 -25.286 -12.752  0.00  0.00    +0.003 C 
ATOM     10  C   UNL     1      37.641 -26.228 -12.109  0.00  0.00    -0.076 C 
ATOM     11  C   UNL     1      36.139 -23.612 -15.073  0.00  0.00    +0.008 C 
ATOM     12  C   UNL     1      38.899 -23.870 -14.811  0.00  0.00    -0.003 C 
ATOM     13  C   UNL     1      36.990 -23.005 -15.998  0.00  0.00    +0.050 C 
ATOM     14  C   UNL     1      38.369 -23.128 -15.864  0.00  0.00    +0.014 C 
ATOM     15  H   UNL     1      35.796 -26.115 -11.253  0.00  0.00    -0.084 HD
ATOM     16  H   UNL     1      36.671 -24.686 -11.210  0.00  0.00    -0.084 HD
BRANCH   6  17
ATOM     17  C   UNL     1      34.570 -24.145 -12.529  0.00  0.00    -0.015 C 
ATOM     18  C   UNL     1      33.239 -24.722 -13.000  0.00  0.00    -0.002 C 
ATOM     19  C   UNL     1      34.589 -23.997 -11.011  0.00  0.00    -0.002 C 
ENDBRANCH   6  17
ENDBRANCH   2  13
BRANCH   3  20
ATOM     20  C   UNL     1      34.949 -21.541 -18.835  0.00  0.00    +0.054 C 
ATOM     21  C   UNL     1      35.757 -19.976 -20.473  0.00  0.00    +0.000 C 
ATOM     22  C   UNL     1      36.002 -20.857 -19.406  0.00  0.00    +0.005 C 
ATOM     23  C   UNL     1      34.432 -19.807 -20.941  0.00  0.00    +0.000 C 
ATOM     24  C   UNL     1      33.653 -21.394 -19.270  0.00  0.00    +0.005 C 
ATOM     25  C   UNL     1      33.391 -20.524 -20.328  0.00  0.00    +0.000 C 
ATOM     26  C   UNL     1      34.187 -18.927 -22.007  0.00  0.00    +0.003 C 
ATOM     27  C   UNL     1      36.798 -19.260 -21.086  0.00  0.00    +0.000 C 
ATOM     28  C   UNL     1      35.233 -18.224 -22.604  0.00  0.00    +0.031 C 
ATOM     29  C   UNL     1      36.537 -18.391 -22.144  0.00  0.00    +0.003 C 
BRANCH  28  32
ATOM     30  N   UNL     1      35.388 -15.988 -23.674  0.00  0.00    -0.343 N 
ATOM     31  N   UNL     1      34.300 -17.745 -24.766  0.00  0.00    -0.285 NA
ATOM     32  C   UNL     1      34.963 -17.315 -23.707  0.00  0.00    +0.117 C 
ATOM     33  H   UNL     1      35.195 -15.390 -24.432  0.00  0.00    +0.144 HD
ATOM     34  H   UNL     1      35.881 -15.649 -22.893  0.00  0.00    +0.144 HD
ATOM     35  H   UNL     1      34.117 -17.131 -25.514  0.00  0.00    +0.188 HD
ENDBRANCH  28  32
ENDBRANCH   3  20
TORSDOF 4
ENDMDL
MODEL 3
REMARK VINA RESULT:     -10.8      9.230     15.724
REMARK  Name = 447736
REMARK  4 active torsions:
REMARK  status: ('A' for Active; 'I' for Inactive)
REMARK    1  A    between atoms: N_2  and  C_13
REMARK    2  A    between atoms: C_3  and  C_20
REMARK    3  A    between atoms: C_6  and  C_17
REMARK    4  A    between atoms: C_28  and  C_32
REMARK                            x       y       z     vdW  Elec       q    Type
REMARK                         _______ _______ _______ _____ _____    ______ ____
ROOT
ATOM      1  O   UNL     1      34.171  -9.994 -24.421  0.00  0.00    -0.270 OA
ATOM      2  N   UNL     1      32.716 -10.341 -22.607  0.00  0.00    -0.280 N 
ATOM      3  C   UNL     1      33.548 -10.732 -23.665  0.00  0.00    +0.249 C 
ATOM      4  H   UNL     1      32.291 -11.070 -22.099  0.00  0.00    +0.155 HD
ENDROOT
BRANCH   2  13
ATOM      5  N   UNL     1      31.730  -4.252 -23.161  0.00  0.00    +0.388 N 
ATOM      6  C   UNL     1      31.740  -5.606 -23.749  0.00  0.00    -0.039 C 
ATOM      7  C   UNL     1      31.951  -6.715 -22.726  0.00  0.00    -0.045 C 
ATOM      8  C   UNL     1      31.774  -6.455 -21.351  0.00  0.00    -0.030 C 
ATOM      9  C   UNL     1      31.435  -5.067 -20.870  0.00  0.00    +0.003 C 
ATOM     10  C   UNL     1      30.862  -4.199 -21.986  0.00  0.00    -0.076 C 
ATOM     11  C   UNL     1      32.248  -8.027 -23.127  0.00  0.00    +0.008 C 
ATOM     12  C   UNL     1      31.955  -7.481 -20.413  0.00  0.00    -0.003 C 
ATOM     13  C   UNL     1      32.414  -9.045 -22.186  0.00  0.00    +0.050 C 
ATOM     14  C   UNL     1      32.274  -8.771 -20.829  0.00  0.00    +0.014 C 
ATOM     15  H   UNL     1      31.390  -3.588 -23.857  0.00  0.00    -0.084 HD
ATOM     16  H   UNL     1      32.680  -4.015 -22.874  0.00  0.00    -0.084 HD
BRANCH   6  17
ATOM     17  C   UNL     1      32.800  -5.595 -24.858  0.00  0.00    -0.015 C 
ATOM     18  C   UNL     1      32.501  -4.490 -25.866  0.00  0.00    -0.002 C 
ATOM     19  C   UNL     1      34.191  -5.421 -24.260  0.00  0.00    -0.002 C 
ENDBRANCH   6  17
ENDBRANCH   2  13
BRANCH   3  20
ATOM     20  C   UNL     1      33.649 -12.198 -23.886  0.00  0.00    +0.054 C 
ATOM     21  C   UNL     1      34.272 -14.375 -23.075  0.00  0.00    +0.000 C 
ATOM     22  C   UNL     1      34.169 -12.987 -22.881  0.00  0.00    +0.005 C 
ATOM     23  C   UNL     1      33.840 -14.937 -24.301  0.00  0.00    +0.000 C 
ATOM     24  C   UNL     1      33.223 -12.718 -25.085  0.00  0.00    +0.005 C 
ATOM     25  C   UNL     1      33.318 -14.094 -25.296  0.00  0.00    +0.000 C 
ATOM     26  C   UNL     1      33.943 -16.323 -24.494  0.00  0.00    +0.003 C 
ATOM     27  C   UNL     1      34.794 -15.216 -22.080  0.00  0.00    +0.000 C 
ATOM     28  C   UNL     1      34.464 -17.145 -23.495  0.00  0.00    +0.031 C 
ATOM     29  C   UNL     1      34.889 -16.592 -22.290  0.00  0.00    +0.003 C 
BRANCH  28  32
ATOM     30  N   UNL     1      35.254 -19.401 -22.821  0.00  0.00    -0.343 N 
ATOM     31  N   UNL     1      33.999 -19.126 -24.772  0.00  0.00    -0.285 NA
ATOM     32  C   UNL     1      34.565 -18.579 -23.711  0.00  0.00    +0.117 C 
ATOM     33  H   UNL     1      35.309 -20.370 -22.986  0.00  0.00    +0.144 HD
ATOM     34  H   UNL     1      35.685 -19.012 -22.025  0.00  0.00    +0.144 HD
ATOM     35  H   UNL     1      34.066 -20.097 -24.920  0.00  0.00    +0.188 HD
ENDBRANCH  28  32
ENDBRANCH   3  20
TORSDOF 4
ENDMDL
MODEL 4
REMARK VINA RESULT:     -10.1      9.552     16.285
REMARK  Name = 447736
REMARK  4 active torsions:
REMARK  status: ('A' for Active; 'I' for Inactive)
REMARK    1  A    between atoms: N_2  and  C_13
REMARK    2  A    between atoms: C_3  and  C_20
REMARK    3  A    between atoms: C_6  and  C_17
REMARK    4  A    between atoms: C_28  and  C_32
REMARK                            x       y       z     vdW  Elec       q    Type
REMARK                         _______ _______ _______ _____ _____    ______ ____
ROOT
ATOM      1  O   UNL     1      30.607 -10.280 -22.112  0.00  0.00    -0.270 OA
ATOM      2  N   UNL     1      32.694  -9.230 -21.844  0.00  0.00    -0.280 N 
ATOM      3  C   UNL     1      31.815 -10.320 -21.904  0.00  0.00    +0.249 C 
ATOM      4  H   UNL     1      33.638  -9.445 -21.666  0.00  0.00    +0.155 HD
ENDROOT
BRANCH   2  13
ATOM      5  N   UNL     1      32.367  -3.769 -24.746  0.00  0.00    +0.388 N 
ATOM      6  C   UNL     1      32.423  -5.243 -24.795  0.00  0.00    -0.039 C 
ATOM      7  C   UNL     1      32.274  -5.905 -23.431  0.00  0.00    -0.045 C 
ATOM      8  C   UNL     1      31.765  -5.173 -22.338  0.00  0.00    -0.030 C 
ATOM      9  C   UNL     1      31.422  -3.712 -22.486  0.00  0.00    +0.003 C 
ATOM     10  C   UNL     1      31.230  -3.315 -23.947  0.00  0.00    -0.076 C 
ATOM     11  C   UNL     1      32.560  -7.268 -23.250  0.00  0.00    +0.008 C 
ATOM     12  C   UNL     1      31.615  -5.789 -21.088  0.00  0.00    -0.003 C 
ATOM     13  C   UNL     1      32.395  -7.876 -22.003  0.00  0.00    +0.050 C 
ATOM     14  C   UNL     1      31.929  -7.136 -20.922  0.00  0.00    +0.014 C 
ATOM     15  H   UNL     1      32.273  -3.407 -25.695  0.00  0.00    -0.084 HD
ATOM     16  H   UNL     1      33.225  -3.424 -24.315  0.00  0.00    -0.084 HD
BRANCH   6  17
ATOM     17  C   UNL     1      33.732  -5.608 -25.505  0.00  0.00    -0.015 C 
ATOM     18  C   UNL     1      33.965  -4.684 -26.696  0.00  0.00    -0.002 C 
ATOM     19  C   UNL     1      34.902  -5.541 -24.530  0.00  0.00    -0.002 C 
ENDBRANCH   6  17
ENDBRANCH   2  13
BRANCH   3  20
ATOM     20  C   UNL     1      32.434 -11.649 -21.663  0.00  0.00    +0.054 C 
ATOM     21  C   UNL     1      33.700 -13.522 -22.485  0.00  0.00    +0.000 C 
ATOM     22  C   UNL     1      33.110 -12.264 -22.696  0.00  0.00    +0.005 C 
ATOM     23  C   UNL     1      33.588 -14.135 -21.213  0.00  0.00    +0.000 C 
ATOM     24  C   UNL     1      32.310 -12.223 -20.419  0.00  0.00    +0.005 C 
ATOM     25  C   UNL     1      32.889 -13.472 -20.191  0.00  0.00    +0.000 C 
ATOM     26  C   UNL     1      34.177 -15.391 -21.002  0.00  0.00    +0.003 C 
ATOM     27  C   UNL     1      34.399 -14.184 -23.506  0.00  0.00    +0.000 C 
ATOM     28  C   UNL     1      34.868 -16.035 -22.029  0.00  0.00    +0.031 C 
ATOM     29  C   UNL     1      34.978 -15.432 -23.279  0.00  0.00    +0.003 C 
BRANCH  28  32
ATOM     30  N   UNL     1      35.625 -17.844 -20.505  0.00  0.00    -0.343 N 
ATOM     31  N   UNL     1      35.890 -18.062 -22.817  0.00  0.00    -0.285 NA
ATOM     32  C   UNL     1      35.472 -17.337 -21.794  0.00  0.00    +0.117 C 
ATOM     33  H   UNL     1      36.036 -18.728 -20.369  0.00  0.00    +0.144 HD
ATOM     34  H   UNL     1      35.322 -17.317 -19.730  0.00  0.00    +0.144 HD
ATOM     35  H   UNL     1      36.299 -18.944 -22.660  0.00  0.00    +0.188 HD
ENDBRANCH  28  32
ENDBRANCH   3  20
TORSDOF 4
ENDMDL
MODEL 5
REMARK VINA RESULT:     -10.0      3.507     11.486
REMARK  Name = 447736
REMARK  4 active torsions:
REMARK  status: ('A' for Active; 'I' for Inactive)
REMARK    1  A    between atoms: N_2  and  C_13
REMARK    2  A    between atoms: C_3  and  C_20
REMARK    3  A    between atoms: C_6  and  C_17
REMARK    4  A    between atoms: C_28  and  C_32
REMARK                            x       y       z     vdW  Elec       q    Type
REMARK                         _______ _______ _______ _____ _____    ______ ____
ROOT
ATOM      1  O   UNL     1      34.635 -19.448 -23.066  0.00  0.00    -0.270 OA
ATOM      2  N   UNL     1      34.912 -17.503 -21.774  0.00  0.00    -0.280 N 
ATOM      3  C   UNL     1      34.909 -18.884 -22.012  0.00  0.00    +0.249 C 
ATOM      4  H   UNL     1      35.158 -17.221 -20.863  0.00  0.00    +0.155 HD
ENDROOT
BRANCH   2  13
ATOM      5  N   UNL     1      32.797 -11.978 -23.606  0.00  0.00    +0.388 N 
ATOM      6  C   UNL     1      33.364 -12.848 -22.557  0.00  0.00    -0.039 C 
ATOM      7  C   UNL     1      33.832 -14.202 -23.074  0.00  0.00    -0.045 C 
ATOM      8  C   UNL     1      34.029 -14.405 -24.456  0.00  0.00    -0.030 C 
ATOM      9  C   UNL     1      33.721 -13.309 -25.444  0.00  0.00    +0.003 C 
ATOM     10  C   UNL     1      33.669 -11.937 -24.779  0.00  0.00    -0.076 C 
ATOM     11  C   UNL     1      34.153 -15.246 -22.191  0.00  0.00    +0.008 C 
ATOM     12  C   UNL     1      34.475 -15.648 -24.927  0.00  0.00    -0.003 C 
ATOM     13  C   UNL     1      34.608 -16.477 -22.670  0.00  0.00    +0.050 C 
ATOM     14  C   UNL     1      34.763 -16.680 -24.037  0.00  0.00    +0.014 C 
ATOM     15  H   UNL     1      32.692 -11.033 -23.236  0.00  0.00    -0.084 HD
ATOM     16  H   UNL     1      31.892 -12.354 -23.888  0.00  0.00    -0.084 HD
BRANCH   6  17
ATOM     17  C   UNL     1      32.301 -12.955 -21.455  0.00  0.00    -0.015 C 
ATOM     18  C   UNL     1      32.938 -13.407 -20.146  0.00  0.00    -0.002 C 
ATOM     19  C   UNL     1      31.586 -11.620 -21.278  0.00  0.00    -0.002 C 
ENDBRANCH   6  17
ENDBRANCH   2  13
BRANCH   3  20
ATOM     20  C   UNL     1      35.253 -19.731 -20.840  0.00  0.00    +0.054 C 
ATOM     21  C   UNL     1      34.556 -21.248 -19.109  0.00  0.00    +0.000 C 
ATOM     22  C   UNL     1      34.248 -20.443 -20.219  0.00  0.00    +0.005 C 
ATOM     23  C   UNL     1      35.894 -21.312 -18.650  0.00  0.00    +0.000 C 
ATOM     24  C   UNL     1      36.560 -19.776 -20.414  0.00  0.00    +0.005 C 
ATOM     25  C   UNL     1      36.884 -20.569 -19.313  0.00  0.00    +0.000 C 
ATOM     26  C   UNL     1      36.201 -22.117 -17.541  0.00  0.00    +0.003 C 
ATOM     27  C   UNL     1      33.566 -21.991 -18.446  0.00  0.00    +0.000 C 
ATOM     28  C   UNL     1      35.205 -22.848 -16.894  0.00  0.00    +0.031 C 
ATOM     29  C   UNL     1      33.890 -22.785 -17.346  0.00  0.00    +0.003 C 
BRANCH  28  32
ATOM     30  N   UNL     1      34.548 -24.234 -14.940  0.00  0.00    -0.343 N 
ATOM     31  N   UNL     1      36.806 -23.909 -15.450  0.00  0.00    -0.285 NA
ATOM     32  C   UNL     1      35.540 -23.676 -15.746  0.00  0.00    +0.117 C 
ATOM     33  H   UNL     1      34.797 -24.792 -14.168  0.00  0.00    +0.144 HD
ATOM     34  H   UNL     1      33.599 -24.070 -15.144  0.00  0.00    +0.144 HD
ATOM     35  H   UNL     1      37.034 -24.469 -14.673  0.00  0.00    +0.188 HD
ENDBRANCH  28  32
ENDBRANCH   3  20
TORSDOF 4
ENDMDL
MODEL 6
REMARK VINA RESULT:      -9.9      2.256     10.517
REMARK  Name = 447736
REMARK  4 active torsions:
REMARK  status: ('A' for Active; 'I' for Inactive)
REMARK    1  A    between atoms: N_2  and  C_13
REMARK    2  A    between atoms: C_3  and  C_20
REMARK    3  A    between atoms: C_6  and  C_17
REMARK    4  A    between atoms: C_28  and  C_32
REMARK                            x       y       z     vdW  Elec       q    Type
REMARK                         _______ _______ _______ _____ _____    ______ ____
ROOT
ATOM      1  O   UNL     1      33.564 -21.266 -19.878  0.00  0.00    -0.270 OA
ATOM      2  N   UNL     1      35.517 -19.987 -20.155  0.00  0.00    -0.280 N 
ATOM      3  C   UNL     1      34.697 -20.941 -19.539  0.00  0.00    +0.249 C 
ATOM      4  H   UNL     1      36.403 -19.851 -19.747  0.00  0.00    +0.155 HD
ENDROOT
BRANCH   2  13
ATOM      5  N   UNL     1      34.188 -14.830 -23.316  0.00  0.00    +0.388 N 
ATOM      6  C   UNL     1      34.788 -15.493 -22.141  0.00  0.00    -0.039 C 
ATOM      7  C   UNL     1      34.853 -17.009 -22.263  0.00  0.00    -0.045 C 
ATOM      8  C   UNL     1      34.696 -17.627 -23.520  0.00  0.00    -0.030 C 
ATOM      9  C   UNL     1      34.400 -16.805 -24.749  0.00  0.00    +0.003 C 
ATOM     10  C   UNL     1      34.770 -15.337 -24.557  0.00  0.00    -0.076 C 
ATOM     11  C   UNL     1      35.147 -17.816 -21.151  0.00  0.00    +0.008 C 
ATOM     12  C   UNL     1      34.772 -19.024 -23.632  0.00  0.00    -0.003 C 
ATOM     13  C   UNL     1      35.232 -19.204 -21.275  0.00  0.00    +0.050 C 
ATOM     14  C   UNL     1      35.039 -19.808 -22.512  0.00  0.00    +0.014 C 
ATOM     15  H   UNL     1      34.356 -13.826 -23.255  0.00  0.00    -0.084 HD
ATOM     16  H   UNL     1      33.187 -15.024 -23.323  0.00  0.00    -0.084 HD
BRANCH   6  17
ATOM     17  C   UNL     1      33.996 -15.016 -20.917  0.00  0.00    -0.015 C 
ATOM     18  C   UNL     1      34.944 -14.647 -19.782  0.00  0.00    -0.002 C 
ATOM     19  C   UNL     1      33.107 -13.834 -21.288  0.00  0.00    -0.002 C 
ENDBRANCH   6  17
ENDBRANCH   2  13
BRANCH   3  20
ATOM     20  C   UNL     1      35.275 -21.594 -18.335  0.00  0.00    +0.054 C 
ATOM     21  C   UNL     1      34.989 -23.006 -16.409  0.00  0.00    +0.000 C 
ATOM     22  C   UNL     1      34.458 -22.383 -17.551  0.00  0.00    +0.005 C 
ATOM     23  C   UNL     1      36.353 -22.812 -16.085  0.00  0.00    +0.000 C 
ATOM     24  C   UNL     1      36.603 -21.389 -18.042  0.00  0.00    +0.005 C 
ATOM     25  C   UNL     1      37.147 -22.000 -16.912  0.00  0.00    +0.000 C 
ATOM     26  C   UNL     1      36.883 -23.435 -14.944  0.00  0.00    +0.003 C 
ATOM     27  C   UNL     1      34.196 -23.818 -15.583  0.00  0.00    +0.000 C 
ATOM     28  C   UNL     1      36.081 -24.239 -14.134  0.00  0.00    +0.031 C 
ATOM     29  C   UNL     1      34.739 -24.430 -14.453  0.00  0.00    +0.003 C 
BRANCH  28  32
ATOM     30  N   UNL     1      38.023 -24.990 -12.781  0.00  0.00    -0.343 N 
ATOM     31  N   UNL     1      35.844 -25.364 -12.024  0.00  0.00    -0.285 NA
ATOM     32  C   UNL     1      36.645 -24.877 -12.955  0.00  0.00    +0.117 C 
ATOM     33  H   UNL     1      38.383 -25.425 -11.974  0.00  0.00    +0.144 HD
ATOM     34  H   UNL     1      38.636 -24.634 -13.464  0.00  0.00    +0.144 HD
ATOM     35  H   UNL     1      36.224 -25.796 -11.225  0.00  0.00    +0.188 HD
ENDBRANCH  28  32
ENDBRANCH   3  20
TORSDOF 4
ENDMDL
MODEL 7
REMARK VINA RESULT:      -9.9      2.259     10.322
REMARK  Name = 447736
REMARK  4 active torsions:
REMARK  status: ('A' for Active; 'I' for Inactive)
REMARK    1  A    between atoms: N_2  and  C_13
REMARK    2  A    between atoms: C_3  and  C_20
REMARK    3  A    between atoms: C_6  and  C_17
REMARK    4  A    between atoms: C_28  and  C_32
REMARK                            x       y       z     vdW  Elec       q    Type
REMARK                         _______ _______ _______ _____ _____    ______ ____
ROOT
ATOM      1  O   UNL     1      32.776 -21.051 -20.113  0.00  0.00    -0.270 OA
ATOM      2  N   UNL     1      34.921 -20.097 -20.244  0.00  0.00    -0.280 N 
ATOM      3  C   UNL     1      33.926 -20.923 -19.705  0.00  0.00    +0.249 C 
ATOM      4  H   UNL     1      35.794 -20.118 -19.787  0.00  0.00    +0.155 HD
ENDROOT
BRANCH   2  13
ATOM      5  N   UNL     1      34.424 -14.716 -23.269  0.00  0.00    +0.388 N 
ATOM      6  C   UNL     1      34.835 -15.480 -22.074  0.00  0.00    -0.039 C 
ATOM      7  C   UNL     1      34.766 -16.990 -22.262  0.00  0.00    -0.045 C 
ATOM      8  C   UNL     1      34.679 -17.541 -23.557  0.00  0.00    -0.030 C 
ATOM      9  C   UNL     1      34.590 -16.648 -24.768  0.00  0.00    +0.003 C 
ATOM     10  C   UNL     1      35.078 -15.232 -24.470  0.00  0.00    -0.076 C 
ATOM     11  C   UNL     1      34.866 -17.864 -21.167  0.00  0.00    +0.008 C 
ATOM     12  C   UNL     1      34.630 -18.933 -23.727  0.00  0.00    -0.003 C 
ATOM     13  C   UNL     1      34.829 -19.248 -21.348  0.00  0.00    +0.050 C 
ATOM     14  C   UNL     1      34.704 -19.782 -22.626  0.00  0.00    +0.014 C 
ATOM     15  H   UNL     1      34.682 -13.737 -23.144  0.00  0.00    -0.084 HD
ATOM     16  H   UNL     1      33.415 -14.809 -23.384  0.00  0.00    -0.084 HD
BRANCH   6  17
ATOM     17  C   UNL     1      33.972 -14.973 -20.912  0.00  0.00    -0.015 C 
ATOM     18  C   UNL     1      34.854 -14.546 -19.744  0.00  0.00    -0.002 C 
ATOM     19  C   UNL     1      33.086 -13.821 -21.373  0.00  0.00    -0.002 C 
ENDBRANCH   6  17
ENDBRANCH   2  13
BRANCH   3  20
ATOM     20  C   UNL     1      34.323 -21.694 -18.499  0.00  0.00    +0.054 C 
ATOM     21  C   UNL     1      36.024 -22.348 -16.928  0.00  0.00    +0.000 C 
ATOM     22  C   UNL     1      35.631 -21.624 -18.067  0.00  0.00    +0.005 C 
ATOM     23  C   UNL     1      35.067 -23.137 -16.246  0.00  0.00    +0.000 C 
ATOM     24  C   UNL     1      33.375 -22.454 -17.854  0.00  0.00    +0.005 C 
ATOM     25  C   UNL     1      33.746 -23.179 -16.722  0.00  0.00    +0.000 C 
ATOM     26  C   UNL     1      35.460 -23.860 -15.108  0.00  0.00    +0.003 C 
ATOM     27  C   UNL     1      37.344 -22.305 -16.453  0.00  0.00    +0.000 C 
ATOM     28  C   UNL     1      36.776 -23.806 -14.649  0.00  0.00    +0.031 C 
ATOM     29  C   UNL     1      37.716 -23.029 -15.321  0.00  0.00    +0.003 C 
BRANCH  28  32
ATOM     30  N   UNL     1      36.507 -25.736 -13.110  0.00  0.00    -0.343 N 
ATOM     31  N   UNL     1      38.163 -24.135 -12.715  0.00  0.00    -0.285 NA
ATOM     32  C   UNL     1      37.166 -24.562 -13.470  0.00  0.00    +0.117 C 
ATOM     33  H   UNL     1      36.789 -26.233 -12.308  0.00  0.00    +0.144 HD
ATOM     34  H   UNL     1      35.761 -26.069 -13.658  0.00  0.00    +0.144 HD
ATOM     35  H   UNL     1      38.429 -24.646 -11.917  0.00  0.00    +0.188 HD
ENDBRANCH  28  32
ENDBRANCH   3  20
TORSDOF 4
ENDMDL
MODEL 8
REMARK VINA RESULT:      -9.8      1.452      3.149
REMARK  Name = 447736
REMARK  4 active torsions:
REMARK  status: ('A' for Active; 'I' for Inactive)
REMARK    1  A    between atoms: N_2  and  C_13
REMARK    2  A    between atoms: C_3  and  C_20
REMARK    3  A    between atoms: C_6  and  C_17
REMARK    4  A    between atoms: C_28  and  C_32
REMARK                            x       y       z     vdW  Elec       q    Type
REMARK                         _______ _______ _______ _____ _____    ______ ____
ROOT
ATOM      1  O   UNL     1      35.207 -22.826 -18.007  0.00  0.00    -0.270 OA
ATOM      2  N   UNL     1      37.250 -22.004 -17.184  0.00  0.00    -0.280 N 
ATOM      3  C   UNL     1      36.133 -22.022 -18.029  0.00  0.00    +0.249 C 
ATOM      4  H   UNL     1      37.901 -21.282 -17.343  0.00  0.00    +0.155 HD
ENDROOT
BRANCH   2  13
ATOM      5  N   UNL     1      36.164 -25.628 -12.281  0.00  0.00    +0.388 N 
ATOM      6  C   UNL     1      35.695 -24.973 -13.518  0.00  0.00    -0.039 C 
ATOM      7  C   UNL     1      36.812 -24.330 -14.330  0.00  0.00    -0.045 C 
ATOM      8  C   UNL     1      38.157 -24.674 -14.083  0.00  0.00    -0.030 C 
ATOM      9  C   UNL     1      38.514 -25.632 -12.975  0.00  0.00    +0.003 C 
ATOM     10  C   UNL     1      37.320 -26.482 -12.548  0.00  0.00    -0.076 C 
ATOM     11  C   UNL     1      36.528 -23.449 -15.386  0.00  0.00    +0.008 C 
ATOM     12  C   UNL     1      39.182 -24.092 -14.842  0.00  0.00    -0.003 C 
ATOM     13  C   UNL     1      37.555 -22.884 -16.144  0.00  0.00    +0.050 C 
ATOM     14  C   UNL     1      38.881 -23.199 -15.869  0.00  0.00    +0.014 C 
ATOM     15  H   UNL     1      35.410 -26.198 -11.899  0.00  0.00    -0.084 HD
ATOM     16  H   UNL     1      36.440 -24.906 -11.615  0.00  0.00    -0.084 HD
BRANCH   6  17
ATOM     17  C   UNL     1      34.601 -23.982 -13.101  0.00  0.00    -0.015 C 
ATOM     18  C   UNL     1      33.266 -24.372 -13.726  0.00  0.00    -0.002 C 
ATOM     19  C   UNL     1      34.491 -23.921 -11.582  0.00  0.00    -0.002 C 
ENDBRANCH   6  17
ENDBRANCH   2  13
BRANCH   3  20
ATOM     20  C   UNL     1      36.104 -20.960 -19.068  0.00  0.00    +0.054 C 
ATOM     21  C   UNL     1      35.009 -19.933 -20.947  0.00  0.00    +0.000 C 
ATOM     22  C   UNL     1      35.050 -20.930 -19.958  0.00  0.00    +0.005 C 
ATOM     23  C   UNL     1      36.051 -18.977 -21.011  0.00  0.00    +0.000 C 
ATOM     24  C   UNL     1      37.129 -20.043 -19.109  0.00  0.00    +0.005 C 
ATOM     25  C   UNL     1      37.104 -19.047 -20.084  0.00  0.00    +0.000 C 
ATOM     26  C   UNL     1      36.010 -17.981 -22.000  0.00  0.00    +0.003 C 
ATOM     27  C   UNL     1      33.956 -19.864 -21.873  0.00  0.00    +0.000 C 
ATOM     28  C   UNL     1      34.956 -17.927 -22.912  0.00  0.00    +0.031 C 
ATOM     29  C   UNL     1      33.931 -18.867 -22.849  0.00  0.00    +0.003 C 
BRANCH  28  32
ATOM     30  N   UNL     1      35.502 -15.639 -23.708  0.00  0.00    -0.343 N 
ATOM     31  N   UNL     1      34.347 -17.125 -25.094  0.00  0.00    -0.285 NA
ATOM     32  C   UNL     1      34.928 -16.889 -23.931  0.00  0.00    +0.117 C 
ATOM     33  H   UNL     1      35.472 -14.951 -24.412  0.00  0.00    +0.144 HD
ATOM     34  H   UNL     1      35.937 -15.444 -22.847  0.00  0.00    +0.144 HD
ATOM     35  H   UNL     1      34.327 -16.423 -25.785  0.00  0.00    +0.188 HD
ENDBRANCH  28  32
ENDBRANCH   3  20
TORSDOF 4
ENDMDL
MODEL 9
REMARK VINA RESULT:      -9.7      7.960     15.011
REMARK  Name = 447736
REMARK  4 active torsions:
REMARK  status: ('A' for Active; 'I' for Inactive)
REMARK    1  A    between atoms: N_2  and  C_13
REMARK    2  A    between atoms: C_3  and  C_20
REMARK    3  A    between atoms: C_6  and  C_17
REMARK    4  A    between atoms: C_28  and  C_32
REMARK                            x       y       z     vdW  Elec       q    Type
REMARK                         _______ _______ _______ _____ _____    ______ ____
ROOT
ATOM      1  O   UNL     1      33.151 -12.460 -24.465  0.00  0.00    -0.270 OA
ATOM      2  N   UNL     1      34.607 -11.234 -23.085  0.00  0.00    -0.280 N 
ATOM      3  C   UNL     1      33.946 -12.385 -23.535  0.00  0.00    +0.249 C 
ATOM      4  H   UNL     1      35.215 -11.356 -22.320  0.00  0.00    +0.155 HD
ENDROOT
BRANCH   2  13
ATOM      5  N   UNL     1      32.825  -5.305 -23.248  0.00  0.00    +0.388 N 
ATOM      6  C   UNL     1      33.128  -6.531 -22.482  0.00  0.00    -0.039 C 
ATOM      7  C   UNL     1      33.774  -7.629 -23.317  0.00  0.00    -0.045 C 
ATOM      8  C   UNL     1      34.340  -7.325 -24.573  0.00  0.00    -0.030 C 
ATOM      9  C   UNL     1      34.260  -5.928 -25.134  0.00  0.00    +0.003 C 
ATOM     10  C   UNL     1      33.976  -4.892 -24.050  0.00  0.00    -0.076 C 
ATOM     11  C   UNL     1      33.892  -8.940 -22.828  0.00  0.00    +0.008 C 
ATOM     12  C   UNL     1      34.948  -8.335 -25.332  0.00  0.00    -0.003 C 
ATOM     13  C   UNL     1      34.509  -9.936 -23.587  0.00  0.00    +0.050 C 
ATOM     14  C   UNL     1      35.031  -9.636 -24.841  0.00  0.00    +0.014 C 
ATOM     15  H   UNL     1      32.586  -4.556 -22.598  0.00  0.00    -0.084 HD
ATOM     16  H   UNL     1      32.045  -5.498 -23.876  0.00  0.00    -0.084 HD
BRANCH   6  17
ATOM     17  C   UNL     1      31.817  -6.967 -21.817  0.00  0.00    -0.015 C 
ATOM     18  C   UNL     1      32.028  -7.193 -20.324  0.00  0.00    -0.002 C 
ATOM     19  C   UNL     1      30.728  -5.928 -22.060  0.00  0.00    -0.002 C 
ENDBRANCH   6  17
ENDBRANCH   2  13
BRANCH   3  20
ATOM     20  C   UNL     1      34.238 -13.626 -22.770  0.00  0.00    +0.054 C 
ATOM     21  C   UNL     1      34.827 -15.958 -22.757  0.00  0.00    +0.000 C 
ATOM     22  C   UNL     1      34.550 -14.776 -23.465  0.00  0.00    +0.005 C 
ATOM     23  C   UNL     1      34.780 -15.944 -21.342  0.00  0.00    +0.000 C 
ATOM     24  C   UNL     1      34.185 -13.586 -21.396  0.00  0.00    +0.005 C 
ATOM     25  C   UNL     1      34.457 -14.750 -20.677  0.00  0.00    +0.000 C 
ATOM     26  C   UNL     1      35.057 -17.125 -20.635  0.00  0.00    +0.003 C 
ATOM     27  C   UNL     1      35.150 -17.151 -23.422  0.00  0.00    +0.000 C 
ATOM     28  C   UNL     1      35.376 -18.302 -21.312  0.00  0.00    +0.031 C 
ATOM     29  C   UNL     1      35.422 -18.315 -22.703  0.00  0.00    +0.003 C 
BRANCH  28  32
ATOM     30  N   UNL     1      34.682 -20.491 -20.365  0.00  0.00    -0.343 N 
ATOM     31  N   UNL     1      36.864 -19.712 -20.057  0.00  0.00    -0.285 NA
ATOM     32  C   UNL     1      35.660 -19.517 -20.564  0.00  0.00    +0.117 C 
ATOM     33  H   UNL     1      34.896 -21.306 -19.857  0.00  0.00    +0.144 HD
ATOM     34  H   UNL     1      33.778 -20.363 -20.734  0.00  0.00    +0.144 HD
ATOM     35  H   UNL     1      37.057 -20.534 -19.551  0.00  0.00    +0.188 HD
ENDBRANCH  28  32
ENDBRANCH   3  20
TORSDOF 4
ENDMDL
