MODEL 1
REMARK VINA RESULT:     -11.2      0.000      0.000
REMARK  Name = 66000
REMARK  8 active torsions:
REMARK  status: ('A' for Active; 'I' for Inactive)
REMARK    1  A    between atoms: C_1  and  O_19
REMARK    2  A    between atoms: C_4  and  C_7
REMARK    3  A    between atoms: C_10  and  C_15
REMARK    4  A    between atoms: O_19  and  C_20
REMARK    5  A    between atoms: C_20  and  C_24
REMARK    6  A    between atoms: C_23  and  C_28
REMARK    7  A    between atoms: C_28  and  C_30
REMARK    8  A    between atoms: C_30  and  O_31
REMARK                            x       y       z     vdW  Elec       q    Type
REMARK                         _______ _______ _______ _____ _____    ______ ____
ROOT
ATOM      1  C   UNL     1      35.433 -22.411 -17.461  0.00  0.00    +0.139 C 
ATOM      2  C   UNL     1      34.202 -22.233 -18.081  0.00  0.00    +0.037 C 
ATOM      3  C   UNL     1      36.559 -21.731 -17.907  0.00  0.00    +0.037 C 
ATOM      4  C   UNL     1      35.222 -20.676 -19.620  0.00  0.00    +0.000 C 
ATOM      5  C   UNL     1      34.096 -21.362 -19.165  0.00  0.00    +0.003 C 
ATOM      6  C   UNL     1      36.454 -20.861 -18.992  0.00  0.00    +0.003 C 
ENDROOT
BRANCH   4   7
ATOM      7  C   UNL     1      35.113 -19.773 -20.746  0.00  0.00    +0.000 C 
ATOM      8  C   UNL     1      34.251 -20.074 -21.800  0.00  0.00    +0.000 C 
ATOM      9  C   UNL     1      35.869 -18.601 -20.776  0.00  0.00    +0.000 C 
ATOM     10  C   UNL     1      34.900 -18.031 -22.914  0.00  0.00    +0.031 C 
ATOM     11  C   UNL     1      34.144 -19.203 -22.885  0.00  0.00    +0.003 C 
ATOM     12  C   UNL     1      35.762 -17.730 -21.861  0.00  0.00    +0.003 C 
BRANCH  10  15
ATOM     13  N   UNL     1      35.489 -15.918 -24.081  0.00  0.00    -0.343 N 
ATOM     14  N   UNL     1      34.009 -17.435 -25.066  0.00  0.00    -0.285 NA
ATOM     15  C   UNL     1      34.790 -17.123 -24.046  0.00  0.00    +0.117 C 
ATOM     16  H   UNL     1      35.398 -15.319 -24.856  0.00  0.00    +0.144 HD
ATOM     17  H   UNL     1      36.072 -15.667 -23.329  0.00  0.00    +0.144 HD
ATOM     18  H   UNL     1      33.933 -16.823 -25.832  0.00  0.00    +0.188 HD
ENDBRANCH  10  15
ENDBRANCH   4   7
BRANCH   1  19
ATOM     19  O   UNL     1      35.537 -23.268 -16.394  0.00  0.00    -0.474 OA
BRANCH  19  20
ATOM     20  C   UNL     1      35.828 -22.693 -15.132  0.00  0.00    +0.225 C 
BRANCH  20  24
ATOM     21  O   UNL     1      36.389 -27.033 -15.479  0.00  0.00    -0.275 OA
ATOM     22  N   UNL     1      35.448 -25.061 -14.640  0.00  0.00    -0.302 N 
ATOM     23  C   UNL     1      37.784 -25.189 -14.686  0.00  0.00    +0.089 C 
ATOM     24  C   UNL     1      35.907 -23.806 -14.096  0.00  0.00    +0.116 C 
ATOM     25  C   UNL     1      37.337 -24.127 -13.676  0.00  0.00    +0.033 C 
ATOM     26  C   UNL     1      36.489 -25.919 -14.988  0.00  0.00    +0.223 C 
ATOM     27  H   UNL     1      34.497 -25.288 -14.753  0.00  0.00    +0.149 HD
BRANCH  23  28
ATOM     28  C   UNL     1      38.866 -26.107 -14.149  0.00  0.00    +0.118 C 
BRANCH  28  30
ATOM     29  O   UNL     1      41.034 -24.998 -14.255  0.00  0.00    -0.250 OA
ATOM     30  C   UNL     1      40.222 -25.781 -14.723  0.00  0.00    +0.314 C 
BRANCH  30  31
ATOM     31  O   UNL     1      40.430 -26.493 -15.861  0.00  0.00    -0.480 OA
ATOM     32  H   UNL     1      40.530 -26.050 -16.680  0.00  0.00    +0.295 HD
ENDBRANCH  30  31
ENDBRANCH  28  30
ENDBRANCH  23  28
ENDBRANCH  20  24
ENDBRANCH  19  20
ENDBRANCH   1  19
TORSDOF 8
ENDMDL
MODEL 2
REMARK VINA RESULT:     -11.2      4.823     10.616
REMARK  Name = 66000
REMARK  8 active torsions:
REMARK  status: ('A' for Active; 'I' for Inactive)
REMARK    1  A    between atoms: C_1  and  O_19
REMARK    2  A    between atoms: C_4  and  C_7
REMARK    3  A    between atoms: C_10  and  C_15
REMARK    4  A    between atoms: O_19  and  C_20
REMARK    5  A    between atoms: C_20  and  C_24
REMARK    6  A    between atoms: C_23  and  C_28
REMARK    7  A    between atoms: C_28  and  C_30
REMARK    8  A    between atoms: C_30  and  O_31
REMARK                            x       y       z     vdW  Elec       q    Type
REMARK                         _______ _______ _______ _____ _____    ______ ____
ROOT
ATOM      1  C   UNL     1      34.795 -21.109 -19.595  0.00  0.00    +0.139 C 
ATOM      2  C   UNL     1      33.410 -21.001 -19.586  0.00  0.00    +0.037 C 
ATOM      3  C   UNL     1      35.458 -21.839 -18.616  0.00  0.00    +0.037 C 
ATOM      4  C   UNL     1      33.334 -22.364 -17.593  0.00  0.00    +0.000 C 
ATOM      5  C   UNL     1      32.677 -21.630 -18.581  0.00  0.00    +0.003 C 
ATOM      6  C   UNL     1      34.725 -22.468 -17.610  0.00  0.00    +0.003 C 
ENDROOT
BRANCH   4   7
ATOM      7  C   UNL     1      32.573 -23.017 -16.550  0.00  0.00    +0.000 C 
ATOM      8  C   UNL     1      31.179 -23.022 -16.602  0.00  0.00    +0.000 C 
ATOM      9  C   UNL     1      33.234 -23.642 -15.492  0.00  0.00    +0.000 C 
ATOM     10  C   UNL     1      31.107 -24.278 -14.539  0.00  0.00    +0.031 C 
ATOM     11  C   UNL     1      30.446 -23.653 -15.596  0.00  0.00    +0.003 C 
ATOM     12  C   UNL     1      32.500 -24.273 -14.486  0.00  0.00    +0.003 C 
BRANCH  10  15
ATOM     13  N   UNL     1      29.214 -25.698 -13.785  0.00  0.00    -0.343 N 
ATOM     14  N   UNL     1      30.712 -24.808 -12.228  0.00  0.00    -0.285 NA
ATOM     15  C   UNL     1      30.342 -24.935 -13.491  0.00  0.00    +0.117 C 
ATOM     16  H   UNL     1      28.711 -26.133 -13.059  0.00  0.00    +0.144 HD
ATOM     17  H   UNL     1      28.920 -25.802 -14.718  0.00  0.00    +0.144 HD
ATOM     18  H   UNL     1      30.196 -25.251 -11.517  0.00  0.00    +0.188 HD
ENDBRANCH  10  15
ENDBRANCH   4   7
BRANCH   1  19
ATOM     19  O   UNL     1      35.517 -20.489 -20.585  0.00  0.00    -0.474 OA
BRANCH  19  20
ATOM     20  C   UNL     1      34.982 -19.289 -21.114  0.00  0.00    +0.225 C 
BRANCH  20  24
ATOM     21  O   UNL     1      33.139 -18.409 -25.000  0.00  0.00    -0.275 OA
ATOM     22  N   UNL     1      34.633 -19.454 -23.532  0.00  0.00    -0.302 N 
ATOM     23  C   UNL     1      34.487 -17.121 -23.420  0.00  0.00    +0.089 C 
ATOM     24  C   UNL     1      35.567 -19.065 -22.502  0.00  0.00    +0.116 C 
ATOM     25  C   UNL     1      35.813 -17.593 -22.814  0.00  0.00    +0.033 C 
ATOM     26  C   UNL     1      33.983 -18.370 -24.118  0.00  0.00    +0.223 C 
ATOM     27  H   UNL     1      34.472 -20.389 -23.793  0.00  0.00    +0.149 HD
BRANCH  23  28
ATOM     28  C   UNL     1      34.646 -15.943 -24.361  0.00  0.00    +0.118 C 
BRANCH  28  30
ATOM     29  O   UNL     1      33.503 -14.332 -22.933  0.00  0.00    -0.250 OA
ATOM     30  C   UNL     1      33.689 -14.824 -24.035  0.00  0.00    +0.314 C 
BRANCH  30  31
ATOM     31  O   UNL     1      33.043 -14.421 -25.160  0.00  0.00    -0.480 OA
ATOM     32  H   UNL     1      32.409 -14.981 -25.563  0.00  0.00    +0.295 HD
ENDBRANCH  30  31
ENDBRANCH  28  30
ENDBRANCH  23  28
ENDBRANCH  20  24
ENDBRANCH  19  20
ENDBRANCH   1  19
TORSDOF 8
ENDMDL
MODEL 3
REMARK VINA RESULT:     -11.1      1.854      2.800
REMARK  Name = 66000
REMARK  8 active torsions:
REMARK  status: ('A' for Active; 'I' for Inactive)
REMARK    1  A    between atoms: C_1  and  O_19
REMARK    2  A    between atoms: C_4  and  C_7
REMARK    3  A    between atoms: C_10  and  C_15
REMARK    4  A    between atoms: O_19  and  C_20
REMARK    5  A    between atoms: C_20  and  C_24
REMARK    6  A    between atoms: C_23  and  C_28
REMARK    7  A    between atoms: C_28  and  C_30
REMARK    8  A    between atoms: C_30  and  O_31
REMARK                            x       y       z     vdW  Elec       q    Type
REMARK                         _______ _______ _______ _____ _____    ______ ____
ROOT
ATOM      1  C   UNL     1      34.656 -22.587 -17.882  0.00  0.00    +0.139 C 
ATOM      2  C   UNL     1      35.884 -22.050 -18.251  0.00  0.00    +0.037 C 
ATOM      3  C   UNL     1      33.481 -22.155 -18.485  0.00  0.00    +0.037 C 
ATOM      4  C   UNL     1      34.763 -20.626 -19.847  0.00  0.00    +0.000 C 
ATOM      5  C   UNL     1      35.937 -21.066 -19.237  0.00  0.00    +0.003 C 
ATOM      6  C   UNL     1      33.535 -21.170 -19.471  0.00  0.00    +0.003 C 
ENDROOT
BRANCH   4   7
ATOM      7  C   UNL     1      34.818 -19.605 -20.870  0.00  0.00    +0.000 C 
ATOM      8  C   UNL     1      34.231 -19.832 -22.115  0.00  0.00    +0.000 C 
ATOM      9  C   UNL     1      35.456 -18.391 -20.611  0.00  0.00    +0.000 C 
ATOM     10  C   UNL     1      34.921 -17.634 -22.842  0.00  0.00    +0.031 C 
ATOM     11  C   UNL     1      34.283 -18.846 -23.102  0.00  0.00    +0.003 C 
ATOM     12  C   UNL     1      35.508 -17.406 -21.598  0.00  0.00    +0.003 C 
BRANCH  10  15
ATOM     13  N   UNL     1      35.377 -15.305 -23.577  0.00  0.00    -0.343 N 
ATOM     14  N   UNL     1      34.634 -16.901 -25.113  0.00  0.00    -0.285 NA
ATOM     15  C   UNL     1      34.975 -16.607 -23.871  0.00  0.00    +0.117 C 
ATOM     16  H   UNL     1      35.406 -14.626 -24.288  0.00  0.00    +0.144 HD
ATOM     17  H   UNL     1      35.632 -15.066 -22.657  0.00  0.00    +0.144 HD
ATOM     18  H   UNL     1      34.670 -16.208 -25.811  0.00  0.00    +0.188 HD
ENDBRANCH  10  15
ENDBRANCH   4   7
BRANCH   1  19
ATOM     19  O   UNL     1      34.604 -23.555 -16.910  0.00  0.00    -0.474 OA
BRANCH  19  20
ATOM     20  C   UNL     1      34.719 -23.124 -15.566  0.00  0.00    +0.225 C 
BRANCH  20  24
ATOM     21  O   UNL     1      38.485 -24.134 -13.550  0.00  0.00    -0.275 OA
ATOM     22  N   UNL     1      36.559 -24.552 -14.812  0.00  0.00    -0.302 N 
ATOM     23  C   UNL     1      36.277 -23.421 -12.783  0.00  0.00    +0.089 C 
ATOM     24  C   UNL     1      35.140 -24.310 -14.708  0.00  0.00    +0.116 C 
ATOM     25  C   UNL     1      34.953 -24.061 -13.216  0.00  0.00    +0.033 C 
ATOM     26  C   UNL     1      37.277 -24.075 -13.718  0.00  0.00    +0.223 C 
ATOM     27  H   UNL     1      36.977 -25.008 -15.578  0.00  0.00    +0.149 HD
BRANCH  23  28
ATOM     28  C   UNL     1      36.601 -23.649 -11.319  0.00  0.00    +0.118 C 
BRANCH  28  30
ATOM     29  O   UNL     1      36.881 -26.070 -11.268  0.00  0.00    -0.250 OA
ATOM     30  C   UNL     1      36.304 -25.063 -10.887  0.00  0.00    +0.314 C 
BRANCH  30  31
ATOM     31  O   UNL     1      35.282 -25.072  -9.992  0.00  0.00    -0.480 OA
ATOM     32  H   UNL     1      34.396 -25.118 -10.293  0.00  0.00    +0.295 HD
ENDBRANCH  30  31
ENDBRANCH  28  30
ENDBRANCH  23  28
ENDBRANCH  20  24
ENDBRANCH  19  20
ENDBRANCH   1  19
TORSDOF 8
ENDMDL
MODEL 4
REMARK VINA RESULT:     -11.0      3.237      5.311
REMARK  Name = 66000
REMARK  8 active torsions:
REMARK  status: ('A' for Active; 'I' for Inactive)
REMARK    1  A    between atoms: C_1  and  O_19
REMARK    2  A    between atoms: C_4  and  C_7
REMARK    3  A    between atoms: C_10  and  C_15
REMARK    4  A    between atoms: O_19  and  C_20
REMARK    5  A    between atoms: C_20  and  C_24
REMARK    6  A    between atoms: C_23  and  C_28
REMARK    7  A    between atoms: C_28  and  C_30
REMARK    8  A    between atoms: C_30  and  O_31
REMARK                            x       y       z     vdW  Elec       q    Type
REMARK                         _______ _______ _______ _____ _____    ______ ____
ROOT
ATOM      1  C   UNL     1      34.682 -22.535 -17.916  0.00  0.00    +0.139 C 
ATOM      2  C   UNL     1      33.494 -22.103 -18.494  0.00  0.00    +0.037 C 
ATOM      3  C   UNL     1      35.902 -22.007 -18.318  0.00  0.00    +0.037 C 
ATOM      4  C   UNL     1      34.748 -20.593 -19.901  0.00  0.00    +0.000 C 
ATOM      5  C   UNL     1      33.528 -21.129 -19.490  0.00  0.00    +0.003 C 
ATOM      6  C   UNL     1      35.936 -21.033 -19.316  0.00  0.00    +0.003 C 
ENDROOT
BRANCH   4   7
ATOM      7  C   UNL     1      34.784 -19.583 -20.936  0.00  0.00    +0.000 C 
ATOM      8  C   UNL     1      35.447 -18.376 -20.710  0.00  0.00    +0.000 C 
ATOM      9  C   UNL     1      34.156 -19.815 -22.160  0.00  0.00    +0.000 C 
ATOM     10  C   UNL     1      34.855 -17.635 -22.932  0.00  0.00    +0.031 C 
ATOM     11  C   UNL     1      35.482 -17.402 -21.708  0.00  0.00    +0.003 C 
ATOM     12  C   UNL     1      34.192 -18.841 -23.158  0.00  0.00    +0.003 C 
BRANCH  10  15
ATOM     13  N   UNL     1      35.415 -15.350 -23.730  0.00  0.00    -0.343 N 
ATOM     14  N   UNL     1      34.417 -16.891 -25.175  0.00  0.00    -0.285 NA
ATOM     15  C   UNL     1      34.891 -16.619 -23.972  0.00  0.00    +0.117 C 
ATOM     16  H   UNL     1      35.428 -14.678 -24.448  0.00  0.00    +0.144 HD
ATOM     17  H   UNL     1      35.769 -15.127 -22.840  0.00  0.00    +0.144 HD
ATOM     18  H   UNL     1      34.440 -16.206 -25.881  0.00  0.00    +0.188 HD
ENDBRANCH  10  15
ENDBRANCH   4   7
BRANCH   1  19
ATOM     19  O   UNL     1      34.648 -23.495 -16.934  0.00  0.00    -0.474 OA
BRANCH  19  20
ATOM     20  C   UNL     1      34.096 -23.118 -15.685  0.00  0.00    +0.225 C 
BRANCH  20  24
ATOM     21  O   UNL     1      31.439 -23.449 -12.206  0.00  0.00    -0.275 OA
ATOM     22  N   UNL     1      32.847 -24.238 -13.901  0.00  0.00    -0.302 N 
ATOM     23  C   UNL     1      31.124 -22.789 -14.538  0.00  0.00    +0.089 C 
ATOM     24  C   UNL     1      32.982 -24.095 -15.331  0.00  0.00    +0.116 C 
ATOM     25  C   UNL     1      31.602 -23.599 -15.748  0.00  0.00    +0.033 C 
ATOM     26  C   UNL     1      31.776 -23.518 -13.379  0.00  0.00    +0.223 C 
ATOM     27  H   UNL     1      33.450 -24.788 -13.352  0.00  0.00    +0.149 HD
BRANCH  23  28
ATOM     28  C   UNL     1      29.613 -22.726 -14.421  0.00  0.00    +0.118 C 
BRANCH  28  30
ATOM     29  O   UNL     1      28.747 -22.223 -16.643  0.00  0.00    -0.250 OA
ATOM     30  C   UNL     1      28.930 -23.017 -15.733  0.00  0.00    +0.314 C 
BRANCH  30  31
ATOM     31  O   UNL     1      28.533 -24.316 -15.774  0.00  0.00    -0.480 OA
ATOM     32  H   UNL     1      28.207 -24.681 -16.572  0.00  0.00    +0.295 HD
ENDBRANCH  30  31
ENDBRANCH  28  30
ENDBRANCH  23  28
ENDBRANCH  20  24
ENDBRANCH  19  20
ENDBRANCH   1  19
TORSDOF 8
ENDMDL
MODEL 5
REMARK VINA RESULT:     -10.9      1.696      2.161
REMARK  Name = 66000
REMARK  8 active torsions:
REMARK  status: ('A' for Active; 'I' for Inactive)
REMARK    1  A    between atoms: C_1  and  O_19
REMARK    2  A    between atoms: C_4  and  C_7
REMARK    3  A    between atoms: C_10  and  C_15
REMARK    4  A    between atoms: O_19  and  C_20
REMARK    5  A    between atoms: C_20  and  C_24
REMARK    6  A    between atoms: C_23  and  C_28
REMARK    7  A    between atoms: C_28  and  C_30
REMARK    8  A    between atoms: C_30  and  O_31
REMARK                            x       y       z     vdW  Elec       q    Type
REMARK                         _______ _______ _______ _____ _____    ______ ____
ROOT
ATOM      1  C   UNL     1      34.999 -22.564 -17.682  0.00  0.00    +0.139 C 
ATOM      2  C   UNL     1      33.794 -22.262 -18.305  0.00  0.00    +0.037 C 
ATOM      3  C   UNL     1      36.178 -21.942 -18.073  0.00  0.00    +0.037 C 
ATOM      4  C   UNL     1      34.947 -20.693 -19.735  0.00  0.00    +0.000 C 
ATOM      5  C   UNL     1      33.768 -21.323 -19.335  0.00  0.00    +0.003 C 
ATOM      6  C   UNL     1      36.152 -21.003 -19.104  0.00  0.00    +0.003 C 
ENDROOT
BRANCH   4   7
ATOM      7  C   UNL     1      34.920 -19.719 -20.805  0.00  0.00    +0.000 C 
ATOM      8  C   UNL     1      34.274 -20.018 -22.004  0.00  0.00    +0.000 C 
ATOM      9  C   UNL     1      35.541 -18.481 -20.637  0.00  0.00    +0.000 C 
ATOM     10  C   UNL     1      34.867 -17.841 -22.866  0.00  0.00    +0.031 C 
ATOM     11  C   UNL     1      34.247 -19.079 -23.035  0.00  0.00    +0.003 C 
ATOM     12  C   UNL     1      35.514 -17.542 -21.668  0.00  0.00    +0.003 C 
BRANCH  10  15
ATOM     13  N   UNL     1      35.493 -15.637 -23.825  0.00  0.00    -0.343 N 
ATOM     14  N   UNL     1      34.181 -17.127 -25.057  0.00  0.00    -0.285 NA
ATOM     15  C   UNL     1      34.840 -16.862 -23.942  0.00  0.00    +0.117 C 
ATOM     16  H   UNL     1      35.460 -14.989 -24.565  0.00  0.00    +0.144 HD
ATOM     17  H   UNL     1      35.985 -15.419 -23.002  0.00  0.00    +0.144 HD
ATOM     18  H   UNL     1      34.161 -16.467 -25.786  0.00  0.00    +0.188 HD
ENDBRANCH  10  15
ENDBRANCH   4   7
BRANCH   1  19
ATOM     19  O   UNL     1      35.025 -23.490 -16.668  0.00  0.00    -0.474 OA
BRANCH  19  20
ATOM     20  C   UNL     1      34.007 -23.396 -15.687  0.00  0.00    +0.225 C 
BRANCH  20  24
ATOM     21  O   UNL     1      34.365 -24.865 -11.566  0.00  0.00    -0.275 OA
ATOM     22  N   UNL     1      33.944 -23.287 -13.242  0.00  0.00    -0.302 N 
ATOM     23  C   UNL     1      35.951 -24.482 -13.385  0.00  0.00    +0.089 C 
ATOM     24  C   UNL     1      34.601 -22.784 -14.425  0.00  0.00    +0.116 C 
ATOM     25  C   UNL     1      36.054 -23.186 -14.197  0.00  0.00    +0.033 C 
ATOM     26  C   UNL     1      34.684 -24.264 -12.580  0.00  0.00    +0.223 C 
ATOM     27  H   UNL     1      33.065 -22.970 -12.934  0.00  0.00    +0.149 HD
BRANCH  23  28
ATOM     28  C   UNL     1      37.166 -24.739 -12.514  0.00  0.00    +0.118 C 
BRANCH  28  30
ATOM     29  O   UNL     1      38.105 -26.843 -13.307  0.00  0.00    -0.250 OA
ATOM     30  C   UNL     1      37.517 -26.204 -12.449  0.00  0.00    +0.314 C 
BRANCH  30  31
ATOM     31  O   UNL     1      37.082 -26.736 -11.277  0.00  0.00    -0.480 OA
ATOM     32  H   UNL     1      37.174 -26.252 -10.480  0.00  0.00    +0.295 HD
ENDBRANCH  30  31
ENDBRANCH  28  30
ENDBRANCH  23  28
ENDBRANCH  20  24
ENDBRANCH  19  20
ENDBRANCH   1  19
TORSDOF 8
ENDMDL
MODEL 6
REMARK VINA RESULT:     -10.9      6.014     11.890
REMARK  Name = 66000
REMARK  8 active torsions:
REMARK  status: ('A' for Active; 'I' for Inactive)
REMARK    1  A    between atoms: C_1  and  O_19
REMARK    2  A    between atoms: C_4  and  C_7
REMARK    3  A    between atoms: C_10  and  C_15
REMARK    4  A    between atoms: O_19  and  C_20
REMARK    5  A    between atoms: C_20  and  C_24
REMARK    6  A    between atoms: C_23  and  C_28
REMARK    7  A    between atoms: C_28  and  C_30
REMARK    8  A    between atoms: C_30  and  O_31
REMARK                            x       y       z     vdW  Elec       q    Type
REMARK                         _______ _______ _______ _____ _____    ______ ____
ROOT
ATOM      1  C   UNL     1      34.803 -17.418 -23.714  0.00  0.00    +0.139 C 
ATOM      2  C   UNL     1      35.359 -17.082 -22.485  0.00  0.00    +0.037 C 
ATOM      3  C   UNL     1      34.178 -18.644 -23.900  0.00  0.00    +0.037 C 
ATOM      4  C   UNL     1      34.665 -19.221 -21.605  0.00  0.00    +0.000 C 
ATOM      5  C   UNL     1      35.290 -17.987 -21.427  0.00  0.00    +0.003 C 
ATOM      6  C   UNL     1      34.110 -19.550 -22.842  0.00  0.00    +0.003 C 
ENDROOT
BRANCH   4   7
ATOM      7  C   UNL     1      34.593 -20.161 -20.508  0.00  0.00    +0.000 C 
ATOM      8  C   UNL     1      33.352 -20.595 -20.040  0.00  0.00    +0.000 C 
ATOM      9  C   UNL     1      35.765 -20.635 -19.917  0.00  0.00    +0.000 C 
ATOM     10  C   UNL     1      34.455 -21.976 -18.393  0.00  0.00    +0.031 C 
ATOM     11  C   UNL     1      33.283 -21.503 -18.983  0.00  0.00    +0.003 C 
ATOM     12  C   UNL     1      35.696 -21.543 -18.859  0.00  0.00    +0.003 C 
BRANCH  10  15
ATOM     13  N   UNL     1      33.239 -23.685 -17.062  0.00  0.00    -0.343 N 
ATOM     14  N   UNL     1      35.415 -23.066 -16.478  0.00  0.00    -0.285 NA
ATOM     15  C   UNL     1      34.382 -22.922 -17.290  0.00  0.00    +0.117 C 
ATOM     16  H   UNL     1      33.212 -24.318 -16.309  0.00  0.00    +0.144 HD
ATOM     17  H   UNL     1      32.458 -23.590 -17.654  0.00  0.00    +0.144 HD
ATOM     18  H   UNL     1      35.368 -23.704 -15.731  0.00  0.00    +0.188 HD
ENDBRANCH  10  15
ENDBRANCH   4   7
BRANCH   1  19
ATOM     19  O   UNL     1      34.872 -16.526 -24.756  0.00  0.00    -0.474 OA
BRANCH  19  20
ATOM     20  C   UNL     1      34.965 -15.153 -24.421  0.00  0.00    +0.225 C 
BRANCH  20  24
ATOM     21  O   UNL     1      32.645 -12.371 -21.941  0.00  0.00    -0.275 OA
ATOM     22  N   UNL     1      32.981 -14.229 -23.324  0.00  0.00    -0.302 N 
ATOM     23  C   UNL     1      33.827 -12.179 -24.072  0.00  0.00    +0.089 C 
ATOM     24  C   UNL     1      33.594 -14.515 -24.599  0.00  0.00    +0.116 C 
ATOM     25  C   UNL     1      33.658 -13.139 -25.254  0.00  0.00    +0.033 C 
ATOM     26  C   UNL     1      33.066 -12.886 -22.966  0.00  0.00    +0.223 C 
ATOM     27  H   UNL     1      32.546 -14.913 -22.766  0.00  0.00    +0.149 HD
BRANCH  23  28
ATOM     28  C   UNL     1      33.300 -10.785 -24.353  0.00  0.00    +0.118 C 
BRANCH  28  30
ATOM     29  O   UNL     1      33.509  -8.888 -22.838  0.00  0.00    -0.250 OA
ATOM     30  C   UNL     1      34.025  -9.732 -23.554  0.00  0.00    +0.314 C 
BRANCH  30  31
ATOM     31  O   UNL     1      35.366  -9.850 -23.737  0.00  0.00    -0.480 OA
ATOM     32  H   UNL     1      35.958  -9.513 -23.094  0.00  0.00    +0.295 HD
ENDBRANCH  30  31
ENDBRANCH  28  30
ENDBRANCH  23  28
ENDBRANCH  20  24
ENDBRANCH  19  20
ENDBRANCH   1  19
TORSDOF 8
ENDMDL
MODEL 7
REMARK VINA RESULT:     -10.7      1.172      1.588
REMARK  Name = 66000
REMARK  8 active torsions:
REMARK  status: ('A' for Active; 'I' for Inactive)
REMARK    1  A    between atoms: C_1  and  O_19
REMARK    2  A    between atoms: C_4  and  C_7
REMARK    3  A    between atoms: C_10  and  C_15
REMARK    4  A    between atoms: O_19  and  C_20
REMARK    5  A    between atoms: C_20  and  C_24
REMARK    6  A    between atoms: C_23  and  C_28
REMARK    7  A    between atoms: C_28  and  C_30
REMARK    8  A    between atoms: C_30  and  O_31
REMARK                            x       y       z     vdW  Elec       q    Type
REMARK                         _______ _______ _______ _____ _____    ______ ____
ROOT
ATOM      1  C   UNL     1      35.414 -22.379 -17.737  0.00  0.00    +0.139 C 
ATOM      2  C   UNL     1      34.174 -22.166 -18.327  0.00  0.00    +0.037 C 
ATOM      3  C   UNL     1      36.539 -21.694 -18.177  0.00  0.00    +0.037 C 
ATOM      4  C   UNL     1      35.183 -20.562 -19.825  0.00  0.00    +0.000 C 
ATOM      5  C   UNL     1      34.059 -21.254 -19.375  0.00  0.00    +0.003 C 
ATOM      6  C   UNL     1      36.424 -20.782 -19.226  0.00  0.00    +0.003 C 
ENDROOT
BRANCH   4   7
ATOM      7  C   UNL     1      35.064 -19.616 -20.913  0.00  0.00    +0.000 C 
ATOM      8  C   UNL     1      35.657 -18.357 -20.811  0.00  0.00    +0.000 C 
ATOM      9  C   UNL     1      34.357 -19.962 -22.065  0.00  0.00    +0.000 C 
ATOM     10  C   UNL     1      34.836 -17.792 -23.012  0.00  0.00    +0.031 C 
ATOM     11  C   UNL     1      35.543 -17.445 -21.861  0.00  0.00    +0.003 C 
ATOM     12  C   UNL     1      34.243 -19.050 -23.114  0.00  0.00    +0.003 C 
BRANCH  10  15
ATOM     13  N   UNL     1      35.483 -15.677 -24.143  0.00  0.00    -0.343 N 
ATOM     14  N   UNL     1      33.864 -17.072 -25.089  0.00  0.00    -0.285 NA
ATOM     15  C   UNL     1      34.717 -16.841 -24.106  0.00  0.00    +0.117 C 
ATOM     16  H   UNL     1      35.386 -15.047 -24.893  0.00  0.00    +0.144 HD
ATOM     17  H   UNL     1      36.121 -15.486 -23.419  0.00  0.00    +0.144 HD
ATOM     18  H   UNL     1      33.782 -16.430 -25.830  0.00  0.00    +0.188 HD
ENDBRANCH  10  15
ENDBRANCH   4   7
BRANCH   1  19
ATOM     19  O   UNL     1      35.528 -23.278 -16.705  0.00  0.00    -0.474 OA
BRANCH  19  20
ATOM     20  C   UNL     1      34.711 -23.058 -15.568  0.00  0.00    +0.225 C 
BRANCH  20  24
ATOM     21  O   UNL     1      35.547 -25.168 -11.810  0.00  0.00    -0.275 OA
ATOM     22  N   UNL     1      35.096 -23.313 -13.164  0.00  0.00    -0.302 N 
ATOM     23  C   UNL     1      36.831 -24.729 -13.843  0.00  0.00    +0.089 C 
ATOM     24  C   UNL     1      35.606 -22.729 -14.381  0.00  0.00    +0.116 C 
ATOM     25  C   UNL     1      36.994 -23.350 -14.493  0.00  0.00    +0.033 C 
ATOM     26  C   UNL     1      35.775 -24.468 -12.786  0.00  0.00    +0.223 C 
ATOM     27  H   UNL     1      34.346 -22.933 -12.653  0.00  0.00    +0.149 HD
BRANCH  23  28
ATOM     28  C   UNL     1      38.123 -25.274 -13.265  0.00  0.00    +0.118 C 
BRANCH  28  30
ATOM     29  O   UNL     1      40.238 -24.868 -14.406  0.00  0.00    -0.250 OA
ATOM     30  C   UNL     1      39.179 -25.470 -14.324  0.00  0.00    +0.314 C 
BRANCH  30  31
ATOM     31  O   UNL     1      38.789 -26.434 -15.197  0.00  0.00    -0.480 OA
ATOM     32  H   UNL     1      39.393 -26.763 -15.833  0.00  0.00    +0.295 HD
ENDBRANCH  30  31
ENDBRANCH  28  30
ENDBRANCH  23  28
ENDBRANCH  20  24
ENDBRANCH  19  20
ENDBRANCH   1  19
TORSDOF 8
ENDMDL
MODEL 8
REMARK VINA RESULT:     -10.5      4.136     10.608
REMARK  Name = 66000
REMARK  8 active torsions:
REMARK  status: ('A' for Active; 'I' for Inactive)
REMARK    1  A    between atoms: C_1  and  O_19
REMARK    2  A    between atoms: C_4  and  C_7
REMARK    3  A    between atoms: C_10  and  C_15
REMARK    4  A    between atoms: O_19  and  C_20
REMARK    5  A    between atoms: C_20  and  C_24
REMARK    6  A    between atoms: C_23  and  C_28
REMARK    7  A    between atoms: C_28  and  C_30
REMARK    8  A    between atoms: C_30  and  O_31
REMARK                            x       y       z     vdW  Elec       q    Type
REMARK                         _______ _______ _______ _____ _____    ______ ____
ROOT
ATOM      1  C   UNL     1      34.857 -21.495 -19.277  0.00  0.00    +0.139 C 
ATOM      2  C   UNL     1      33.814 -22.138 -18.620  0.00  0.00    +0.037 C 
ATOM      3  C   UNL     1      36.120 -21.420 -18.704  0.00  0.00    +0.037 C 
ATOM      4  C   UNL     1      35.304 -22.642 -16.787  0.00  0.00    +0.000 C 
ATOM      5  C   UNL     1      34.039 -22.713 -17.370  0.00  0.00    +0.003 C 
ATOM      6  C   UNL     1      36.344 -21.995 -17.453  0.00  0.00    +0.003 C 
ENDROOT
BRANCH   4   7
ATOM      7  C   UNL     1      35.537 -23.238 -15.489  0.00  0.00    +0.000 C 
ATOM      8  C   UNL     1      34.458 -23.659 -14.711  0.00  0.00    +0.000 C 
ATOM      9  C   UNL     1      36.840 -23.393 -15.016  0.00  0.00    +0.000 C 
ATOM     10  C   UNL     1      35.986 -24.390 -12.988  0.00  0.00    +0.031 C 
ATOM     11  C   UNL     1      34.683 -24.235 -13.460  0.00  0.00    +0.003 C 
ATOM     12  C   UNL     1      37.065 -23.969 -13.765  0.00  0.00    +0.003 C 
BRANCH  10  15
ATOM     13  N   UNL     1      35.913 -24.310 -10.507  0.00  0.00    -0.343 N 
ATOM     14  N   UNL     1      36.738 -26.203 -11.601  0.00  0.00    -0.285 NA
ATOM     15  C   UNL     1      36.220 -24.990 -11.684  0.00  0.00    +0.117 C 
ATOM     16  H   UNL     1      36.080 -24.736  -9.635  0.00  0.00    +0.144 HD
ATOM     17  H   UNL     1      35.529 -23.405 -10.548  0.00  0.00    +0.144 HD
ATOM     18  H   UNL     1      36.898 -26.611 -10.719  0.00  0.00    +0.188 HD
ENDBRANCH  10  15
ENDBRANCH   4   7
BRANCH   1  19
ATOM     19  O   UNL     1      34.636 -20.928 -20.508  0.00  0.00    -0.474 OA
BRANCH  19  20
ATOM     20  C   UNL     1      34.893 -19.541 -20.632  0.00  0.00    +0.225 C 
BRANCH  20  24
ATOM     21  O   UNL     1      33.722 -18.404 -24.708  0.00  0.00    -0.275 OA
ATOM     22  N   UNL     1      34.909 -19.596 -23.080  0.00  0.00    -0.302 N 
ATOM     23  C   UNL     1      34.884 -17.264 -22.885  0.00  0.00    +0.089 C 
ATOM     24  C   UNL     1      35.695 -19.306 -21.905  0.00  0.00    +0.116 C 
ATOM     25  C   UNL     1      36.072 -17.843 -22.109  0.00  0.00    +0.033 C 
ATOM     26  C   UNL     1      34.421 -18.452 -23.707  0.00  0.00    +0.223 C 
ATOM     27  H   UNL     1      34.735 -20.508 -23.405  0.00  0.00    +0.149 HD
BRANCH  23  28
ATOM     28  C   UNL     1      35.254 -16.065 -23.738  0.00  0.00    +0.118 C 
BRANCH  28  30
ATOM     29  O   UNL     1      33.397 -14.520 -23.414  0.00  0.00    -0.250 OA
ATOM     30  C   UNL     1      34.044 -15.260 -24.139  0.00  0.00    +0.314 C 
BRANCH  30  31
ATOM     31  O   UNL     1      33.759 -15.469 -25.450  0.00  0.00    -0.480 OA
ATOM     32  H   UNL     1      33.811 -14.760 -26.060  0.00  0.00    +0.295 HD
ENDBRANCH  30  31
ENDBRANCH  28  30
ENDBRANCH  23  28
ENDBRANCH  20  24
ENDBRANCH  19  20
ENDBRANCH   1  19
TORSDOF 8
ENDMDL
MODEL 9
REMARK VINA RESULT:     -10.4      5.904      9.876
REMARK  Name = 66000
REMARK  8 active torsions:
REMARK  status: ('A' for Active; 'I' for Inactive)
REMARK    1  A    between atoms: C_1  and  O_19
REMARK    2  A    between atoms: C_4  and  C_7
REMARK    3  A    between atoms: C_10  and  C_15
REMARK    4  A    between atoms: O_19  and  C_20
REMARK    5  A    between atoms: C_20  and  C_24
REMARK    6  A    between atoms: C_23  and  C_28
REMARK    7  A    between atoms: C_28  and  C_30
REMARK    8  A    between atoms: C_30  and  O_31
REMARK                            x       y       z     vdW  Elec       q    Type
REMARK                         _______ _______ _______ _____ _____    ______ ____
ROOT
ATOM      1  C   UNL     1      34.266 -15.292 -24.271  0.00  0.00    +0.139 C 
ATOM      2  C   UNL     1      34.564 -14.881 -22.977  0.00  0.00    +0.037 C 
ATOM      3  C   UNL     1      33.571 -14.461 -25.140  0.00  0.00    +0.037 C 
ATOM      4  C   UNL     1      33.460 -12.777 -23.411  0.00  0.00    +0.000 C 
ATOM      5  C   UNL     1      34.159 -13.618 -22.546  0.00  0.00    +0.003 C 
ATOM      6  C   UNL     1      33.165 -13.198 -24.708  0.00  0.00    +0.003 C 
ENDROOT
BRANCH   4   7
ATOM      7  C   UNL     1      33.039 -11.467 -22.964  0.00  0.00    +0.000 C 
ATOM      8  C   UNL     1      32.068 -11.348 -21.969  0.00  0.00    +0.000 C 
ATOM      9  C   UNL     1      33.604 -10.322 -23.527  0.00  0.00    +0.000 C 
ATOM     10  C   UNL     1      32.229  -8.941 -22.099  0.00  0.00    +0.031 C 
ATOM     11  C   UNL     1      31.663 -10.085 -21.537  0.00  0.00    +0.003 C 
ATOM     12  C   UNL     1      33.199  -9.059 -23.094  0.00  0.00    +0.003 C 
BRANCH  10  15
ATOM     13  N   UNL     1      32.139  -7.148 -20.383  0.00  0.00    -0.343 N 
ATOM     14  N   UNL     1      31.084  -6.856 -22.447  0.00  0.00    -0.285 NA
ATOM     15  C   UNL     1      31.805  -7.624 -21.649  0.00  0.00    +0.117 C 
ATOM     16  H   UNL     1      31.842  -6.254 -20.099  0.00  0.00    +0.144 HD
ATOM     17  H   UNL     1      32.673  -7.706 -19.773  0.00  0.00    +0.144 HD
ATOM     18  H   UNL     1      30.797  -5.965 -22.145  0.00  0.00    +0.188 HD
ENDBRANCH  10  15
ENDBRANCH   4   7
BRANCH   1  19
ATOM     19  O   UNL     1      34.664 -16.536 -24.695  0.00  0.00    -0.474 OA
BRANCH  19  20
ATOM     20  C   UNL     1      34.114 -17.653 -24.019  0.00  0.00    +0.225 C 
BRANCH  20  24
ATOM     21  O   UNL     1      36.117 -17.774 -20.115  0.00  0.00    -0.275 OA
ATOM     22  N   UNL     1      35.989 -17.799 -22.452  0.00  0.00    -0.302 N 
ATOM     23  C   UNL     1      34.583 -19.268 -21.294  0.00  0.00    +0.089 C 
ATOM     24  C   UNL     1      35.253 -18.503 -23.474  0.00  0.00    +0.116 C 
ATOM     25  C   UNL     1      34.767 -19.747 -22.738  0.00  0.00    +0.033 C 
ATOM     26  C   UNL     1      35.660 -18.208 -21.162  0.00  0.00    +0.223 C 
ATOM     27  H   UNL     1      36.655 -17.101 -22.646  0.00  0.00    +0.149 HD
BRANCH  23  28
ATOM     28  C   UNL     1      34.724 -20.381 -20.273  0.00  0.00    +0.118 C 
BRANCH  28  30
ATOM     29  O   UNL     1      32.310 -20.707 -20.346  0.00  0.00    -0.250 OA
ATOM     30  C   UNL     1      33.385 -20.884 -19.795  0.00  0.00    +0.314 C 
BRANCH  30  31
ATOM     31  O   UNL     1      33.535 -21.583 -18.640  0.00  0.00    -0.480 OA
ATOM     32  H   UNL     1      32.826 -22.098 -18.308  0.00  0.00    +0.295 HD
ENDBRANCH  30  31
ENDBRANCH  28  30
ENDBRANCH  23  28
ENDBRANCH  20  24
ENDBRANCH  19  20
ENDBRANCH   1  19
TORSDOF 8
ENDMDL
