MODEL 1
REMARK VINA RESULT:     -11.9      0.000      0.000
REMARK  Name = 445480
REMARK  5 active torsions:
REMARK  status: ('A' for Active; 'I' for Inactive)
REMARK    1  A    between atoms: N_2  and  C_21
REMARK    2  A    between atoms: C_3  and  N_7
REMARK    3  A    between atoms: N_7  and  S_9
REMARK    4  A    between atoms: S_9  and  C_14
REMARK    5  A    between atoms: C_21  and  C_24
REMARK                            x       y       z     vdW  Elec       q    Type
REMARK                         _______ _______ _______ _____ _____    ______ ____
ROOT
ATOM      1  O   UNL     1      36.757 -20.700 -19.299  0.00  0.00    -0.273 OA
ATOM      2  N   UNL     1      35.386 -19.660 -20.902  0.00  0.00    -0.274 N 
ATOM      3  C   UNL     1      34.450 -21.384 -19.644  0.00  0.00    +0.153 C 
ATOM      4  C   UNL     1      33.339 -20.544 -20.263  0.00  0.00    +0.048 C 
ATOM      5  C   UNL     1      34.036 -19.811 -21.394  0.00  0.00    +0.096 C 
ATOM      6  C   UNL     1      35.691 -20.560 -19.881  0.00  0.00    +0.242 C 
ENDROOT
BRANCH   3   7
ATOM      7  N   UNL     1      34.245 -21.550 -18.201  0.00  0.00    -0.171 NA
ATOM      8  H   UNL     1      35.167 -21.592 -17.765  0.00  0.00    +0.149 HD
BRANCH   7   9
ATOM      9  S   UNL     1      33.365 -22.920 -17.663  0.00  0.00    +0.066 S 
ATOM     10  O   UNL     1      33.746 -24.074 -18.456  0.00  0.00    -0.152 OA
ATOM     11  O   UNL     1      31.974 -22.552 -17.489  0.00  0.00    -0.152 OA
BRANCH   9  14
ATOM     12  S   UNL     1      35.560 -22.954 -15.739  0.00  0.00    -0.066 S 
ATOM     13  N   UNL     1      33.798 -24.342 -12.561  0.00  0.00    -0.243 NA
ATOM     14  C   UNL     1      33.919 -23.283 -15.997  0.00  0.00    +0.153 C 
ATOM     15  C   UNL     1      33.271 -23.768 -14.914  0.00  0.00    +0.046 C 
ATOM     16  C   UNL     1      34.148 -23.886 -13.795  0.00  0.00    +0.089 C 
ATOM     17  C   UNL     1      35.445 -23.472 -14.104  0.00  0.00    +0.048 C 
ATOM     18  C   UNL     1      36.448 -23.517 -13.125  0.00  0.00    +0.010 C 
ATOM     19  C   UNL     1      36.097 -23.982 -11.865  0.00  0.00    +0.021 C 
ATOM     20  C   UNL     1      34.788 -24.371 -11.646  0.00  0.00    +0.099 C 
ENDBRANCH   9  14
ENDBRANCH   7   9
ENDBRANCH   3   7
BRANCH   2  21
ATOM     21  C   UNL     1      36.320 -18.746 -21.523  0.00  0.00    +0.120 C 
BRANCH  21  24
ATOM     22  N   UNL     1      33.540 -13.290 -22.459  0.00  0.00    -0.230 NA
ATOM     23  N   UNL     1      34.534 -14.016 -20.453  0.00  0.00    -0.343 N 
ATOM     24  C   UNL     1      35.586 -17.683 -22.292  0.00  0.00    -0.002 C 
ATOM     25  C   UNL     1      35.253 -16.490 -21.666  0.00  0.00    +0.000 C 
ATOM     26  C   UNL     1      35.248 -17.910 -23.618  0.00  0.00    -0.003 C 
ATOM     27  C   UNL     1      34.565 -15.493 -22.378  0.00  0.00    +0.031 C 
ATOM     28  C   UNL     1      34.215 -15.711 -23.728  0.00  0.00    +0.004 C 
ATOM     29  C   UNL     1      34.564 -16.928 -24.336  0.00  0.00    -0.000 C 
ATOM     30  C   UNL     1      34.201 -14.273 -21.808  0.00  0.00    +0.125 C 
ATOM     31  C   UNL     1      33.530 -14.706 -24.420  0.00  0.00    +0.021 C 
ATOM     32  C   UNL     1      33.222 -13.533 -23.749  0.00  0.00    +0.100 C 
ATOM     33  H   UNL     1      34.284 -13.160 -20.038  0.00  0.00    +0.144 HD
ATOM     34  H   UNL     1      35.017 -14.696 -19.928  0.00  0.00    +0.144 HD
ENDBRANCH  21  24
ENDBRANCH   2  21
TORSDOF 5
ENDMDL
MODEL 2
REMARK VINA RESULT:     -11.8      2.852     10.378
REMARK  Name = 445480
REMARK  5 active torsions:
REMARK  status: ('A' for Active; 'I' for Inactive)
REMARK    1  A    between atoms: N_2  and  C_21
REMARK    2  A    between atoms: C_3  and  N_7
REMARK    3  A    between atoms: N_7  and  S_9
REMARK    4  A    between atoms: S_9  and  C_14
REMARK    5  A    between atoms: C_21  and  C_24
REMARK                            x       y       z     vdW  Elec       q    Type
REMARK                         _______ _______ _______ _____ _____    ______ ____
ROOT
ATOM      1  O   UNL     1      36.200 -21.485 -19.733  0.00  0.00    -0.273 OA
ATOM      2  N   UNL     1      34.000 -22.081 -19.154  0.00  0.00    -0.274 N 
ATOM      3  C   UNL     1      34.319 -20.011 -20.174  0.00  0.00    +0.153 C 
ATOM      4  C   UNL     1      32.857 -20.420 -20.299  0.00  0.00    +0.048 C 
ATOM      5  C   UNL     1      32.690 -21.477 -19.224  0.00  0.00    +0.096 C 
ATOM      6  C   UNL     1      34.999 -21.267 -19.687  0.00  0.00    +0.242 C 
ENDROOT
BRANCH   3   7
ATOM      7  N   UNL     1      34.875 -19.630 -21.477  0.00  0.00    -0.171 NA
ATOM      8  H   UNL     1      35.348 -20.451 -21.857  0.00  0.00    +0.149 HD
BRANCH   7   9
ATOM      9  S   UNL     1      35.991 -18.329 -21.531  0.00  0.00    +0.066 S 
ATOM     10  O   UNL     1      37.160 -18.732 -22.290  0.00  0.00    -0.152 OA
ATOM     11  O   UNL     1      36.115 -17.756 -20.205  0.00  0.00    -0.152 OA
BRANCH   9  14
ATOM     12  S   UNL     1      34.861 -15.638 -21.579  0.00  0.00    -0.066 S 
ATOM     13  N   UNL     1      33.857 -15.275 -25.321  0.00  0.00    -0.243 NA
ATOM     14  C   UNL     1      35.228 -17.019 -22.488  0.00  0.00    +0.153 C 
ATOM     15  C   UNL     1      34.894 -16.931 -23.795  0.00  0.00    +0.046 C 
ATOM     16  C   UNL     1      34.300 -15.668 -24.095  0.00  0.00    +0.089 C 
ATOM     17  C   UNL     1      34.218 -14.851 -22.966  0.00  0.00    +0.048 C 
ATOM     18  C   UNL     1      33.662 -13.568 -23.068  0.00  0.00    +0.010 C 
ATOM     19  C   UNL     1      33.208 -13.161 -24.316  0.00  0.00    +0.021 C 
ATOM     20  C   UNL     1      33.329 -14.036 -25.380  0.00  0.00    +0.099 C 
ENDBRANCH   9  14
ENDBRANCH   7   9
ENDBRANCH   3   7
BRANCH   2  21
ATOM     21  C   UNL     1      34.217 -23.342 -18.478  0.00  0.00    +0.120 C 
BRANCH  21  24
ATOM     22  N   UNL     1      29.754 -23.043 -14.192  0.00  0.00    -0.230 NA
ATOM     23  N   UNL     1      29.444 -23.017 -16.526  0.00  0.00    -0.343 N 
ATOM     24  C   UNL     1      33.631 -23.306 -17.094  0.00  0.00    -0.002 C 
ATOM     25  C   UNL     1      32.255 -23.211 -16.935  0.00  0.00    +0.000 C 
ATOM     26  C   UNL     1      34.472 -23.367 -15.993  0.00  0.00    -0.003 C 
ATOM     27  C   UNL     1      31.700 -23.175 -15.645  0.00  0.00    +0.031 C 
ATOM     28  C   UNL     1      32.544 -23.236 -14.517  0.00  0.00    +0.004 C 
ATOM     29  C   UNL     1      33.933 -23.332 -14.707  0.00  0.00    -0.000 C 
ATOM     30  C   UNL     1      30.326 -23.080 -15.417  0.00  0.00    +0.125 C 
ATOM     31  C   UNL     1      31.972 -23.199 -13.240  0.00  0.00    +0.021 C 
ATOM     32  C   UNL     1      30.593 -23.104 -13.136  0.00  0.00    +0.100 C 
ATOM     33  H   UNL     1      28.473 -22.949 -16.380  0.00  0.00    +0.144 HD
ATOM     34  H   UNL     1      29.803 -23.040 -17.442  0.00  0.00    +0.144 HD
ENDBRANCH  21  24
ENDBRANCH   2  21
TORSDOF 5
ENDMDL
MODEL 3
REMARK VINA RESULT:     -11.5      2.711     10.487
REMARK  Name = 445480
REMARK  5 active torsions:
REMARK  status: ('A' for Active; 'I' for Inactive)
REMARK    1  A    between atoms: N_2  and  C_21
REMARK    2  A    between atoms: C_3  and  N_7
REMARK    3  A    between atoms: N_7  and  S_9
REMARK    4  A    between atoms: S_9  and  C_14
REMARK    5  A    between atoms: C_21  and  C_24
REMARK                            x       y       z     vdW  Elec       q    Type
REMARK                         _______ _______ _______ _____ _____    ______ ____
ROOT
ATOM      1  O   UNL     1      32.527 -20.631 -20.062  0.00  0.00    -0.273 OA
ATOM      2  N   UNL     1      33.966 -21.894 -18.696  0.00  0.00    -0.274 N 
ATOM      3  C   UNL     1      34.924 -20.706 -20.457  0.00  0.00    +0.153 C 
ATOM      4  C   UNL     1      35.999 -21.061 -19.437  0.00  0.00    +0.048 C 
ATOM      5  C   UNL     1      35.377 -22.196 -18.644  0.00  0.00    +0.096 C 
ATOM      6  C   UNL     1      33.636 -21.033 -19.742  0.00  0.00    +0.242 C 
ENDROOT
BRANCH   3   7
ATOM      7  N   UNL     1      34.953 -19.275 -20.779  0.00  0.00    -0.171 NA
ATOM      8  H   UNL     1      33.989 -18.942 -20.769  0.00  0.00    +0.149 HD
BRANCH   7   9
ATOM      9  S   UNL     1      35.641 -18.799 -22.276  0.00  0.00    +0.066 S 
ATOM     10  O   UNL     1      35.096 -19.624 -23.337  0.00  0.00    -0.152 OA
ATOM     11  O   UNL     1      37.072 -18.634 -22.109  0.00  0.00    -0.152 OA
BRANCH   9  14
ATOM     12  S   UNL     1      34.478 -16.930 -24.194  0.00  0.00    -0.066 S 
ATOM     13  N   UNL     1      34.266 -13.668 -22.085  0.00  0.00    -0.243 NA
ATOM     14  C   UNL     1      35.061 -17.137 -22.617  0.00  0.00    +0.153 C 
ATOM     15  C   UNL     1      35.004 -16.024 -21.852  0.00  0.00    +0.046 C 
ATOM     16  C   UNL     1      34.454 -14.924 -22.577  0.00  0.00    +0.089 C 
ATOM     17  C   UNL     1      34.118 -15.278 -23.884  0.00  0.00    +0.048 C 
ATOM     18  C   UNL     1      33.562 -14.325 -24.749  0.00  0.00    +0.010 C 
ATOM     19  C   UNL     1      33.368 -13.043 -24.253  0.00  0.00    +0.021 C 
ATOM     20  C   UNL     1      33.730 -12.779 -22.944  0.00  0.00    +0.099 C 
ENDBRANCH   9  14
ENDBRANCH   7   9
ENDBRANCH   3   7
BRANCH   2  21
ATOM     21  C   UNL     1      33.021 -22.542 -17.813  0.00  0.00    +0.120 C 
BRANCH  21  24
ATOM     22  N   UNL     1      37.712 -23.456 -13.871  0.00  0.00    -0.230 NA
ATOM     23  N   UNL     1      37.890 -22.688 -16.090  0.00  0.00    -0.343 N 
ATOM     24  C   UNL     1      33.683 -22.920 -16.517  0.00  0.00    -0.002 C 
ATOM     25  C   UNL     1      35.064 -22.835 -16.403  0.00  0.00    +0.000 C 
ATOM     26  C   UNL     1      32.905 -23.350 -15.452  0.00  0.00    -0.003 C 
ATOM     27  C   UNL     1      35.690 -23.188 -15.196  0.00  0.00    +0.031 C 
ATOM     28  C   UNL     1      34.911 -23.628 -14.105  0.00  0.00    +0.004 C 
ATOM     29  C   UNL     1      33.516 -23.704 -14.248  0.00  0.00    -0.000 C 
ATOM     30  C   UNL     1      37.072 -23.125 -15.016  0.00  0.00    +0.125 C 
ATOM     31  C   UNL     1      35.553 -23.975 -12.910  0.00  0.00    +0.021 C 
ATOM     32  C   UNL     1      36.934 -23.872 -12.849  0.00  0.00    +0.100 C 
ATOM     33  H   UNL     1      38.867 -22.639 -15.977  0.00  0.00    +0.144 HD
ATOM     34  H   UNL     1      37.480 -22.434 -16.948  0.00  0.00    +0.144 HD
ENDBRANCH  21  24
ENDBRANCH   2  21
TORSDOF 5
ENDMDL
MODEL 4
REMARK VINA RESULT:     -11.3      1.341      2.157
REMARK  Name = 445480
REMARK  5 active torsions:
REMARK  status: ('A' for Active; 'I' for Inactive)
REMARK    1  A    between atoms: N_2  and  C_21
REMARK    2  A    between atoms: C_3  and  N_7
REMARK    3  A    between atoms: N_7  and  S_9
REMARK    4  A    between atoms: S_9  and  C_14
REMARK    5  A    between atoms: C_21  and  C_24
REMARK                            x       y       z     vdW  Elec       q    Type
REMARK                         _______ _______ _______ _____ _____    ______ ____
ROOT
ATOM      1  O   UNL     1      36.927 -19.537 -19.830  0.00  0.00    -0.273 OA
ATOM      2  N   UNL     1      35.378 -18.962 -21.504  0.00  0.00    -0.274 N 
ATOM      3  C   UNL     1      34.956 -20.890 -20.266  0.00  0.00    +0.153 C 
ATOM      4  C   UNL     1      33.671 -20.428 -20.944  0.00  0.00    +0.048 C 
ATOM      5  C   UNL     1      34.162 -19.515 -22.052  0.00  0.00    +0.096 C 
ATOM      6  C   UNL     1      35.897 -19.727 -20.460  0.00  0.00    +0.242 C 
ENDROOT
BRANCH   3   7
ATOM      7  N   UNL     1      34.746 -21.113 -18.832  0.00  0.00    -0.171 NA
ATOM      8  H   UNL     1      35.663 -21.259 -18.409  0.00  0.00    +0.149 HD
BRANCH   7   9
ATOM      9  S   UNL     1      33.752 -22.427 -18.356  0.00  0.00    +0.066 S 
ATOM     10  O   UNL     1      34.057 -23.581 -19.181  0.00  0.00    -0.152 OA
ATOM     11  O   UNL     1      32.390 -21.957 -18.193  0.00  0.00    -0.152 OA
BRANCH   9  14
ATOM     12  S   UNL     1      32.966 -23.465 -15.743  0.00  0.00    -0.066 S 
ATOM     13  N   UNL     1      36.351 -23.415 -13.827  0.00  0.00    -0.243 NA
ATOM     14  C   UNL     1      34.242 -22.885 -16.693  0.00  0.00    +0.153 C 
ATOM     15  C   UNL     1      35.437 -22.852 -16.062  0.00  0.00    +0.046 C 
ATOM     16  C   UNL     1      35.327 -23.325 -14.720  0.00  0.00    +0.089 C 
ATOM     17  C   UNL     1      34.020 -23.698 -14.405  0.00  0.00    +0.048 C 
ATOM     18  C   UNL     1      33.718 -24.190 -13.127  0.00  0.00    +0.010 C 
ATOM     19  C   UNL     1      34.759 -24.283 -12.212  0.00  0.00    +0.021 C 
ATOM     20  C   UNL     1      36.024 -23.891 -12.609  0.00  0.00    +0.099 C 
ENDBRANCH   9  14
ENDBRANCH   7   9
ENDBRANCH   3   7
BRANCH   2  21
ATOM     21  C   UNL     1      36.017 -17.806 -22.095  0.00  0.00    +0.120 C 
BRANCH  21  24
ATOM     22  N   UNL     1      32.718 -12.731 -23.418  0.00  0.00    -0.230 NA
ATOM     23  N   UNL     1      33.643 -14.234 -24.977  0.00  0.00    -0.343 N 
ATOM     24  C   UNL     1      35.222 -16.561 -21.811  0.00  0.00    -0.002 C 
ATOM     25  C   UNL     1      34.716 -15.816 -22.867  0.00  0.00    +0.000 C 
ATOM     26  C   UNL     1      35.008 -16.173 -20.497  0.00  0.00    -0.003 C 
ATOM     27  C   UNL     1      33.974 -14.651 -22.610  0.00  0.00    +0.031 C 
ATOM     28  C   UNL     1      33.748 -14.244 -21.278  0.00  0.00    +0.004 C 
ATOM     29  C   UNL     1      34.273 -15.017 -20.229  0.00  0.00    -0.000 C 
ATOM     30  C   UNL     1      33.437 -13.858 -23.625  0.00  0.00    +0.125 C 
ATOM     31  C   UNL     1      33.006 -13.081 -21.042  0.00  0.00    +0.021 C 
ATOM     32  C   UNL     1      32.522 -12.373 -22.131  0.00  0.00    +0.100 C 
ATOM     33  H   UNL     1      33.271 -13.684 -25.704  0.00  0.00    +0.144 HD
ATOM     34  H   UNL     1      34.159 -15.045 -25.189  0.00  0.00    +0.144 HD
ENDBRANCH  21  24
ENDBRANCH   2  21
TORSDOF 5
ENDMDL
MODEL 5
REMARK VINA RESULT:     -11.2      3.773      6.524
REMARK  Name = 445480
REMARK  5 active torsions:
REMARK  status: ('A' for Active; 'I' for Inactive)
REMARK    1  A    between atoms: N_2  and  C_21
REMARK    2  A    between atoms: C_3  and  N_7
REMARK    3  A    between atoms: N_7  and  S_9
REMARK    4  A    between atoms: S_9  and  C_14
REMARK    5  A    between atoms: C_21  and  C_24
REMARK                            x       y       z     vdW  Elec       q    Type
REMARK                         _______ _______ _______ _____ _____    ______ ____
ROOT
ATOM      1  O   UNL     1      34.198 -14.139 -20.925  0.00  0.00    -0.273 OA
ATOM      2  N   UNL     1      33.319 -14.118 -23.106  0.00  0.00    -0.274 N 
ATOM      3  C   UNL     1      35.047 -15.617 -22.658  0.00  0.00    +0.153 C 
ATOM      4  C   UNL     1      34.310 -16.052 -23.919  0.00  0.00    +0.048 C 
ATOM      5  C   UNL     1      33.580 -14.796 -24.355  0.00  0.00    +0.096 C 
ATOM      6  C   UNL     1      34.154 -14.550 -22.075  0.00  0.00    +0.242 C 
ENDROOT
BRANCH   3   7
ATOM      7  N   UNL     1      35.166 -16.727 -21.706  0.00  0.00    -0.171 NA
ATOM      8  H   UNL     1      35.909 -16.485 -21.049  0.00  0.00    +0.149 HD
BRANCH   7   9
ATOM      9  S   UNL     1      35.519 -18.286 -22.324  0.00  0.00    +0.066 S 
ATOM     10  O   UNL     1      36.958 -18.445 -22.427  0.00  0.00    -0.152 OA
ATOM     11  O   UNL     1      34.649 -18.558 -23.451  0.00  0.00    -0.152 OA
BRANCH   9  14
ATOM     12  S   UNL     1      36.275 -20.155 -20.212  0.00  0.00    -0.066 S 
ATOM     13  N   UNL     1      32.809 -21.524 -19.096  0.00  0.00    -0.243 NA
ATOM     14  C   UNL     1      34.995 -19.475 -21.088  0.00  0.00    +0.153 C 
ATOM     15  C   UNL     1      33.772 -19.926 -20.729  0.00  0.00    +0.046 C 
ATOM     16  C   UNL     1      33.863 -20.886 -19.676  0.00  0.00    +0.089 C 
ATOM     17  C   UNL     1      35.184 -21.111 -19.290  0.00  0.00    +0.048 C 
ATOM     18  C   UNL     1      35.470 -22.025 -18.265  0.00  0.00    +0.010 C 
ATOM     19  C   UNL     1      34.399 -22.679 -17.670  0.00  0.00    +0.021 C 
ATOM     20  C   UNL     1      33.121 -22.395 -18.116  0.00  0.00    +0.099 C 
ENDBRANCH   9  14
ENDBRANCH   7   9
ENDBRANCH   3   7
BRANCH   2  21
ATOM     21  C   UNL     1      32.373 -13.028 -23.019  0.00  0.00    +0.120 C 
BRANCH  21  24
ATOM     22  N   UNL     1      33.627  -7.009 -22.260  0.00  0.00    -0.230 NA
ATOM     23  N   UNL     1      32.058  -8.267 -21.035  0.00  0.00    -0.343 N 
ATOM     24  C   UNL     1      33.055 -11.715 -23.284  0.00  0.00    -0.002 C 
ATOM     25  C   UNL     1      32.710 -10.600 -22.532  0.00  0.00    +0.000 C 
ATOM     26  C   UNL     1      34.019 -11.634 -24.277  0.00  0.00    -0.003 C 
ATOM     27  C   UNL     1      33.342  -9.369 -22.775  0.00  0.00    +0.031 C 
ATOM     28  C   UNL     1      34.325  -9.272 -23.783  0.00  0.00    +0.004 C 
ATOM     29  C   UNL     1      34.654 -10.416 -24.528  0.00  0.00    -0.000 C 
ATOM     30  C   UNL     1      33.041  -8.211 -22.056  0.00  0.00    +0.125 C 
ATOM     31  C   UNL     1      34.943  -8.037 -24.010  0.00  0.00    +0.021 C 
ATOM     32  C   UNL     1      34.562  -6.955 -23.231  0.00  0.00    +0.100 C 
ATOM     33  H   UNL     1      31.836  -7.458 -20.520  0.00  0.00    +0.144 HD
ATOM     34  H   UNL     1      31.598  -9.116 -20.841  0.00  0.00    +0.144 HD
ENDBRANCH  21  24
ENDBRANCH   2  21
TORSDOF 5
ENDMDL
MODEL 6
REMARK VINA RESULT:     -11.1      7.417     11.411
REMARK  Name = 445480
REMARK  5 active torsions:
REMARK  status: ('A' for Active; 'I' for Inactive)
REMARK    1  A    between atoms: N_2  and  C_21
REMARK    2  A    between atoms: C_3  and  N_7
REMARK    3  A    between atoms: N_7  and  S_9
REMARK    4  A    between atoms: S_9  and  C_14
REMARK    5  A    between atoms: C_21  and  C_24
REMARK                            x       y       z     vdW  Elec       q    Type
REMARK                         _______ _______ _______ _____ _____    ______ ____
ROOT
ATOM      1  O   UNL     1      35.711  -9.657 -24.610  0.00  0.00    -0.273 OA
ATOM      2  N   UNL     1      34.264  -8.554 -23.121  0.00  0.00    -0.274 N 
ATOM      3  C   UNL     1      33.590 -10.631 -23.934  0.00  0.00    +0.153 C 
ATOM      4  C   UNL     1      32.800 -10.296 -22.675  0.00  0.00    +0.048 C 
ATOM      5  C   UNL     1      32.963  -8.794 -22.541  0.00  0.00    +0.096 C 
ATOM      6  C   UNL     1      34.683  -9.591 -23.954  0.00  0.00    +0.242 C 
ENDROOT
BRANCH   3   7
ATOM      7  N   UNL     1      34.190 -11.967 -23.842  0.00  0.00    -0.171 NA
ATOM      8  H   UNL     1      34.925 -12.019 -24.548  0.00  0.00    +0.149 HD
BRANCH   7   9
ATOM      9  S   UNL     1      33.170 -13.327 -24.067  0.00  0.00    +0.066 S 
ATOM     10  O   UNL     1      33.121 -13.660 -25.479  0.00  0.00    -0.152 OA
ATOM     11  O   UNL     1      31.957 -13.144 -23.294  0.00  0.00    -0.152 OA
BRANCH   9  14
ATOM     12  S   UNL     1      34.288 -16.011 -24.327  0.00  0.00    -0.066 S 
ATOM     13  N   UNL     1      35.462 -16.730 -20.688  0.00  0.00    -0.243 NA
ATOM     14  C   UNL     1      33.970 -14.723 -23.275  0.00  0.00    +0.153 C 
ATOM     15  C   UNL     1      34.364 -14.935 -21.999  0.00  0.00    +0.046 C 
ATOM     16  C   UNL     1      34.965 -16.221 -21.849  0.00  0.00    +0.089 C 
ATOM     17  C   UNL     1      34.990 -16.927 -23.053  0.00  0.00    +0.048 C 
ATOM     18  C   UNL     1      35.545 -18.214 -23.100  0.00  0.00    +0.010 C 
ATOM     19  C   UNL     1      36.053 -18.738 -21.919  0.00  0.00    +0.021 C 
ATOM     20  C   UNL     1      35.987 -17.969 -20.772  0.00  0.00    +0.099 C 
ENDBRANCH   9  14
ENDBRANCH   7   9
ENDBRANCH   3   7
BRANCH   2  21
ATOM     21  C   UNL     1      34.959  -7.300 -22.927  0.00  0.00    +0.120 C 
BRANCH  21  24
ATOM     22  N   UNL     1      30.822  -2.779 -23.835  0.00  0.00    -0.230 NA
ATOM     23  N   UNL     1      31.025  -4.111 -21.903  0.00  0.00    -0.343 N 
ATOM     24  C   UNL     1      34.264  -6.192 -23.668  0.00  0.00    -0.002 C 
ATOM     25  C   UNL     1      33.205  -5.525 -23.067  0.00  0.00    +0.000 C 
ATOM     26  C   UNL     1      34.688  -5.851 -24.944  0.00  0.00    -0.003 C 
ATOM     27  C   UNL     1      32.549  -4.490 -23.753  0.00  0.00    +0.031 C 
ATOM     28  C   UNL     1      32.970  -4.133 -25.052  0.00  0.00    +0.004 C 
ATOM     29  C   UNL     1      34.044  -4.825 -25.636  0.00  0.00    -0.000 C 
ATOM     30  C   UNL     1      31.478  -3.781 -23.207  0.00  0.00    +0.125 C 
ATOM     31  C   UNL     1      32.304  -3.099 -25.720  0.00  0.00    +0.021 C 
ATOM     32  C   UNL     1      31.253  -2.465 -25.075  0.00  0.00    +0.100 C 
ATOM     33  H   UNL     1      30.271  -3.619 -21.505  0.00  0.00    +0.144 HD
ATOM     34  H   UNL     1      31.465  -4.832 -21.397  0.00  0.00    +0.144 HD
ENDBRANCH  21  24
ENDBRANCH   2  21
TORSDOF 5
ENDMDL
MODEL 7
REMARK VINA RESULT:     -11.0      2.544     10.543
REMARK  Name = 445480
REMARK  5 active torsions:
REMARK  status: ('A' for Active; 'I' for Inactive)
REMARK    1  A    between atoms: N_2  and  C_21
REMARK    2  A    between atoms: C_3  and  N_7
REMARK    3  A    between atoms: N_7  and  S_9
REMARK    4  A    between atoms: S_9  and  C_14
REMARK    5  A    between atoms: C_21  and  C_24
REMARK                            x       y       z     vdW  Elec       q    Type
REMARK                         _______ _______ _______ _____ _____    ______ ____
ROOT
ATOM      1  O   UNL     1      36.276 -21.055 -19.396  0.00  0.00    -0.273 OA
ATOM      2  N   UNL     1      34.124 -21.885 -18.935  0.00  0.00    -0.274 N 
ATOM      3  C   UNL     1      34.275 -19.920 -20.179  0.00  0.00    +0.153 C 
ATOM      4  C   UNL     1      32.898 -20.543 -20.375  0.00  0.00    +0.048 C 
ATOM      5  C   UNL     1      32.761 -21.483 -19.193  0.00  0.00    +0.096 C 
ATOM      6  C   UNL     1      35.058 -21.004 -19.481  0.00  0.00    +0.242 C 
ENDROOT
BRANCH   3   7
ATOM      7  N   UNL     1      34.906 -19.616 -21.468  0.00  0.00    -0.171 NA
ATOM      8  H   UNL     1      35.352 -20.473 -21.797  0.00  0.00    +0.149 HD
BRANCH   7   9
ATOM      9  S   UNL     1      36.089 -18.376 -21.515  0.00  0.00    +0.066 S 
ATOM     10  O   UNL     1      37.134 -18.747 -22.451  0.00  0.00    -0.152 OA
ATOM     11  O   UNL     1      36.403 -17.967 -20.160  0.00  0.00    -0.152 OA
BRANCH   9  14
ATOM     12  S   UNL     1      34.850 -17.123 -23.843  0.00  0.00    -0.066 S 
ATOM     13  N   UNL     1      33.966 -13.596 -22.460  0.00  0.00    -0.243 NA
ATOM     14  C   UNL     1      35.307 -16.927 -22.224  0.00  0.00    +0.153 C 
ATOM     15  C   UNL     1      35.016 -15.712 -21.706  0.00  0.00    +0.046 C 
ATOM     16  C   UNL     1      34.381 -14.875 -22.673  0.00  0.00    +0.089 C 
ATOM     17  C   UNL     1      34.225 -15.523 -23.899  0.00  0.00    +0.048 C 
ATOM     18  C   UNL     1      33.618 -14.856 -24.973  0.00  0.00    +0.010 C 
ATOM     19  C   UNL     1      33.193 -13.551 -24.762  0.00  0.00    +0.021 C 
ATOM     20  C   UNL     1      33.389 -12.986 -23.514  0.00  0.00    +0.099 C 
ENDBRANCH   9  14
ENDBRANCH   7   9
ENDBRANCH   3   7
BRANCH   2  21
ATOM     21  C   UNL     1      34.433 -23.017 -18.089  0.00  0.00    +0.120 C 
BRANCH  21  24
ATOM     22  N   UNL     1      32.212 -24.575 -12.520  0.00  0.00    -0.230 NA
ATOM     23  N   UNL     1      34.424 -24.876 -13.268  0.00  0.00    -0.343 N 
ATOM     24  C   UNL     1      33.404 -23.160 -17.003  0.00  0.00    -0.002 C 
ATOM     25  C   UNL     1      33.764 -23.726 -15.788  0.00  0.00    +0.000 C 
ATOM     26  C   UNL     1      32.106 -22.727 -17.230  0.00  0.00    -0.003 C 
ATOM     27  C   UNL     1      32.807 -23.865 -14.769  0.00  0.00    +0.031 C 
ATOM     28  C   UNL     1      31.483 -23.428 -14.986  0.00  0.00    +0.004 C 
ATOM     29  C   UNL     1      31.146 -22.859 -16.226  0.00  0.00    -0.000 C 
ATOM     30  C   UNL     1      33.104 -24.425 -13.525  0.00  0.00    +0.125 C 
ATOM     31  C   UNL     1      30.544 -23.575 -13.958  0.00  0.00    +0.021 C 
ATOM     32  C   UNL     1      30.956 -24.146 -12.764  0.00  0.00    +0.100 C 
ATOM     33  H   UNL     1      34.648 -25.274 -12.396  0.00  0.00    +0.144 HD
ATOM     34  H   UNL     1      35.117 -24.792 -13.963  0.00  0.00    +0.144 HD
ENDBRANCH  21  24
ENDBRANCH   2  21
TORSDOF 5
ENDMDL
MODEL 8
REMARK VINA RESULT:     -10.9      2.544     10.753
REMARK  Name = 445480
REMARK  5 active torsions:
REMARK  status: ('A' for Active; 'I' for Inactive)
REMARK    1  A    between atoms: N_2  and  C_21
REMARK    2  A    between atoms: C_3  and  N_7
REMARK    3  A    between atoms: N_7  and  S_9
REMARK    4  A    between atoms: S_9  and  C_14
REMARK    5  A    between atoms: C_21  and  C_24
REMARK                            x       y       z     vdW  Elec       q    Type
REMARK                         _______ _______ _______ _____ _____    ______ ____
ROOT
ATOM      1  O   UNL     1      32.333 -20.554 -19.986  0.00  0.00    -0.273 OA
ATOM      2  N   UNL     1      33.869 -21.863 -18.776  0.00  0.00    -0.274 N 
ATOM      3  C   UNL     1      34.650 -20.778 -20.685  0.00  0.00    +0.153 C 
ATOM      4  C   UNL     1      35.829 -21.169 -19.802  0.00  0.00    +0.048 C 
ATOM      5  C   UNL     1      35.256 -22.244 -18.898  0.00  0.00    +0.096 C 
ATOM      6  C   UNL     1      33.452 -21.011 -19.799  0.00  0.00    +0.242 C 
ENDROOT
BRANCH   3   7
ATOM      7  N   UNL     1      34.715 -19.360 -21.056  0.00  0.00    -0.171 NA
ATOM      8  H   UNL     1      33.755 -19.035 -21.179  0.00  0.00    +0.149 HD
BRANCH   7   9
ATOM      9  S   UNL     1      35.582 -18.934 -22.471  0.00  0.00    +0.066 S 
ATOM     10  O   UNL     1      35.250 -19.864 -23.534  0.00  0.00    -0.152 OA
ATOM     11  O   UNL     1      36.961 -18.657 -22.118  0.00  0.00    -0.152 OA
BRANCH   9  14
ATOM     12  S   UNL     1      34.988 -16.153 -21.811  0.00  0.00    -0.066 S 
ATOM     13  N   UNL     1      33.564 -14.833 -25.182  0.00  0.00    -0.243 NA
ATOM     14  C   UNL     1      34.957 -17.344 -23.015  0.00  0.00    +0.153 C 
ATOM     15  C   UNL     1      34.468 -16.923 -24.203  0.00  0.00    +0.046 C 
ATOM     16  C   UNL     1      34.089 -15.548 -24.150  0.00  0.00    +0.089 C 
ATOM     17  C   UNL     1      34.320 -14.993 -22.890  0.00  0.00    +0.048 C 
ATOM     18  C   UNL     1      34.010 -13.647 -22.648  0.00  0.00    +0.010 C 
ATOM     19  C   UNL     1      33.473 -12.913 -23.697  0.00  0.00    +0.021 C 
ATOM     20  C   UNL     1      33.277 -13.543 -24.913  0.00  0.00    +0.099 C 
ENDBRANCH   9  14
ENDBRANCH   7   9
ENDBRANCH   3   7
BRANCH   2  21
ATOM     21  C   UNL     1      33.014 -22.432 -17.757  0.00  0.00    +0.120 C 
BRANCH  21  24
ATOM     22  N   UNL     1      34.020 -24.605 -12.044  0.00  0.00    -0.230 NA
ATOM     23  N   UNL     1      31.946 -24.527 -13.156  0.00  0.00    -0.343 N 
ATOM     24  C   UNL     1      33.815 -22.791 -16.537  0.00  0.00    -0.002 C 
ATOM     25  C   UNL     1      33.178 -23.359 -15.442  0.00  0.00    +0.000 C 
ATOM     26  C   UNL     1      35.180 -22.547 -16.520  0.00  0.00    -0.003 C 
ATOM     27  C   UNL     1      33.920 -23.695 -14.297  0.00  0.00    +0.031 C 
ATOM     28  C   UNL     1      35.309 -23.453 -14.266  0.00  0.00    +0.004 C 
ATOM     29  C   UNL     1      35.928 -22.876 -15.388  0.00  0.00    -0.000 C 
ATOM     30  C   UNL     1      33.341 -24.268 -13.164  0.00  0.00    +0.125 C 
ATOM     31  C   UNL     1      36.031 -23.794 -13.116  0.00  0.00    +0.021 C 
ATOM     32  C   UNL     1      35.348 -24.359 -12.051  0.00  0.00    +0.100 C 
ATOM     33  H   UNL     1      31.524 -24.930 -12.363  0.00  0.00    +0.144 HD
ATOM     34  H   UNL     1      31.400 -24.302 -13.944  0.00  0.00    +0.144 HD
ENDBRANCH  21  24
ENDBRANCH   2  21
TORSDOF 5
ENDMDL
MODEL 9
REMARK VINA RESULT:     -10.8      5.368     11.599
REMARK  Name = 445480
REMARK  5 active torsions:
REMARK  status: ('A' for Active; 'I' for Inactive)
REMARK    1  A    between atoms: N_2  and  C_21
REMARK    2  A    between atoms: C_3  and  N_7
REMARK    3  A    between atoms: N_7  and  S_9
REMARK    4  A    between atoms: S_9  and  C_14
REMARK    5  A    between atoms: C_21  and  C_24
REMARK                            x       y       z     vdW  Elec       q    Type
REMARK                         _______ _______ _______ _____ _____    ______ ____
ROOT
ATOM      1  O   UNL     1      33.826 -15.450 -25.180  0.00  0.00    -0.273 OA
ATOM      2  N   UNL     1      34.616 -16.408 -23.182  0.00  0.00    -0.274 N 
ATOM      3  C   UNL     1      34.217 -14.112 -23.190  0.00  0.00    +0.153 C 
ATOM      4  C   UNL     1      34.260 -14.617 -21.752  0.00  0.00    +0.048 C 
ATOM      5  C   UNL     1      34.983 -15.946 -21.864  0.00  0.00    +0.096 C 
ATOM      6  C   UNL     1      34.167 -15.378 -24.009  0.00  0.00    +0.242 C 
ENDROOT
BRANCH   3   7
ATOM      7  N   UNL     1      33.004 -13.323 -23.436  0.00  0.00    -0.171 NA
ATOM      8  H   UNL     1      33.214 -12.674 -24.195  0.00  0.00    +0.149 HD
BRANCH   7   9
ATOM      9  S   UNL     1      32.362 -12.403 -22.140  0.00  0.00    +0.066 S 
ATOM     10  O   UNL     1      33.045 -12.765 -20.912  0.00  0.00    -0.152 OA
ATOM     11  O   UNL     1      30.915 -12.408 -22.226  0.00  0.00    -0.152 OA
BRANCH   9  14
ATOM     12  S   UNL     1      33.955 -10.488 -23.662  0.00  0.00    -0.066 S 
ATOM     13  N   UNL     1      32.810  -7.108 -22.113  0.00  0.00    -0.243 NA
ATOM     14  C   UNL     1      32.797 -10.691 -22.442  0.00  0.00    +0.153 C 
ATOM     15  C   UNL     1      32.374  -9.537 -21.879  0.00  0.00    +0.046 C 
ATOM     16  C   UNL     1      33.021  -8.407 -22.463  0.00  0.00    +0.089 C 
ATOM     17  C   UNL     1      33.921  -8.781 -23.461  0.00  0.00    +0.048 C 
ATOM     18  C   UNL     1      34.652  -7.802 -24.151  0.00  0.00    +0.010 C 
ATOM     19  C   UNL     1      34.441  -6.476 -23.798  0.00  0.00    +0.021 C 
ATOM     20  C   UNL     1      33.530  -6.195 -22.796  0.00  0.00    +0.099 C 
ENDBRANCH   9  14
ENDBRANCH   7   9
ENDBRANCH   3   7
BRANCH   2  21
ATOM     21  C   UNL     1      34.830 -17.779 -23.592  0.00  0.00    +0.120 C 
BRANCH  21  24
ATOM     22  N   UNL     1      34.211 -21.663 -18.806  0.00  0.00    -0.230 NA
ATOM     23  N   UNL     1      32.480 -20.896 -20.206  0.00  0.00    -0.343 N 
ATOM     24  C   UNL     1      35.275 -18.614 -22.424  0.00  0.00    -0.002 C 
ATOM     25  C   UNL     1      34.339 -19.353 -21.713  0.00  0.00    +0.000 C 
ATOM     26  C   UNL     1      36.616 -18.634 -22.069  0.00  0.00    -0.003 C 
ATOM     27  C   UNL     1      34.747 -20.134 -20.619  0.00  0.00    +0.031 C 
ATOM     28  C   UNL     1      36.108 -20.164 -20.248  0.00  0.00    +0.004 C 
ATOM     29  C   UNL     1      37.034 -19.406 -20.984  0.00  0.00    -0.000 C 
ATOM     30  C   UNL     1      33.857 -20.900 -19.864  0.00  0.00    +0.125 C 
ATOM     31  C   UNL     1      36.495 -20.948 -19.155  0.00  0.00    +0.021 C 
ATOM     32  C   UNL     1      35.521 -21.667 -18.480  0.00  0.00    +0.100 C 
ATOM     33  H   UNL     1      31.841 -21.431 -19.682  0.00  0.00    +0.144 HD
ATOM     34  H   UNL     1      32.164 -20.358 -20.968  0.00  0.00    +0.144 HD
ENDBRANCH  21  24
ENDBRANCH   2  21
TORSDOF 5
ENDMDL
