MODEL 1
REMARK VINA RESULT:     -12.3      0.000      0.000
REMARK  Name = 17748441
REMARK  5 active torsions:
REMARK  status: ('A' for Active; 'I' for Inactive)
REMARK    1  A    between atoms: C_2  and  N_10
REMARK    2  A    between atoms: C_3  and  O_24
REMARK    3  A    between atoms: C_12  and  C_16
REMARK    4  A    between atoms: C_16  and  C_18
REMARK    5  A    between atoms: O_24  and  C_27
REMARK                            x       y       z     vdW  Elec       q    Type
REMARK                         _______ _______ _______ _____ _____    ______ ____
ROOT
ATOM      1  F   UNL     1      33.761 -11.573 -24.108  0.00  0.00    -0.201 F 
ATOM      2  C   UNL     1      33.792 -14.081 -21.474  0.00  0.00    +0.054 C 
ATOM      3  C   UNL     1      32.423 -11.748 -22.157  0.00  0.00    +0.173 C 
ATOM      4  C   UNL     1      34.123 -13.393 -22.641  0.00  0.00    +0.047 C 
ATOM      5  C   UNL     1      32.775 -13.600 -20.647  0.00  0.00    +0.018 C 
ATOM      6  C   UNL     1      33.438 -12.228 -22.983  0.00  0.00    +0.176 C 
ATOM      7  C   UNL     1      32.091 -12.434 -20.989  0.00  0.00    +0.041 C 
ENDROOT
BRANCH   2  10
ATOM      8  O   UNL     1      36.134 -18.763 -22.950  0.00  0.00    -0.274 OA
ATOM      9  O   UNL     1      34.777 -16.334 -23.196  0.00  0.00    -0.252 OA
ATOM     10  N   UNL     1      34.486 -15.263 -21.126  0.00  0.00    -0.268 N 
ATOM     11  N   UNL     1      35.574 -17.287 -21.234  0.00  0.00    -0.239 N 
ATOM     12  C   UNL     1      36.134 -18.453 -21.762  0.00  0.00    +0.234 C 
ATOM     13  C   UNL     1      34.922 -16.283 -21.978  0.00  0.00    +0.310 C 
ATOM     14  H   UNL     1      34.686 -15.382 -20.169  0.00  0.00    +0.156 HD
ATOM     15  H   UNL     1      35.641 -17.155 -20.260  0.00  0.00    +0.159 HD
BRANCH  12  16
ATOM     16  C   UNL     1      36.753 -19.308 -20.673  0.00  0.00    +0.112 C 
BRANCH  16  18
ATOM     17  F   UNL     1      33.073 -22.789 -18.204  0.00  0.00    -0.204 F 
ATOM     18  C   UNL     1      35.770 -20.238 -20.013  0.00  0.00    -0.013 C 
ATOM     19  C   UNL     1      36.218 -21.199 -19.108  0.00  0.00    -0.001 C 
ATOM     20  C   UNL     1      34.409 -20.139 -20.306  0.00  0.00    -0.001 C 
ATOM     21  C   UNL     1      35.307 -22.061 -18.497  0.00  0.00    +0.029 C 
ATOM     22  C   UNL     1      33.499 -21.001 -19.696  0.00  0.00    +0.029 C 
ATOM     23  C   UNL     1      33.947 -21.962 -18.791  0.00  0.00    +0.140 C 
ENDBRANCH  16  18
ENDBRANCH  12  16
ENDBRANCH   2  10
BRANCH   3  24
ATOM     24  O   UNL     1      31.755 -10.609 -22.489  0.00  0.00    -0.451 OA
BRANCH  24  27
ATOM     25  N   UNL     1      33.361  -6.973 -21.196  0.00  0.00    -0.229 NA
ATOM     26  N   UNL     1      32.404  -7.333 -19.044  0.00  0.00    -0.343 N 
ATOM     27  C   UNL     1      32.287  -9.404 -22.060  0.00  0.00    +0.150 C 
ATOM     28  C   UNL     1      32.075  -8.972 -20.756  0.00  0.00    +0.071 C 
ATOM     29  C   UNL     1      33.035  -8.622 -22.933  0.00  0.00    +0.058 C 
ATOM     30  C   UNL     1      32.629  -7.759 -20.377  0.00  0.00    +0.128 C 
ATOM     31  C   UNL     1      33.546  -7.425 -22.456  0.00  0.00    +0.103 C 
ATOM     32  H   UNL     1      32.779  -6.478 -18.731  0.00  0.00    +0.144 HD
ATOM     33  H   UNL     1      31.873  -7.892 -18.431  0.00  0.00    +0.144 HD
ENDBRANCH  24  27
ENDBRANCH   3  24
TORSDOF 5
ENDMDL
MODEL 2
REMARK VINA RESULT:     -12.1      1.107      1.682
REMARK  Name = 17748441
REMARK  5 active torsions:
REMARK  status: ('A' for Active; 'I' for Inactive)
REMARK    1  A    between atoms: C_2  and  N_10
REMARK    2  A    between atoms: C_3  and  O_24
REMARK    3  A    between atoms: C_12  and  C_16
REMARK    4  A    between atoms: C_16  and  C_18
REMARK    5  A    between atoms: O_24  and  C_27
REMARK                            x       y       z     vdW  Elec       q    Type
REMARK                         _______ _______ _______ _____ _____    ______ ____
ROOT
ATOM      1  F   UNL     1      30.804 -11.566 -20.727  0.00  0.00    -0.201 F 
ATOM      2  C   UNL     1      33.667 -13.464 -21.924  0.00  0.00    +0.054 C 
ATOM      3  C   UNL     1      32.283 -11.118 -22.527  0.00  0.00    +0.173 C 
ATOM      4  C   UNL     1      32.559 -13.092 -21.163  0.00  0.00    +0.047 C 
ATOM      5  C   UNL     1      34.082 -12.663 -22.988  0.00  0.00    +0.018 C 
ATOM      6  C   UNL     1      31.868 -11.919 -21.464  0.00  0.00    +0.176 C 
ATOM      7  C   UNL     1      33.390 -11.490 -23.289  0.00  0.00    +0.041 C 
ENDROOT
BRANCH   2  10
ATOM      8  O   UNL     1      35.430 -18.393 -23.405  0.00  0.00    -0.274 OA
ATOM      9  O   UNL     1      34.158 -15.913 -23.591  0.00  0.00    -0.252 OA
ATOM     10  N   UNL     1      34.368 -14.654 -21.619  0.00  0.00    -0.268 N 
ATOM     11  N   UNL     1      35.319 -16.744 -21.760  0.00  0.00    -0.239 N 
ATOM     12  C   UNL     1      35.701 -17.984 -22.279  0.00  0.00    +0.234 C 
ATOM     13  C   UNL     1      34.565 -15.768 -22.442  0.00  0.00    +0.310 C 
ATOM     14  H   UNL     1      34.765 -14.703 -20.719  0.00  0.00    +0.156 HD
ATOM     15  H   UNL     1      35.601 -16.535 -20.839  0.00  0.00    +0.159 HD
BRANCH  12  16
ATOM     16  C   UNL     1      36.504 -18.780 -21.269  0.00  0.00    +0.112 C 
BRANCH  16  18
ATOM     17  F   UNL     1      33.413 -22.539 -18.427  0.00  0.00    -0.204 F 
ATOM     18  C   UNL     1      35.678 -19.785 -20.510  0.00  0.00    -0.013 C 
ATOM     19  C   UNL     1      34.293 -19.809 -20.666  0.00  0.00    -0.001 C 
ATOM     20  C   UNL     1      36.298 -20.692 -19.650  0.00  0.00    -0.001 C 
ATOM     21  C   UNL     1      33.527 -20.740 -19.962  0.00  0.00    +0.029 C 
ATOM     22  C   UNL     1      35.534 -21.621 -18.946  0.00  0.00    +0.029 C 
ATOM     23  C   UNL     1      34.148 -21.646 -19.102  0.00  0.00    +0.140 C 
ENDBRANCH  16  18
ENDBRANCH  12  16
ENDBRANCH   2  10
BRANCH   3  24
ATOM     24  O   UNL     1      31.607  -9.974 -22.823  0.00  0.00    -0.451 OA
BRANCH  24  27
ATOM     25  N   UNL     1      33.216  -6.363 -21.466  0.00  0.00    -0.229 NA
ATOM     26  N   UNL     1      33.109  -7.173 -19.228  0.00  0.00    -0.343 N 
ATOM     27  C   UNL     1      32.140  -8.777 -22.373  0.00  0.00    +0.150 C 
ATOM     28  C   UNL     1      32.357  -8.577 -21.014  0.00  0.00    +0.071 C 
ATOM     29  C   UNL     1      32.460  -7.772 -23.278  0.00  0.00    +0.058 C 
ATOM     30  C   UNL     1      32.893  -7.362 -20.616  0.00  0.00    +0.128 C 
ATOM     31  C   UNL     1      32.990  -6.594 -22.779  0.00  0.00    +0.103 C 
ATOM     32  H   UNL     1      33.487  -6.326 -18.900  0.00  0.00    +0.144 HD
ATOM     33  H   UNL     1      32.880  -7.889 -18.592  0.00  0.00    +0.144 HD
ENDBRANCH  24  27
ENDBRANCH   3  24
TORSDOF 5
ENDMDL
MODEL 3
REMARK VINA RESULT:     -11.8      4.059     10.701
REMARK  Name = 17748441
REMARK  5 active torsions:
REMARK  status: ('A' for Active; 'I' for Inactive)
REMARK    1  A    between atoms: C_2  and  N_10
REMARK    2  A    between atoms: C_3  and  O_24
REMARK    3  A    between atoms: C_12  and  C_16
REMARK    4  A    between atoms: C_16  and  C_18
REMARK    5  A    between atoms: O_24  and  C_27
REMARK                            x       y       z     vdW  Elec       q    Type
REMARK                         _______ _______ _______ _____ _____    ______ ____
ROOT
ATOM      1  F   UNL     1      36.658 -22.278 -18.353  0.00  0.00    -0.201 F 
ATOM      2  C   UNL     1      34.567 -19.992 -20.260  0.00  0.00    +0.054 C 
ATOM      3  C   UNL     1      34.323 -22.341 -18.775  0.00  0.00    +0.173 C 
ATOM      4  C   UNL     1      35.693 -20.562 -19.666  0.00  0.00    +0.047 C 
ATOM      5  C   UNL     1      33.319 -20.598 -20.112  0.00  0.00    +0.018 C 
ATOM      6  C   UNL     1      35.571 -21.736 -18.923  0.00  0.00    +0.176 C 
ATOM      7  C   UNL     1      33.198 -21.772 -19.369  0.00  0.00    +0.041 C 
ENDROOT
BRANCH   2  10
ATOM      8  O   UNL     1      34.655 -17.466 -25.078  0.00  0.00    -0.274 OA
ATOM      9  O   UNL     1      34.466 -19.552 -23.229  0.00  0.00    -0.252 OA
ATOM     10  N   UNL     1      34.690 -18.802 -21.015  0.00  0.00    -0.268 N 
ATOM     11  N   UNL     1      34.802 -17.303 -22.756  0.00  0.00    -0.239 N 
ATOM     12  C   UNL     1      34.803 -16.797 -24.059  0.00  0.00    +0.234 C 
ATOM     13  C   UNL     1      34.634 -18.657 -22.404  0.00  0.00    +0.310 C 
ATOM     14  H   UNL     1      34.834 -17.975 -20.497  0.00  0.00    +0.156 HD
ATOM     15  H   UNL     1      34.931 -16.659 -22.022  0.00  0.00    +0.159 HD
BRANCH  12  16
ATOM     16  C   UNL     1      35.011 -15.295 -24.065  0.00  0.00    +0.112 C 
BRANCH  16  18
ATOM     17  F   UNL     1      32.089 -12.617 -20.060  0.00  0.00    -0.204 F 
ATOM     18  C   UNL     1      34.230 -14.580 -22.995  0.00  0.00    -0.013 C 
ATOM     19  C   UNL     1      33.202 -13.706 -23.348  0.00  0.00    -0.001 C 
ATOM     20  C   UNL     1      34.534 -14.790 -21.650  0.00  0.00    -0.001 C 
ATOM     21  C   UNL     1      32.479 -13.043 -22.356  0.00  0.00    +0.029 C 
ATOM     22  C   UNL     1      33.812 -14.127 -20.659  0.00  0.00    +0.029 C 
ATOM     23  C   UNL     1      32.783 -13.254 -21.011  0.00  0.00    +0.140 C 
ENDBRANCH  16  18
ENDBRANCH  12  16
ENDBRANCH   2  10
BRANCH   3  24
ATOM     24  O   UNL     1      34.205 -23.488 -18.051  0.00  0.00    -0.451 OA
BRANCH  24  27
ATOM     25  N   UNL     1      32.646 -23.191 -14.184  0.00  0.00    -0.229 NA
ATOM     26  N   UNL     1      34.843 -23.443 -13.296  0.00  0.00    -0.343 N 
ATOM     27  C   UNL     1      33.689 -23.390 -16.770  0.00  0.00    +0.150 C 
ATOM     28  C   UNL     1      34.534 -23.467 -15.669  0.00  0.00    +0.071 C 
ATOM     29  C   UNL     1      32.323 -23.214 -16.580  0.00  0.00    +0.058 C 
ATOM     30  C   UNL     1      33.968 -23.362 -14.408  0.00  0.00    +0.128 C 
ATOM     31  C   UNL     1      31.856 -23.120 -15.278  0.00  0.00    +0.103 C 
ATOM     32  H   UNL     1      34.484 -23.373 -12.382  0.00  0.00    +0.144 HD
ATOM     33  H   UNL     1      35.809 -23.567 -13.438  0.00  0.00    +0.144 HD
ENDBRANCH  24  27
ENDBRANCH   3  24
TORSDOF 5
ENDMDL
MODEL 4
REMARK VINA RESULT:     -11.8      2.947     10.912
REMARK  Name = 17748441
REMARK  5 active torsions:
REMARK  status: ('A' for Active; 'I' for Inactive)
REMARK    1  A    between atoms: C_2  and  N_10
REMARK    2  A    between atoms: C_3  and  O_24
REMARK    3  A    between atoms: C_12  and  C_16
REMARK    4  A    between atoms: C_16  and  C_18
REMARK    5  A    between atoms: O_24  and  C_27
REMARK                            x       y       z     vdW  Elec       q    Type
REMARK                         _______ _______ _______ _____ _____    ______ ____
ROOT
ATOM      1  F   UNL     1      34.966 -19.999 -23.582  0.00  0.00    -0.201 F 
ATOM      2  C   UNL     1      35.085 -16.518 -22.533  0.00  0.00    +0.054 C 
ATOM      3  C   UNL     1      35.504 -19.063 -21.470  0.00  0.00    +0.173 C 
ATOM      4  C   UNL     1      34.917 -17.647 -23.336  0.00  0.00    +0.047 C 
ATOM      5  C   UNL     1      35.462 -16.664 -21.198  0.00  0.00    +0.018 C 
ATOM      6  C   UNL     1      35.127 -18.919 -22.805  0.00  0.00    +0.176 C 
ATOM      7  C   UNL     1      35.672 -17.936 -20.666  0.00  0.00    +0.041 C 
ENDROOT
BRANCH   2  10
ATOM      8  O   UNL     1      32.658 -11.657 -22.270  0.00  0.00    -0.274 OA
ATOM      9  O   UNL     1      33.357 -14.265 -21.556  0.00  0.00    -0.252 OA
ATOM     10  N   UNL     1      34.872 -15.228 -23.071  0.00  0.00    -0.268 N 
ATOM     11  N   UNL     1      34.118 -13.080 -23.403  0.00  0.00    -0.239 N 
ATOM     12  C   UNL     1      33.423 -11.884 -23.203  0.00  0.00    +0.234 C 
ATOM     13  C   UNL     1      34.050 -14.214 -22.569  0.00  0.00    +0.310 C 
ATOM     14  H   UNL     1      35.361 -15.019 -23.901  0.00  0.00    +0.156 HD
ATOM     15  H   UNL     1      34.703 -13.136 -24.194  0.00  0.00    +0.159 HD
BRANCH  12  16
ATOM     16  C   UNL     1      33.733 -10.879 -24.297  0.00  0.00    +0.112 C 
BRANCH  16  18
ATOM     17  F   UNL     1      33.484  -5.528 -22.548  0.00  0.00    -0.204 F 
ATOM     18  C   UNL     1      33.666  -9.449 -23.829  0.00  0.00    -0.013 C 
ATOM     19  C   UNL     1      32.430  -8.853 -23.582  0.00  0.00    -0.001 C 
ATOM     20  C   UNL     1      34.841  -8.720 -23.643  0.00  0.00    -0.001 C 
ATOM     21  C   UNL     1      32.369  -7.529 -23.149  0.00  0.00    +0.029 C 
ATOM     22  C   UNL     1      34.780  -7.396 -23.211  0.00  0.00    +0.029 C 
ATOM     23  C   UNL     1      33.543  -6.800 -22.963  0.00  0.00    +0.140 C 
ENDBRANCH  16  18
ENDBRANCH  12  16
ENDBRANCH   2  10
BRANCH   3  24
ATOM     24  O   UNL     1      35.707 -20.305 -20.950  0.00  0.00    -0.451 OA
BRANCH  24  27
ATOM     25  N   UNL     1      32.799 -21.824 -18.362  0.00  0.00    -0.229 NA
ATOM     26  N   UNL     1      34.506 -22.917 -17.109  0.00  0.00    -0.343 N 
ATOM     27  C   UNL     1      34.744 -20.809 -20.093  0.00  0.00    +0.150 C 
ATOM     28  C   UNL     1      35.114 -21.617 -19.023  0.00  0.00    +0.071 C 
ATOM     29  C   UNL     1      33.402 -20.508 -20.297  0.00  0.00    +0.058 C 
ATOM     30  C   UNL     1      34.112 -22.095 -18.194  0.00  0.00    +0.128 C 
ATOM     31  C   UNL     1      32.476 -21.036 -19.411  0.00  0.00    +0.103 C 
ATOM     32  H   UNL     1      33.827 -23.279 -16.494  0.00  0.00    +0.144 HD
ATOM     33  H   UNL     1      35.458 -23.126 -16.970  0.00  0.00    +0.144 HD
ENDBRANCH  24  27
ENDBRANCH   3  24
TORSDOF 5
ENDMDL
MODEL 5
REMARK VINA RESULT:     -11.8      5.879      9.397
REMARK  Name = 17748441
REMARK  5 active torsions:
REMARK  status: ('A' for Active; 'I' for Inactive)
REMARK    1  A    between atoms: C_2  and  N_10
REMARK    2  A    between atoms: C_3  and  O_24
REMARK    3  A    between atoms: C_12  and  C_16
REMARK    4  A    between atoms: C_16  and  C_18
REMARK    5  A    between atoms: O_24  and  C_27
REMARK                            x       y       z     vdW  Elec       q    Type
REMARK                         _______ _______ _______ _____ _____    ______ ____
ROOT
ATOM      1  F   UNL     1      36.926 -21.531 -19.472  0.00  0.00    -0.201 F 
ATOM      2  C   UNL     1      33.374 -21.755 -18.722  0.00  0.00    +0.054 C 
ATOM      3  C   UNL     1      35.094 -20.348 -20.408  0.00  0.00    +0.173 C 
ATOM      4  C   UNL     1      34.747 -21.996 -18.676  0.00  0.00    +0.047 C 
ATOM      5  C   UNL     1      32.861 -20.810 -19.610  0.00  0.00    +0.018 C 
ATOM      6  C   UNL     1      35.607 -21.293 -19.519  0.00  0.00    +0.176 C 
ATOM      7  C   UNL     1      33.721 -20.106 -20.453  0.00  0.00    +0.041 C 
ENDROOT
BRANCH   2  10
ATOM      8  O   UNL     1      32.514 -24.477 -14.091  0.00  0.00    -0.274 OA
ATOM      9  O   UNL     1      33.880 -23.028 -16.049  0.00  0.00    -0.252 OA
ATOM     10  N   UNL     1      32.501 -22.468 -17.866  0.00  0.00    -0.268 N 
ATOM     11  N   UNL     1      31.646 -23.663 -16.096  0.00  0.00    -0.239 N 
ATOM     12  C   UNL     1      31.579 -24.336 -14.873  0.00  0.00    +0.234 C 
ATOM     13  C   UNL     1      32.795 -23.042 -16.626  0.00  0.00    +0.310 C 
ATOM     14  H   UNL     1      31.574 -22.573 -18.185  0.00  0.00    +0.156 HD
ATOM     15  H   UNL     1      30.822 -23.620 -16.634  0.00  0.00    +0.159 HD
BRANCH  12  16
ATOM     16  C   UNL     1      30.186 -24.882 -14.622  0.00  0.00    +0.112 C 
BRANCH  16  18
ATOM     17  F   UNL     1      26.113 -21.745 -16.928  0.00  0.00    -0.204 F 
ATOM     18  C   UNL     1      29.097 -24.044 -15.238  0.00  0.00    -0.013 C 
ATOM     19  C   UNL     1      28.599 -24.366 -16.500  0.00  0.00    -0.001 C 
ATOM     20  C   UNL     1      28.587 -22.944 -14.548  0.00  0.00    -0.001 C 
ATOM     21  C   UNL     1      27.590 -23.590 -17.071  0.00  0.00    +0.029 C 
ATOM     22  C   UNL     1      27.580 -22.167 -15.119  0.00  0.00    +0.029 C 
ATOM     23  C   UNL     1      27.080 -22.490 -16.380  0.00  0.00    +0.140 C 
ENDBRANCH  16  18
ENDBRANCH  12  16
ENDBRANCH   2  10
BRANCH   3  24
ATOM     24  O   UNL     1      35.933 -19.660 -21.229  0.00  0.00    -0.451 OA
BRANCH  24  27
ATOM     25  N   UNL     1      34.232 -17.494 -24.373  0.00  0.00    -0.229 NA
ATOM     26  N   UNL     1      34.918 -15.465 -23.327  0.00  0.00    -0.343 N 
ATOM     27  C   UNL     1      35.369 -18.942 -22.270  0.00  0.00    +0.150 C 
ATOM     28  C   UNL     1      35.429 -17.553 -22.273  0.00  0.00    +0.071 C 
ATOM     29  C   UNL     1      34.742 -19.607 -23.317  0.00  0.00    +0.058 C 
ATOM     30  C   UNL     1      34.850 -16.881 -23.338  0.00  0.00    +0.128 C 
ATOM     31  C   UNL     1      34.193 -18.844 -24.336  0.00  0.00    +0.103 C 
ATOM     32  H   UNL     1      34.521 -14.948 -24.063  0.00  0.00    +0.144 HD
ATOM     33  H   UNL     1      35.365 -15.001 -22.582  0.00  0.00    +0.144 HD
ENDBRANCH  24  27
ENDBRANCH   3  24
TORSDOF 5
ENDMDL
MODEL 6
REMARK VINA RESULT:     -11.6      1.845      2.604
REMARK  Name = 17748441
REMARK  5 active torsions:
REMARK  status: ('A' for Active; 'I' for Inactive)
REMARK    1  A    between atoms: C_2  and  N_10
REMARK    2  A    between atoms: C_3  and  O_24
REMARK    3  A    between atoms: C_12  and  C_16
REMARK    4  A    between atoms: C_16  and  C_18
REMARK    5  A    between atoms: O_24  and  C_27
REMARK                            x       y       z     vdW  Elec       q    Type
REMARK                         _______ _______ _______ _____ _____    ______ ____
ROOT
ATOM      1  F   UNL     1      30.728 -10.465 -21.680  0.00  0.00    -0.201 F 
ATOM      2  C   UNL     1      33.445 -12.513 -22.966  0.00  0.00    +0.054 C 
ATOM      3  C   UNL     1      32.466  -9.912 -23.198  0.00  0.00    +0.173 C 
ATOM      4  C   UNL     1      32.309 -12.129 -22.253  0.00  0.00    +0.047 C 
ATOM      5  C   UNL     1      34.091 -11.595 -23.795  0.00  0.00    +0.018 C 
ATOM      6  C   UNL     1      31.820 -10.828 -22.369  0.00  0.00    +0.176 C 
ATOM      7  C   UNL     1      33.601 -10.295 -23.911  0.00  0.00    +0.041 C 
ENDROOT
BRANCH   2  10
ATOM      8  O   UNL     1      35.286 -16.587 -19.866  0.00  0.00    -0.274 OA
ATOM      9  O   UNL     1      34.285 -14.067 -20.537  0.00  0.00    -0.252 OA
ATOM     10  N   UNL     1      33.942 -13.832 -22.849  0.00  0.00    -0.268 N 
ATOM     11  N   UNL     1      34.761 -15.807 -22.000  0.00  0.00    -0.239 N 
ATOM     12  C   UNL     1      35.213 -16.756 -21.080  0.00  0.00    +0.234 C 
ATOM     13  C   UNL     1      34.319 -14.507 -21.684  0.00  0.00    +0.310 C 
ATOM     14  H   UNL     1      34.034 -14.335 -23.691  0.00  0.00    +0.156 HD
ATOM     15  H   UNL     1      34.752 -16.068 -22.950  0.00  0.00    +0.159 HD
BRANCH  12  16
ATOM     16  C   UNL     1      35.612 -18.047 -21.771  0.00  0.00    +0.112 C 
BRANCH  16  18
ATOM     17  F   UNL     1      35.071 -22.594 -18.487  0.00  0.00    -0.204 F 
ATOM     18  C   UNL     1      35.467 -19.262 -20.894  0.00  0.00    -0.013 C 
ATOM     19  C   UNL     1      34.206 -19.812 -20.667  0.00  0.00    -0.001 C 
ATOM     20  C   UNL     1      36.595 -19.838 -20.308  0.00  0.00    -0.001 C 
ATOM     21  C   UNL     1      34.072 -20.938 -19.854  0.00  0.00    +0.029 C 
ATOM     22  C   UNL     1      36.461 -20.963 -19.494  0.00  0.00    +0.029 C 
ATOM     23  C   UNL     1      35.200 -21.513 -19.268  0.00  0.00    +0.140 C 
ENDBRANCH  16  18
ENDBRANCH  12  16
ENDBRANCH   2  10
BRANCH   3  24
ATOM     24  O   UNL     1      31.987  -8.642 -23.312  0.00  0.00    -0.451 OA
BRANCH  24  27
ATOM     25  N   UNL     1      32.294  -6.143 -19.976  0.00  0.00    -0.229 NA
ATOM     26  N   UNL     1      30.778  -4.616 -20.999  0.00  0.00    -0.343 N 
ATOM     27  C   UNL     1      32.089  -7.814 -22.207  0.00  0.00    +0.150 C 
ATOM     28  C   UNL     1      31.375  -6.621 -22.160  0.00  0.00    +0.071 C 
ATOM     29  C   UNL     1      32.904  -8.171 -21.140  0.00  0.00    +0.058 C 
ATOM     30  C   UNL     1      31.511  -5.828 -21.032  0.00  0.00    +0.128 C 
ATOM     31  C   UNL     1      32.972  -7.309 -20.057  0.00  0.00    +0.103 C 
ATOM     32  H   UNL     1      30.844  -4.022 -20.218  0.00  0.00    +0.144 HD
ATOM     33  H   UNL     1      30.202  -4.369 -21.759  0.00  0.00    +0.144 HD
ENDBRANCH  24  27
ENDBRANCH   3  24
TORSDOF 5
ENDMDL
MODEL 7
REMARK VINA RESULT:     -11.4      5.216     12.701
REMARK  Name = 17748441
REMARK  5 active torsions:
REMARK  status: ('A' for Active; 'I' for Inactive)
REMARK    1  A    between atoms: C_2  and  N_10
REMARK    2  A    between atoms: C_3  and  O_24
REMARK    3  A    between atoms: C_12  and  C_16
REMARK    4  A    between atoms: C_16  and  C_18
REMARK    5  A    between atoms: O_24  and  C_27
REMARK                            x       y       z     vdW  Elec       q    Type
REMARK                         _______ _______ _______ _____ _____    ______ ____
ROOT
ATOM      1  F   UNL     1      33.763 -23.941 -15.945  0.00  0.00    -0.201 F 
ATOM      2  C   UNL     1      36.112 -21.742 -17.641  0.00  0.00    +0.054 C 
ATOM      3  C   UNL     1      35.960 -23.291 -15.326  0.00  0.00    +0.173 C 
ATOM      4  C   UNL     1      34.954 -22.469 -17.363  0.00  0.00    +0.047 C 
ATOM      5  C   UNL     1      37.193 -21.790 -16.761  0.00  0.00    +0.018 C 
ATOM      6  C   UNL     1      34.878 -23.243 -16.205  0.00  0.00    +0.176 C 
ATOM      7  C   UNL     1      37.117 -22.564 -15.603  0.00  0.00    +0.041 C 
ENDROOT
BRANCH   2  10
ATOM      8  O   UNL     1      33.752 -19.701 -22.097  0.00  0.00    -0.274 OA
ATOM      9  O   UNL     1      34.029 -21.137 -19.718  0.00  0.00    -0.252 OA
ATOM     10  N   UNL     1      36.190 -20.956 -18.815  0.00  0.00    -0.268 N 
ATOM     11  N   UNL     1      35.666 -19.875 -20.776  0.00  0.00    -0.239 N 
ATOM     12  C   UNL     1      34.928 -19.427 -21.875  0.00  0.00    +0.234 C 
ATOM     13  C   UNL     1      35.180 -20.709 -19.750  0.00  0.00    +0.310 C 
ATOM     14  H   UNL     1      37.061 -20.533 -18.995  0.00  0.00    +0.156 HD
ATOM     15  H   UNL     1      36.605 -19.583 -20.714  0.00  0.00    +0.159 HD
BRANCH  12  16
ATOM     16  C   UNL     1      35.769 -18.547 -22.780  0.00  0.00    +0.112 C 
BRANCH  16  18
ATOM     17  F   UNL     1      33.374 -13.571 -23.900  0.00  0.00    -0.204 F 
ATOM     18  C   UNL     1      35.130 -17.216 -23.080  0.00  0.00    -0.013 C 
ATOM     19  C   UNL     1      35.087 -16.227 -22.099  0.00  0.00    -0.001 C 
ATOM     20  C   UNL     1      34.579 -16.974 -24.339  0.00  0.00    -0.001 C 
ATOM     21  C   UNL     1      34.494 -14.995 -22.376  0.00  0.00    +0.029 C 
ATOM     22  C   UNL     1      33.985 -15.743 -24.615  0.00  0.00    +0.029 C 
ATOM     23  C   UNL     1      33.943 -14.753 -23.634  0.00  0.00    +0.140 C 
ENDBRANCH  16  18
ENDBRANCH  12  16
ENDBRANCH   2  10
BRANCH   3  24
ATOM     24  O   UNL     1      35.885 -24.045 -14.195  0.00  0.00    -0.451 OA
BRANCH  24  27
ATOM     25  N   UNL     1      39.238 -26.308 -13.145  0.00  0.00    -0.229 NA
ATOM     26  N   UNL     1      39.107 -27.445 -15.235  0.00  0.00    -0.343 N 
ATOM     27  C   UNL     1      36.995 -24.795 -13.847  0.00  0.00    +0.150 C 
ATOM     28  C   UNL     1      37.496 -25.751 -14.725  0.00  0.00    +0.071 C 
ATOM     29  C   UNL     1      37.616 -24.595 -12.619  0.00  0.00    +0.058 C 
ATOM     30  C   UNL     1      38.609 -26.474 -14.329  0.00  0.00    +0.128 C 
ATOM     31  C   UNL     1      38.724 -25.370 -12.318  0.00  0.00    +0.103 C 
ATOM     32  H   UNL     1      39.896 -27.982 -14.996  0.00  0.00    +0.144 HD
ATOM     33  H   UNL     1      38.663 -27.581 -16.103  0.00  0.00    +0.144 HD
ENDBRANCH  24  27
ENDBRANCH   3  24
TORSDOF 5
ENDMDL
MODEL 8
REMARK VINA RESULT:     -11.3      4.990     11.918
REMARK  Name = 17748441
REMARK  5 active torsions:
REMARK  status: ('A' for Active; 'I' for Inactive)
REMARK    1  A    between atoms: C_2  and  N_10
REMARK    2  A    between atoms: C_3  and  O_24
REMARK    3  A    between atoms: C_12  and  C_16
REMARK    4  A    between atoms: C_16  and  C_18
REMARK    5  A    between atoms: O_24  and  C_27
REMARK                            x       y       z     vdW  Elec       q    Type
REMARK                         _______ _______ _______ _____ _____    ______ ____
ROOT
ATOM      1  F   UNL     1      31.900 -23.683 -16.460  0.00  0.00    -0.201 F 
ATOM      2  C   UNL     1      34.320 -21.857 -18.470  0.00  0.00    +0.054 C 
ATOM      3  C   UNL     1      34.222 -23.343 -16.111  0.00  0.00    +0.173 C 
ATOM      4  C   UNL     1      33.112 -22.410 -18.043  0.00  0.00    +0.047 C 
ATOM      5  C   UNL     1      35.478 -22.048 -17.717  0.00  0.00    +0.018 C 
ATOM      6  C   UNL     1      33.064 -23.153 -16.864  0.00  0.00    +0.176 C 
ATOM      7  C   UNL     1      35.429 -22.791 -16.537  0.00  0.00    +0.041 C 
ENDROOT
BRANCH   2  10
ATOM      8  O   UNL     1      37.018 -18.521 -21.814  0.00  0.00    -0.274 OA
ATOM      9  O   UNL     1      36.506 -20.129 -19.588  0.00  0.00    -0.252 OA
ATOM     10  N   UNL     1      34.370 -21.103 -19.665  0.00  0.00    -0.268 N 
ATOM     11  N   UNL     1      35.071 -19.726 -21.369  0.00  0.00    -0.239 N 
ATOM     12  C   UNL     1      35.883 -18.874 -22.123  0.00  0.00    +0.234 C 
ATOM     13  C   UNL     1      35.422 -20.312 -20.137  0.00  0.00    +0.310 C 
ATOM     14  H   UNL     1      33.566 -21.139 -20.233  0.00  0.00    +0.156 HD
ATOM     15  H   UNL     1      34.178 -19.933 -21.729  0.00  0.00    +0.159 HD
BRANCH  12  16
ATOM     16  C   UNL     1      35.184 -18.430 -23.394  0.00  0.00    +0.112 C 
BRANCH  16  18
ATOM     17  F   UNL     1      33.624 -13.016 -23.307  0.00  0.00    -0.204 F 
ATOM     18  C   UNL     1      34.768 -16.983 -23.371  0.00  0.00    -0.013 C 
ATOM     19  C   UNL     1      34.976 -16.216 -22.225  0.00  0.00    -0.001 C 
ATOM     20  C   UNL     1      34.173 -16.410 -24.495  0.00  0.00    -0.001 C 
ATOM     21  C   UNL     1      34.590 -14.876 -22.204  0.00  0.00    +0.029 C 
ATOM     22  C   UNL     1      33.786 -15.070 -24.473  0.00  0.00    +0.029 C 
ATOM     23  C   UNL     1      33.995 -14.302 -23.328  0.00  0.00    +0.140 C 
ENDBRANCH  16  18
ENDBRANCH  12  16
ENDBRANCH   2  10
BRANCH   3  24
ATOM     24  O   UNL     1      34.175 -24.067 -14.959  0.00  0.00    -0.451 OA
BRANCH  24  27
ATOM     25  N   UNL     1      37.786 -24.851 -13.006  0.00  0.00    -0.229 NA
ATOM     26  N   UNL     1      37.455 -22.919 -11.651  0.00  0.00    -0.343 N 
ATOM     27  C   UNL     1      35.371 -24.327 -14.312  0.00  0.00    +0.150 C 
ATOM     28  C   UNL     1      35.814 -23.484 -13.299  0.00  0.00    +0.071 C 
ATOM     29  C   UNL     1      36.134 -25.431 -14.672  0.00  0.00    +0.058 C 
ATOM     30  C   UNL     1      37.017 -23.788 -12.682  0.00  0.00    +0.128 C 
ATOM     31  C   UNL     1      37.323 -25.648 -13.995  0.00  0.00    +0.103 C 
ATOM     32  H   UNL     1      38.304 -23.096 -11.186  0.00  0.00    +0.144 HD
ATOM     33  H   UNL     1      36.910 -22.138 -11.401  0.00  0.00    +0.144 HD
ENDBRANCH  24  27
ENDBRANCH   3  24
TORSDOF 5
ENDMDL
MODEL 9
REMARK VINA RESULT:     -11.3      2.936     11.215
REMARK  Name = 17748441
REMARK  5 active torsions:
REMARK  status: ('A' for Active; 'I' for Inactive)
REMARK    1  A    between atoms: C_2  and  N_10
REMARK    2  A    between atoms: C_3  and  O_24
REMARK    3  A    between atoms: C_12  and  C_16
REMARK    4  A    between atoms: C_16  and  C_18
REMARK    5  A    between atoms: O_24  and  C_27
REMARK                            x       y       z     vdW  Elec       q    Type
REMARK                         _______ _______ _______ _____ _____    ______ ____
ROOT
ATOM      1  F   UNL     1      34.118 -16.855 -25.266  0.00  0.00    -0.201 F 
ATOM      2  C   UNL     1      33.672 -14.222 -22.797  0.00  0.00    +0.054 C 
ATOM      3  C   UNL     1      34.966 -16.679 -23.057  0.00  0.00    +0.173 C 
ATOM      4  C   UNL     1      33.571 -14.941 -23.988  0.00  0.00    +0.047 C 
ATOM      5  C   UNL     1      34.421 -14.732 -21.736  0.00  0.00    +0.018 C 
ATOM      6  C   UNL     1      34.218 -16.170 -24.118  0.00  0.00    +0.176 C 
ATOM      7  C   UNL     1      35.067 -15.961 -21.866  0.00  0.00    +0.041 C 
ENDROOT
BRANCH   2  10
ATOM      8  O   UNL     1      33.453  -8.888 -23.845  0.00  0.00    -0.274 OA
ATOM      9  O   UNL     1      34.410 -11.512 -23.862  0.00  0.00    -0.252 OA
ATOM     10  N   UNL     1      33.016 -12.975 -22.664  0.00  0.00    -0.268 N 
ATOM     11  N   UNL     1      32.478 -10.745 -22.825  0.00  0.00    -0.239 N 
ATOM     12  C   UNL     1      32.558  -9.394 -23.174  0.00  0.00    +0.234 C 
ATOM     13  C   UNL     1      33.409 -11.739 -23.186  0.00  0.00    +0.310 C 
ATOM     14  H   UNL     1      32.182 -12.980 -22.141  0.00  0.00    +0.156 HD
ATOM     15  H   UNL     1      31.707 -11.025 -22.280  0.00  0.00    +0.159 HD
BRANCH  12  16
ATOM     16  C   UNL     1      31.386  -8.611 -22.614  0.00  0.00    +0.112 C 
BRANCH  16  18
ATOM     17  F   UNL     1      32.019  -3.028 -23.045  0.00  0.00    -0.204 F 
ATOM     18  C   UNL     1      31.556  -7.119 -22.729  0.00  0.00    -0.013 C 
ATOM     19  C   UNL     1      31.978  -6.378 -21.626  0.00  0.00    -0.001 C 
ATOM     20  C   UNL     1      31.289  -6.478 -23.939  0.00  0.00    -0.001 C 
ATOM     21  C   UNL     1      32.135  -4.996 -21.733  0.00  0.00    +0.029 C 
ATOM     22  C   UNL     1      31.445  -5.096 -24.045  0.00  0.00    +0.029 C 
ATOM     23  C   UNL     1      31.869  -4.355 -22.943  0.00  0.00    +0.140 C 
ENDBRANCH  16  18
ENDBRANCH  12  16
ENDBRANCH   2  10
BRANCH   3  24
ATOM     24  O   UNL     1      35.596 -17.879 -23.183  0.00  0.00    -0.451 OA
BRANCH  24  27
ATOM     25  N   UNL     1      36.123 -20.170 -19.727  0.00  0.00    -0.229 NA
ATOM     26  N   UNL     1      33.828 -20.803 -19.814  0.00  0.00    -0.343 N 
ATOM     27  C   UNL     1      35.770 -18.638 -22.037  0.00  0.00    +0.150 C 
ATOM     28  C   UNL     1      34.701 -19.344 -21.498  0.00  0.00    +0.071 C 
ATOM     29  C   UNL     1      37.016 -18.697 -21.423  0.00  0.00    +0.058 C 
ATOM     30  C   UNL     1      34.928 -20.089 -20.352  0.00  0.00    +0.128 C 
ATOM     31  C   UNL     1      37.139 -19.471 -20.279  0.00  0.00    +0.103 C 
ATOM     32  H   UNL     1      33.943 -21.345 -19.001  0.00  0.00    +0.144 HD
ATOM     33  H   UNL     1      32.948 -20.757 -20.255  0.00  0.00    +0.144 HD
ENDBRANCH  24  27
ENDBRANCH   3  24
TORSDOF 5
ENDMDL
