MODEL 1
REMARK VINA RESULT:     -12.2      0.000      0.000
REMARK  Name = 45268539
REMARK  6 active torsions:
REMARK  status: ('A' for Active; 'I' for Inactive)
REMARK    1  A    between atoms: N_2  and  C_22
REMARK    2  A    between atoms: N_3  and  C_7
REMARK    3  A    between atoms: N_3  and  O_12
REMARK    4  A    between atoms: C_8  and  C_14
REMARK    5  A    between atoms: C_15  and  C_16
REMARK    6  A    between atoms: C_22  and  C_26
REMARK                            x       y       z     vdW  Elec       q    Type
REMARK                         _______ _______ _______ _____ _____    ______ ____
ROOT
ATOM      1  O   UNL     1      31.915 -23.680 -16.480  0.00  0.00    -0.273 OA
ATOM      2  N   UNL     1      34.137 -23.325 -15.713  0.00  0.00    -0.253 N 
ATOM      3  C   UNL     1      35.262 -22.699 -16.283  0.00  0.00    +0.052 C 
ATOM      4  C   UNL     1      34.956 -22.207 -17.552  0.00  0.00    +0.018 C 
ATOM      5  C   UNL     1      33.053 -23.272 -16.573  0.00  0.00    +0.252 C 
ATOM      6  C   UNL     1      33.565 -22.541 -17.791  0.00  0.00    +0.202 C 
ATOM      7  C   UNL     1      35.872 -21.545 -18.342  0.00  0.00    -0.001 C 
ATOM      8  C   UNL     1      36.530 -22.539 -15.755  0.00  0.00    +0.015 C 
ATOM      9  C   UNL     1      37.154 -21.379 -17.816  0.00  0.00    -0.000 C 
ATOM     10  C   UNL     1      37.480 -21.870 -16.536  0.00  0.00    +0.001 C 
ENDROOT
BRANCH   7  11
ATOM     11  C   UNL     1      35.560 -21.032 -19.663  0.00  0.00    -0.000 C 
ATOM     12  C   UNL     1      35.593 -19.725 -20.024  0.00  0.00    -0.000 C 
BRANCH  12  13
ATOM     13  C   UNL     1      35.293 -19.205 -21.370  0.00  0.00    -0.000 C 
ATOM     14  C   UNL     1      34.597 -19.996 -22.283  0.00  0.00    -0.000 C 
ATOM     15  C   UNL     1      35.704 -17.922 -21.729  0.00  0.00    -0.000 C 
ATOM     16  C   UNL     1      34.313 -19.504 -23.558  0.00  0.00    +0.000 C 
ATOM     17  C   UNL     1      35.420 -17.430 -23.003  0.00  0.00    +0.000 C 
ATOM     18  C   UNL     1      34.725 -18.221 -23.917  0.00  0.00    +0.000 C 
ENDBRANCH  12  13
ENDBRANCH   7  11
BRANCH   6  19
ATOM     19  N   UNL     1      32.845 -22.292 -18.827  0.00  0.00    -0.075 NA
BRANCH  19  20
ATOM     20  O   UNL     1      32.075 -21.154 -18.568  0.00  0.00    -0.294 OA
ATOM     21  H   UNL     1      32.456 -20.302 -18.653  0.00  0.00    +0.238 HD
ENDBRANCH  19  20
ENDBRANCH   6  19
BRANCH   2  22
ATOM     22  C   UNL     1      34.143 -23.932 -14.405  0.00  0.00    +0.128 C 
BRANCH  22  26
ATOM     23  F   UNL     1      37.127 -27.485 -15.861  0.00  0.00    -0.204 F 
ATOM     24  O   UNL     1      35.795 -23.638 -12.167  0.00  0.00    -0.448 OA
ATOM     25  O   UNL     1      37.405 -24.545 -10.635  0.00  0.00    -0.311 OA
ATOM     26  C   UNL     1      35.360 -24.783 -14.185  0.00  0.00    +0.034 C 
ATOM     27  C   UNL     1      36.168 -24.612 -13.060  0.00  0.00    +0.138 C 
ATOM     28  C   UNL     1      37.291 -25.425 -12.861  0.00  0.00    +0.043 C 
ATOM     29  C   UNL     1      35.686 -25.755 -15.129  0.00  0.00    +0.030 C 
ATOM     30  C   UNL     1      38.145 -25.228 -11.646  0.00  0.00    +0.176 C 
ATOM     31  C   UNL     1      37.616 -26.390 -13.819  0.00  0.00    +0.031 C 
ATOM     32  C   UNL     1      36.815 -26.555 -14.949  0.00  0.00    +0.140 C 
ATOM     33  C   UNL     1      36.793 -23.376 -11.175  0.00  0.00    +0.361 C 
ENDBRANCH  22  26
ENDBRANCH   2  22
TORSDOF 6
ENDMDL
MODEL 2
REMARK VINA RESULT:     -11.1      7.528     13.349
REMARK  Name = 45268539
REMARK  6 active torsions:
REMARK  status: ('A' for Active; 'I' for Inactive)
REMARK    1  A    between atoms: N_2  and  C_22
REMARK    2  A    between atoms: N_3  and  C_7
REMARK    3  A    between atoms: N_3  and  O_12
REMARK    4  A    between atoms: C_8  and  C_14
REMARK    5  A    between atoms: C_15  and  C_16
REMARK    6  A    between atoms: C_22  and  C_26
REMARK                            x       y       z     vdW  Elec       q    Type
REMARK                         _______ _______ _______ _____ _____    ______ ____
ROOT
ATOM      1  O   UNL     1      32.796 -12.447 -20.324  0.00  0.00    -0.273 OA
ATOM      2  N   UNL     1      32.921 -12.906 -22.653  0.00  0.00    -0.253 N 
ATOM      3  C   UNL     1      33.475 -13.967 -23.396  0.00  0.00    +0.052 C 
ATOM      4  C   UNL     1      34.054 -14.908 -22.545  0.00  0.00    +0.018 C 
ATOM      5  C   UNL     1      33.109 -13.102 -21.296  0.00  0.00    +0.252 C 
ATOM      6  C   UNL     1      33.853 -14.413 -21.197  0.00  0.00    +0.202 C 
ATOM      7  C   UNL     1      34.673 -16.052 -23.001  0.00  0.00    -0.001 C 
ATOM      8  C   UNL     1      33.500 -14.150 -24.766  0.00  0.00    +0.015 C 
ATOM      9  C   UNL     1      34.702 -16.245 -24.383  0.00  0.00    -0.000 C 
ATOM     10  C   UNL     1      34.122 -15.305 -25.256  0.00  0.00    +0.001 C 
ENDROOT
BRANCH   7  11
ATOM     11  C   UNL     1      35.279 -17.034 -22.120  0.00  0.00    -0.000 C 
ATOM     12  C   UNL     1      34.735 -18.233 -21.792  0.00  0.00    -0.000 C 
BRANCH  12  13
ATOM     13  C   UNL     1      35.358 -19.238 -20.912  0.00  0.00    -0.000 C 
ATOM     14  C   UNL     1      34.583 -20.258 -20.361  0.00  0.00    -0.000 C 
ATOM     15  C   UNL     1      36.722 -19.169 -20.630  0.00  0.00    -0.000 C 
ATOM     16  C   UNL     1      35.172 -21.209 -19.527  0.00  0.00    +0.000 C 
ATOM     17  C   UNL     1      37.311 -20.119 -19.798  0.00  0.00    +0.000 C 
ATOM     18  C   UNL     1      36.536 -21.139 -19.245  0.00  0.00    +0.000 C 
ENDBRANCH  12  13
ENDBRANCH   7  11
BRANCH   6  19
ATOM     19  N   UNL     1      34.217 -14.942 -20.083  0.00  0.00    -0.075 NA
BRANCH  19  20
ATOM     20  O   UNL     1      35.198 -14.130 -19.506  0.00  0.00    -0.294 OA
ATOM     21  H   UNL     1      36.096 -14.397 -19.523  0.00  0.00    +0.238 HD
ENDBRANCH  19  20
ENDBRANCH   6  19
BRANCH   2  22
ATOM     22  C   UNL     1      32.251 -11.780 -23.256  0.00  0.00    +0.128 C 
BRANCH  22  26
ATOM     23  F   UNL     1      35.944  -9.863 -25.772  0.00  0.00    -0.204 F 
ATOM     24  O   UNL     1      32.161  -9.386 -21.813  0.00  0.00    -0.448 OA
ATOM     25  O   UNL     1      33.238  -7.394 -21.016  0.00  0.00    -0.311 OA
ATOM     26  C   UNL     1      33.193 -10.642 -23.524  0.00  0.00    +0.034 C 
ATOM     27  C   UNL     1      33.123  -9.458 -22.789  0.00  0.00    +0.138 C 
ATOM     28  C   UNL     1      34.020  -8.412 -23.040  0.00  0.00    +0.043 C 
ATOM     29  C   UNL     1      34.148 -10.777 -24.531  0.00  0.00    +0.030 C 
ATOM     30  C   UNL     1      33.932  -7.149 -22.239  0.00  0.00    +0.176 C 
ATOM     31  C   UNL     1      34.967  -8.552 -24.059  0.00  0.00    +0.031 C 
ATOM     32  C   UNL     1      35.032  -9.732 -24.801  0.00  0.00    +0.140 C 
ATOM     33  C   UNL     1      32.009  -8.069 -21.272  0.00  0.00    +0.361 C 
ENDBRANCH  22  26
ENDBRANCH   2  22
TORSDOF 6
ENDMDL
MODEL 3
REMARK VINA RESULT:     -10.8      2.520      3.392
REMARK  Name = 45268539
REMARK  6 active torsions:
REMARK  status: ('A' for Active; 'I' for Inactive)
REMARK    1  A    between atoms: N_2  and  C_22
REMARK    2  A    between atoms: N_3  and  C_7
REMARK    3  A    between atoms: N_3  and  O_12
REMARK    4  A    between atoms: C_8  and  C_14
REMARK    5  A    between atoms: C_15  and  C_16
REMARK    6  A    between atoms: C_22  and  C_26
REMARK                            x       y       z     vdW  Elec       q    Type
REMARK                         _______ _______ _______ _____ _____    ______ ____
ROOT
ATOM      1  O   UNL     1      37.694 -22.805 -15.225  0.00  0.00    -0.273 OA
ATOM      2  N   UNL     1      35.408 -23.420 -15.432  0.00  0.00    -0.253 N 
ATOM      3  C   UNL     1      34.409 -23.107 -16.374  0.00  0.00    +0.052 C 
ATOM      4  C   UNL     1      34.919 -22.264 -17.362  0.00  0.00    +0.018 C 
ATOM      5  C   UNL     1      36.604 -22.803 -15.756  0.00  0.00    +0.252 C 
ATOM      6  C   UNL     1      36.310 -22.036 -17.022  0.00  0.00    +0.202 C 
ATOM      7  C   UNL     1      34.160 -21.797 -18.415  0.00  0.00    -0.001 C 
ATOM      8  C   UNL     1      33.090 -23.517 -16.413  0.00  0.00    +0.015 C 
ATOM      9  C   UNL     1      32.827 -22.207 -18.461  0.00  0.00    -0.000 C 
ATOM     10  C   UNL     1      32.297 -23.057 -17.472  0.00  0.00    +0.001 C 
ENDROOT
BRANCH   7  11
ATOM     11  C   UNL     1      34.684 -20.918 -19.445  0.00  0.00    -0.000 C 
ATOM     12  C   UNL     1      33.936 -20.239 -20.349  0.00  0.00    -0.000 C 
BRANCH  12  13
ATOM     13  C   UNL     1      34.466 -19.333 -21.384  0.00  0.00    -0.000 C 
ATOM     14  C   UNL     1      34.073 -19.487 -22.713  0.00  0.00    -0.000 C 
ATOM     15  C   UNL     1      35.359 -18.321 -21.033  0.00  0.00    -0.000 C 
ATOM     16  C   UNL     1      34.575 -18.630 -23.693  0.00  0.00    +0.000 C 
ATOM     17  C   UNL     1      35.861 -17.464 -22.012  0.00  0.00    +0.000 C 
ATOM     18  C   UNL     1      35.470 -17.619 -23.342  0.00  0.00    +0.000 C 
ENDBRANCH  12  13
ENDBRANCH   7  11
BRANCH   6  19
ATOM     19  N   UNL     1      37.182 -21.323 -17.641  0.00  0.00    -0.075 NA
BRANCH  19  20
ATOM     20  O   UNL     1      37.597 -20.293 -16.792  0.00  0.00    -0.294 OA
ATOM     21  H   UNL     1      38.506 -20.193 -16.587  0.00  0.00    +0.238 HD
ENDBRANCH  19  20
ENDBRANCH   6  19
BRANCH   2  22
ATOM     22  C   UNL     1      35.183 -24.274 -14.291  0.00  0.00    +0.128 C 
BRANCH  22  26
ATOM     23  F   UNL     1      37.441 -22.568 -10.336  0.00  0.00    -0.204 F 
ATOM     24  O   UNL     1      37.365 -25.988 -14.640  0.00  0.00    -0.448 OA
ATOM     25  O   UNL     1      39.677 -26.517 -14.267  0.00  0.00    -0.311 OA
ATOM     26  C   UNL     1      36.357 -24.284 -13.356  0.00  0.00    +0.034 C 
ATOM     27  C   UNL     1      37.431 -25.152 -13.553  0.00  0.00    +0.138 C 
ATOM     28  C   UNL     1      38.526 -25.138 -12.681  0.00  0.00    +0.043 C 
ATOM     29  C   UNL     1      36.364 -23.411 -12.268  0.00  0.00    +0.030 C 
ATOM     30  C   UNL     1      39.672 -26.076 -12.910  0.00  0.00    +0.176 C 
ATOM     31  C   UNL     1      38.519 -24.267 -11.587  0.00  0.00    +0.031 C 
ATOM     32  C   UNL     1      37.441 -23.405 -11.382  0.00  0.00    +0.140 C 
ATOM     33  C   UNL     1      38.384 -26.993 -14.637  0.00  0.00    +0.361 C 
ENDBRANCH  22  26
ENDBRANCH   2  22
TORSDOF 6
ENDMDL
MODEL 4
REMARK VINA RESULT:     -10.7      1.896      2.665
REMARK  Name = 45268539
REMARK  6 active torsions:
REMARK  status: ('A' for Active; 'I' for Inactive)
REMARK    1  A    between atoms: N_2  and  C_22
REMARK    2  A    between atoms: N_3  and  C_7
REMARK    3  A    between atoms: N_3  and  O_12
REMARK    4  A    between atoms: C_8  and  C_14
REMARK    5  A    between atoms: C_15  and  C_16
REMARK    6  A    between atoms: C_22  and  C_26
REMARK                            x       y       z     vdW  Elec       q    Type
REMARK                         _______ _______ _______ _____ _____    ______ ____
ROOT
ATOM      1  O   UNL     1      37.642 -22.890 -15.499  0.00  0.00    -0.273 OA
ATOM      2  N   UNL     1      35.340 -23.458 -15.676  0.00  0.00    -0.253 N 
ATOM      3  C   UNL     1      34.321 -23.074 -16.570  0.00  0.00    +0.052 C 
ATOM      4  C   UNL     1      34.817 -22.181 -17.520  0.00  0.00    +0.018 C 
ATOM      5  C   UNL     1      36.537 -22.840 -15.997  0.00  0.00    +0.252 C 
ATOM      6  C   UNL     1      36.221 -21.994 -17.207  0.00  0.00    +0.202 C 
ATOM      7  C   UNL     1      34.037 -21.640 -18.520  0.00  0.00    -0.001 C 
ATOM      8  C   UNL     1      32.995 -23.462 -16.595  0.00  0.00    +0.015 C 
ATOM      9  C   UNL     1      32.697 -22.027 -18.553  0.00  0.00    -0.000 C 
ATOM     10  C   UNL     1      32.180 -22.927 -17.601  0.00  0.00    +0.001 C 
ENDROOT
BRANCH   7  11
ATOM     11  C   UNL     1      34.547 -20.709 -19.511  0.00  0.00    -0.000 C 
ATOM     12  C   UNL     1      33.889 -20.321 -20.632  0.00  0.00    -0.000 C 
BRANCH  12  13
ATOM     13  C   UNL     1      34.399 -19.363 -21.629  0.00  0.00    -0.000 C 
ATOM     14  C   UNL     1      35.318 -18.384 -21.250  0.00  0.00    -0.000 C 
ATOM     15  C   UNL     1      33.964 -19.436 -22.952  0.00  0.00    -0.000 C 
ATOM     16  C   UNL     1      35.800 -17.477 -22.194  0.00  0.00    +0.000 C 
ATOM     17  C   UNL     1      34.446 -18.529 -23.895  0.00  0.00    +0.000 C 
ATOM     18  C   UNL     1      35.364 -17.549 -23.516  0.00  0.00    +0.000 C 
ENDBRANCH  12  13
ENDBRANCH   7  11
BRANCH   6  19
ATOM     19  N   UNL     1      37.087 -21.258 -17.807  0.00  0.00    -0.075 NA
BRANCH  19  20
ATOM     20  O   UNL     1      37.597 -20.335 -16.890  0.00  0.00    -0.294 OA
ATOM     21  H   UNL     1      38.456 -20.455 -16.533  0.00  0.00    +0.238 HD
ENDBRANCH  19  20
ENDBRANCH   6  19
BRANCH   2  22
ATOM     22  C   UNL     1      35.133 -24.375 -14.582  0.00  0.00    +0.128 C 
BRANCH  22  26
ATOM     23  F   UNL     1      38.788 -27.563 -14.929  0.00  0.00    -0.204 F 
ATOM     24  O   UNL     1      36.413 -23.349 -12.317  0.00  0.00    -0.448 OA
ATOM     25  O   UNL     1      37.928 -23.630 -10.476  0.00  0.00    -0.311 OA
ATOM     26  C   UNL     1      36.426 -24.935 -14.065  0.00  0.00    +0.034 C 
ATOM     27  C   UNL     1      37.043 -24.401 -12.933  0.00  0.00    +0.138 C 
ATOM     28  C   UNL     1      38.241 -24.946 -12.454  0.00  0.00    +0.043 C 
ATOM     29  C   UNL     1      37.017 -26.005 -14.737  0.00  0.00    +0.030 C 
ATOM     30  C   UNL     1      38.889 -24.362 -11.236  0.00  0.00    +0.176 C 
ATOM     31  C   UNL     1      38.833 -26.011 -13.140  0.00  0.00    +0.031 C 
ATOM     32  C   UNL     1      38.221 -26.540 -14.278  0.00  0.00    +0.140 C 
ATOM     33  C   UNL     1      37.221 -22.721 -11.316  0.00  0.00    +0.361 C 
ENDBRANCH  22  26
ENDBRANCH   2  22
TORSDOF 6
ENDMDL
MODEL 5
REMARK VINA RESULT:     -10.5      1.742      2.281
REMARK  Name = 45268539
REMARK  6 active torsions:
REMARK  status: ('A' for Active; 'I' for Inactive)
REMARK    1  A    between atoms: N_2  and  C_22
REMARK    2  A    between atoms: N_3  and  C_7
REMARK    3  A    between atoms: N_3  and  O_12
REMARK    4  A    between atoms: C_8  and  C_14
REMARK    5  A    between atoms: C_15  and  C_16
REMARK    6  A    between atoms: C_22  and  C_26
REMARK                            x       y       z     vdW  Elec       q    Type
REMARK                         _______ _______ _______ _____ _____    ______ ____
ROOT
ATOM      1  O   UNL     1      31.865 -23.760 -16.471  0.00  0.00    -0.273 OA
ATOM      2  N   UNL     1      34.100 -23.484 -15.712  0.00  0.00    -0.253 N 
ATOM      3  C   UNL     1      35.235 -22.862 -16.268  0.00  0.00    +0.052 C 
ATOM      4  C   UNL     1      34.929 -22.316 -17.515  0.00  0.00    +0.018 C 
ATOM      5  C   UNL     1      33.011 -23.374 -16.560  0.00  0.00    +0.252 C 
ATOM      6  C   UNL     1      33.530 -22.610 -17.754  0.00  0.00    +0.202 C 
ATOM      7  C   UNL     1      35.854 -21.646 -18.288  0.00  0.00    -0.001 C 
ATOM      8  C   UNL     1      36.510 -22.750 -15.745  0.00  0.00    +0.015 C 
ATOM      9  C   UNL     1      37.144 -21.528 -17.767  0.00  0.00    -0.000 C 
ATOM     10  C   UNL     1      37.469 -22.074 -16.510  0.00  0.00    +0.001 C 
ENDROOT
BRANCH   7  11
ATOM     11  C   UNL     1      35.543 -21.077 -19.586  0.00  0.00    -0.000 C 
ATOM     12  C   UNL     1      35.636 -19.763 -19.908  0.00  0.00    -0.000 C 
BRANCH  12  13
ATOM     13  C   UNL     1      35.336 -19.187 -21.231  0.00  0.00    -0.000 C 
ATOM     14  C   UNL     1      34.664 -19.948 -22.187  0.00  0.00    -0.000 C 
ATOM     15  C   UNL     1      35.724 -17.880 -21.527  0.00  0.00    -0.000 C 
ATOM     16  C   UNL     1      34.380 -19.403 -23.440  0.00  0.00    +0.000 C 
ATOM     17  C   UNL     1      35.441 -17.335 -22.778  0.00  0.00    +0.000 C 
ATOM     18  C   UNL     1      34.769 -18.096 -23.735  0.00  0.00    +0.000 C 
ENDBRANCH  12  13
ENDBRANCH   7  11
BRANCH   6  19
ATOM     19  N   UNL     1      32.807 -22.306 -18.773  0.00  0.00    -0.075 NA
BRANCH  19  20
ATOM     20  O   UNL     1      32.055 -21.170 -18.460  0.00  0.00    -0.294 OA
ATOM     21  H   UNL     1      31.442 -21.194 -17.751  0.00  0.00    +0.238 HD
ENDBRANCH  19  20
ENDBRANCH   6  19
BRANCH   2  22
ATOM     22  C   UNL     1      34.104 -24.139 -14.427  0.00  0.00    +0.128 C 
BRANCH  22  26
ATOM     23  F   UNL     1      37.506 -22.411 -11.412  0.00  0.00    -0.204 F 
ATOM     24  O   UNL     1      35.938 -26.122 -15.152  0.00  0.00    -0.448 OA
ATOM     25  O   UNL     1      38.203 -26.891 -15.347  0.00  0.00    -0.311 OA
ATOM     26  C   UNL     1      35.482 -24.216 -13.838  0.00  0.00    +0.034 C 
ATOM     27  C   UNL     1      36.375 -25.218 -14.217  0.00  0.00    +0.138 C 
ATOM     28  C   UNL     1      37.664 -25.266 -13.671  0.00  0.00    +0.043 C 
ATOM     29  C   UNL     1      35.867 -23.268 -12.890  0.00  0.00    +0.030 C 
ATOM     30  C   UNL     1      38.610 -26.348 -14.091  0.00  0.00    +0.176 C 
ATOM     31  C   UNL     1      38.037 -24.318 -12.713  0.00  0.00    +0.031 C 
ATOM     32  C   UNL     1      37.141 -23.320 -12.325  0.00  0.00    +0.140 C 
ATOM     33  C   UNL     1      36.821 -27.237 -15.310  0.00  0.00    +0.361 C 
ENDBRANCH  22  26
ENDBRANCH   2  22
TORSDOF 6
ENDMDL
MODEL 6
REMARK VINA RESULT:     -10.3      8.055     13.686
REMARK  Name = 45268539
REMARK  6 active torsions:
REMARK  status: ('A' for Active; 'I' for Inactive)
REMARK    1  A    between atoms: N_2  and  C_22
REMARK    2  A    between atoms: N_3  and  C_7
REMARK    3  A    between atoms: N_3  and  O_12
REMARK    4  A    between atoms: C_8  and  C_14
REMARK    5  A    between atoms: C_15  and  C_16
REMARK    6  A    between atoms: C_22  and  C_26
REMARK                            x       y       z     vdW  Elec       q    Type
REMARK                         _______ _______ _______ _____ _____    ______ ____
ROOT
ATOM      1  O   UNL     1      31.946 -12.041 -19.779  0.00  0.00    -0.273 OA
ATOM      2  N   UNL     1      32.346 -12.147 -22.120  0.00  0.00    -0.253 N 
ATOM      3  C   UNL     1      33.050 -13.054 -22.935  0.00  0.00    +0.052 C 
ATOM      4  C   UNL     1      33.605 -14.074 -22.162  0.00  0.00    +0.018 C 
ATOM      5  C   UNL     1      32.405 -12.528 -20.790  0.00  0.00    +0.252 C 
ATOM      6  C   UNL     1      33.229 -13.794 -20.790  0.00  0.00    +0.202 C 
ATOM      7  C   UNL     1      34.350 -15.103 -22.700  0.00  0.00    -0.001 C 
ATOM      8  C   UNL     1      33.231 -13.033 -24.305  0.00  0.00    +0.015 C 
ATOM      9  C   UNL     1      34.537 -15.089 -24.083  0.00  0.00    -0.000 C 
ATOM     10  C   UNL     1      33.984 -14.066 -24.877  0.00  0.00    +0.001 C 
ENDROOT
BRANCH   7  11
ATOM     11  C   UNL     1      34.931 -16.166 -21.901  0.00  0.00    -0.000 C 
ATOM     12  C   UNL     1      34.781 -17.493 -22.137  0.00  0.00    -0.000 C 
BRANCH  12  13
ATOM     13  C   UNL     1      35.385 -18.574 -21.336  0.00  0.00    -0.000 C 
ATOM     14  C   UNL     1      34.613 -19.667 -20.945  0.00  0.00    -0.000 C 
ATOM     15  C   UNL     1      36.729 -18.503 -20.971  0.00  0.00    -0.000 C 
ATOM     16  C   UNL     1      35.185 -20.690 -20.187  0.00  0.00    +0.000 C 
ATOM     17  C   UNL     1      37.301 -19.525 -20.213  0.00  0.00    +0.000 C 
ATOM     18  C   UNL     1      36.528 -20.618 -19.821  0.00  0.00    +0.000 C 
ENDBRANCH  12  13
ENDBRANCH   7  11
BRANCH   6  19
ATOM     19  N   UNL     1      33.513 -14.458 -19.727  0.00  0.00    -0.075 NA
BRANCH  19  20
ATOM     20  O   UNL     1      32.320 -14.909 -19.153  0.00  0.00    -0.294 OA
ATOM     21  H   UNL     1      32.314 -15.223 -18.270  0.00  0.00    +0.238 HD
ENDBRANCH  19  20
ENDBRANCH   6  19
BRANCH   2  22
ATOM     22  C   UNL     1      31.662 -10.985 -22.632  0.00  0.00    +0.128 C 
BRANCH  22  26
ATOM     23  F   UNL     1      31.814  -7.489 -19.256  0.00  0.00    -0.204 F 
ATOM     24  O   UNL     1      33.723  -9.626 -23.946  0.00  0.00    -0.448 OA
ATOM     25  O   UNL     1      34.932  -7.600 -24.384  0.00  0.00    -0.311 OA
ATOM     26  C   UNL     1      32.249  -9.708 -22.105  0.00  0.00    +0.034 C 
ATOM     27  C   UNL     1      33.279  -9.053 -22.781  0.00  0.00    +0.138 C 
ATOM     28  C   UNL     1      33.805  -7.854 -22.285  0.00  0.00    +0.043 C 
ATOM     29  C   UNL     1      31.755  -9.176 -20.914  0.00  0.00    +0.030 C 
ATOM     30  C   UNL     1      34.909  -7.164 -23.025  0.00  0.00    +0.176 C 
ATOM     31  C   UNL     1      33.311  -7.334 -21.084  0.00  0.00    +0.031 C 
ATOM     32  C   UNL     1      32.287  -7.993 -20.402  0.00  0.00    +0.140 C 
ATOM     33  C   UNL     1      34.921  -9.024 -24.446  0.00  0.00    +0.361 C 
ENDBRANCH  22  26
ENDBRANCH   2  22
TORSDOF 6
ENDMDL
MODEL 7
REMARK VINA RESULT:     -10.2      6.423     12.427
REMARK  Name = 45268539
REMARK  6 active torsions:
REMARK  status: ('A' for Active; 'I' for Inactive)
REMARK    1  A    between atoms: N_2  and  C_22
REMARK    2  A    between atoms: N_3  and  C_7
REMARK    3  A    between atoms: N_3  and  O_12
REMARK    4  A    between atoms: C_8  and  C_14
REMARK    5  A    between atoms: C_15  and  C_16
REMARK    6  A    between atoms: C_22  and  C_26
REMARK                            x       y       z     vdW  Elec       q    Type
REMARK                         _______ _______ _______ _____ _____    ______ ____
ROOT
ATOM      1  O   UNL     1      34.819 -13.707 -21.169  0.00  0.00    -0.273 OA
ATOM      2  N   UNL     1      34.261 -14.820 -23.194  0.00  0.00    -0.253 N 
ATOM      3  C   UNL     1      34.246 -16.177 -23.573  0.00  0.00    +0.052 C 
ATOM      4  C   UNL     1      34.647 -16.985 -22.508  0.00  0.00    +0.018 C 
ATOM      5  C   UNL     1      34.669 -14.680 -21.878  0.00  0.00    +0.252 C 
ATOM      6  C   UNL     1      34.929 -16.089 -21.404  0.00  0.00    +0.202 C 
ATOM      7  C   UNL     1      34.725 -18.359 -22.597  0.00  0.00    -0.001 C 
ATOM      8  C   UNL     1      33.902 -16.737 -24.789  0.00  0.00    +0.015 C 
ATOM      9  C   UNL     1      34.380 -18.932 -23.822  0.00  0.00    -0.000 C 
ATOM     10  C   UNL     1      33.973 -18.130 -24.906  0.00  0.00    +0.001 C 
ENDROOT
BRANCH   7  11
ATOM     11  C   UNL     1      35.144 -19.204 -21.494  0.00  0.00    -0.000 C 
ATOM     12  C   UNL     1      34.323 -19.994 -20.758  0.00  0.00    -0.000 C 
BRANCH  12  13
ATOM     13  C   UNL     1      34.750 -20.866 -19.649  0.00  0.00    -0.000 C 
ATOM     14  C   UNL     1      33.807 -21.627 -18.958  0.00  0.00    -0.000 C 
ATOM     15  C   UNL     1      36.096 -20.931 -19.291  0.00  0.00    -0.000 C 
ATOM     16  C   UNL     1      34.211 -22.453 -17.908  0.00  0.00    +0.000 C 
ATOM     17  C   UNL     1      36.500 -21.756 -18.243  0.00  0.00    +0.000 C 
ATOM     18  C   UNL     1      35.558 -22.517 -17.550  0.00  0.00    +0.000 C 
ENDBRANCH  12  13
ENDBRANCH   7  11
BRANCH   6  19
ATOM     19  N   UNL     1      35.331 -16.378 -20.217  0.00  0.00    -0.075 NA
BRANCH  19  20
ATOM     20  O   UNL     1      34.555 -15.663 -19.300  0.00  0.00    -0.294 OA
ATOM     21  H   UNL     1      34.100 -16.117 -18.617  0.00  0.00    +0.238 HD
ENDBRANCH  19  20
ENDBRANCH   6  19
BRANCH   2  22
ATOM     22  C   UNL     1      33.895 -13.744 -24.081  0.00  0.00    +0.128 C 
BRANCH  22  26
ATOM     23  F   UNL     1      30.776 -12.041 -20.763  0.00  0.00    -0.204 F 
ATOM     24  O   UNL     1      34.648 -11.091 -24.547  0.00  0.00    -0.448 OA
ATOM     25  O   UNL     1      34.154  -8.743 -24.472  0.00  0.00    -0.311 OA
ATOM     26  C   UNL     1      33.280 -12.591 -23.344  0.00  0.00    +0.034 C 
ATOM     27  C   UNL     1      33.677 -11.277 -23.595  0.00  0.00    +0.138 C 
ATOM     28  C   UNL     1      33.081 -10.211 -22.910  0.00  0.00    +0.043 C 
ATOM     29  C   UNL     1      32.298 -12.846 -22.387  0.00  0.00    +0.030 C 
ATOM     30  C   UNL     1      33.519  -8.807 -23.195  0.00  0.00    +0.176 C 
ATOM     31  C   UNL     1      32.106 -10.477 -21.944  0.00  0.00    +0.031 C 
ATOM     32  C   UNL     1      31.714 -11.791 -21.685  0.00  0.00    +0.140 C 
ATOM     33  C   UNL     1      35.155  -9.753 -24.577  0.00  0.00    +0.361 C 
ENDBRANCH  22  26
ENDBRANCH   2  22
TORSDOF 6
ENDMDL
MODEL 8
REMARK VINA RESULT:     -10.1      3.933      9.240
REMARK  Name = 45268539
REMARK  6 active torsions:
REMARK  status: ('A' for Active; 'I' for Inactive)
REMARK    1  A    between atoms: N_2  and  C_22
REMARK    2  A    between atoms: N_3  and  C_7
REMARK    3  A    between atoms: N_3  and  O_12
REMARK    4  A    between atoms: C_8  and  C_14
REMARK    5  A    between atoms: C_15  and  C_16
REMARK    6  A    between atoms: C_22  and  C_26
REMARK                            x       y       z     vdW  Elec       q    Type
REMARK                         _______ _______ _______ _____ _____    ______ ____
ROOT
ATOM      1  O   UNL     1      33.274 -20.219 -21.027  0.00  0.00    -0.273 OA
ATOM      2  N   UNL     1      35.374 -20.328 -19.917  0.00  0.00    -0.253 N 
ATOM      3  C   UNL     1      35.828 -21.033 -18.785  0.00  0.00    +0.052 C 
ATOM      4  C   UNL     1      34.799 -21.807 -18.248  0.00  0.00    +0.018 C 
ATOM      5  C   UNL     1      34.041 -20.605 -20.169  0.00  0.00    +0.252 C 
ATOM      6  C   UNL     1      33.638 -21.576 -19.085  0.00  0.00    +0.202 C 
ATOM      7  C   UNL     1      34.962 -22.602 -17.133  0.00  0.00    -0.001 C 
ATOM      8  C   UNL     1      37.083 -21.034 -18.206  0.00  0.00    +0.015 C 
ATOM      9  C   UNL     1      36.226 -22.608 -16.542  0.00  0.00    -0.000 C 
ATOM     10  C   UNL     1      37.276 -21.832 -17.073  0.00  0.00    +0.001 C 
ENDROOT
BRANCH   7  11
ATOM     11  C   UNL     1      33.895 -23.408 -16.568  0.00  0.00    -0.000 C 
ATOM     12  C   UNL     1      33.111 -23.046 -15.521  0.00  0.00    -0.000 C 
BRANCH  12  13
ATOM     13  C   UNL     1      32.016 -23.857 -14.958  0.00  0.00    -0.000 C 
ATOM     14  C   UNL     1      30.808 -23.972 -15.647  0.00  0.00    -0.000 C 
ATOM     15  C   UNL     1      32.189 -24.510 -13.738  0.00  0.00    -0.000 C 
ATOM     16  C   UNL     1      29.772 -24.739 -15.113  0.00  0.00    +0.000 C 
ATOM     17  C   UNL     1      31.153 -25.277 -13.206  0.00  0.00    +0.000 C 
ATOM     18  C   UNL     1      29.944 -25.391 -13.893  0.00  0.00    +0.000 C 
ENDBRANCH  12  13
ENDBRANCH   7  11
BRANCH   6  19
ATOM     19  N   UNL     1      32.457 -22.072 -18.977  0.00  0.00    -0.075 NA
BRANCH  19  20
ATOM     20  O   UNL     1      31.733 -21.301 -18.064  0.00  0.00    -0.294 OA
ATOM     21  H   UNL     1      31.781 -21.493 -17.147  0.00  0.00    +0.238 HD
ENDBRANCH  19  20
ENDBRANCH   6  19
BRANCH   2  22
ATOM     22  C   UNL     1      36.210 -19.443 -20.689  0.00  0.00    +0.128 C 
BRANCH  22  26
ATOM     23  F   UNL     1      34.556 -20.740 -25.074  0.00  0.00    -0.204 F 
ATOM     24  O   UNL     1      35.464 -16.824 -21.325  0.00  0.00    -0.448 OA
ATOM     25  O   UNL     1      34.980 -15.136 -22.962  0.00  0.00    -0.311 OA
ATOM     26  C   UNL     1      35.583 -19.080 -22.004  0.00  0.00    +0.034 C 
ATOM     27  C   UNL     1      35.219 -17.765 -22.293  0.00  0.00    +0.138 C 
ATOM     28  C   UNL     1      34.650 -17.441 -23.531  0.00  0.00    +0.043 C 
ATOM     29  C   UNL     1      35.359 -20.084 -22.946  0.00  0.00    +0.030 C 
ATOM     30  C   UNL     1      34.267 -16.022 -23.824  0.00  0.00    +0.176 C 
ATOM     31  C   UNL     1      34.419 -18.455 -24.465  0.00  0.00    +0.031 C 
ATOM     32  C   UNL     1      34.774 -19.773 -24.174  0.00  0.00    +0.140 C 
ATOM     33  C   UNL     1      34.856 -15.559 -21.606  0.00  0.00    +0.361 C 
ENDBRANCH  22  26
ENDBRANCH   2  22
TORSDOF 6
ENDMDL
MODEL 9
REMARK VINA RESULT:     -10.1      9.767     15.382
REMARK  Name = 45268539
REMARK  6 active torsions:
REMARK  status: ('A' for Active; 'I' for Inactive)
REMARK    1  A    between atoms: N_2  and  C_22
REMARK    2  A    between atoms: N_3  and  C_7
REMARK    3  A    between atoms: N_3  and  O_12
REMARK    4  A    between atoms: C_8  and  C_14
REMARK    5  A    between atoms: C_15  and  C_16
REMARK    6  A    between atoms: C_22  and  C_26
REMARK                            x       y       z     vdW  Elec       q    Type
REMARK                         _______ _______ _______ _____ _____    ______ ____
ROOT
ATOM      1  O   UNL     1      30.452 -10.780 -20.582  0.00  0.00    -0.273 OA
ATOM      2  N   UNL     1      31.557 -10.150 -22.590  0.00  0.00    -0.253 N 
ATOM      3  C   UNL     1      32.542 -10.772 -23.382  0.00  0.00    +0.052 C 
ATOM      4  C   UNL     1      32.906 -12.001 -22.831  0.00  0.00    +0.018 C 
ATOM      5  C   UNL     1      31.234 -10.935 -21.497  0.00  0.00    +0.252 C 
ATOM      6  C   UNL     1      32.107 -12.159 -21.631  0.00  0.00    +0.202 C 
ATOM      7  C   UNL     1      33.852 -12.827 -23.399  0.00  0.00    -0.001 C 
ATOM      8  C   UNL     1      33.132 -10.323 -24.549  0.00  0.00    +0.015 C 
ATOM      9  C   UNL     1      34.452 -12.382 -24.578  0.00  0.00    -0.000 C 
ATOM     10  C   UNL     1      34.097 -11.143 -25.147  0.00  0.00    +0.001 C 
ENDROOT
BRANCH   7  11
ATOM     11  C   UNL     1      34.236 -14.106 -22.830  0.00  0.00    -0.000 C 
ATOM     12  C   UNL     1      34.400 -15.257 -23.530  0.00  0.00    -0.000 C 
BRANCH  12  13
ATOM     13  C   UNL     1      34.806 -16.552 -22.955  0.00  0.00    -0.000 C 
ATOM     14  C   UNL     1      34.643 -17.724 -23.693  0.00  0.00    -0.000 C 
ATOM     15  C   UNL     1      35.356 -16.605 -21.674  0.00  0.00    -0.000 C 
ATOM     16  C   UNL     1      35.028 -18.950 -23.149  0.00  0.00    +0.000 C 
ATOM     17  C   UNL     1      35.740 -17.830 -21.130  0.00  0.00    +0.000 C 
ATOM     18  C   UNL     1      35.576 -19.003 -21.867  0.00  0.00    +0.000 C 
ENDBRANCH  12  13
ENDBRANCH   7  11
BRANCH   6  19
ATOM     19  N   UNL     1      32.099 -13.135 -20.794  0.00  0.00    -0.075 NA
BRANCH  19  20
ATOM     20  O   UNL     1      32.339 -12.624 -19.515  0.00  0.00    -0.294 OA
ATOM     21  H   UNL     1      31.728 -12.788 -18.823  0.00  0.00    +0.238 HD
ENDBRANCH  19  20
ENDBRANCH   6  19
BRANCH   2  22
ATOM     22  C   UNL     1      30.981  -8.865 -22.904  0.00  0.00    +0.128 C 
BRANCH  22  26
ATOM     23  F   UNL     1      33.286  -7.383 -18.887  0.00  0.00    -0.204 F 
ATOM     24  O   UNL     1      30.968  -6.193 -23.728  0.00  0.00    -0.448 OA
ATOM     25  O   UNL     1      31.060  -3.852 -23.203  0.00  0.00    -0.311 OA
ATOM     26  C   UNL     1      31.575  -7.764 -22.075  0.00  0.00    +0.034 C 
ATOM     27  C   UNL     1      31.556  -6.440 -22.512  0.00  0.00    +0.138 C 
ATOM     28  C   UNL     1      32.100  -5.421 -21.719  0.00  0.00    +0.043 C 
ATOM     29  C   UNL     1      32.159  -8.080 -20.848  0.00  0.00    +0.030 C 
ATOM     30  C   UNL     1      32.069  -4.004 -22.205  0.00  0.00    +0.176 C 
ATOM     31  C   UNL     1      32.694  -5.749 -20.496  0.00  0.00    +0.031 C 
ATOM     32  C   UNL     1      32.721  -7.075 -20.062  0.00  0.00    +0.140 C 
ATOM     33  C   UNL     1      31.196  -4.861 -24.201  0.00  0.00    +0.361 C 
ENDBRANCH  22  26
ENDBRANCH   2  22
TORSDOF 6
ENDMDL
