MODEL 1
REMARK VINA RESULT:     -10.9      0.000      0.000
REMARK  Name = 93184
REMARK  8 active torsions:
REMARK  status: ('A' for Active; 'I' for Inactive)
REMARK    1  A    between atoms: C_1  and  C_2
REMARK    2  A    between atoms: C_1  and  C_10
REMARK    3  A    between atoms: C_1  and  C_27
REMARK    4  A    between atoms: N_9  and  CA_18
REMARK    5  A    between atoms: CA_17  and  C_23
REMARK    6  A    between atoms: C_23  and  O_24
REMARK    7  A    between atoms: C_27  and  O_28
REMARK    8  A    between atoms: O_28  and  C_35
REMARK                            x       y       z     vdW  Elec       q    Type
REMARK                         _______ _______ _______ _____ _____    ______ ____
ROOT
ATOM      1  C   UNL     1      32.513 -23.521 -16.506  0.00  0.00    +0.198 C 
ENDROOT
BRANCH   1   2
ATOM      2  C   UNL     1      31.087 -23.612 -15.992  0.00  0.00    -0.003 C 
ATOM      3  C   UNL     1      30.692 -24.749 -15.313  0.00  0.00    -0.003 C 
ATOM      4  C   UNL     1      30.224 -22.557 -16.217  0.00  0.00    -0.003 C 
ATOM      5  C   UNL     1      29.381 -24.833 -14.841  0.00  0.00    -0.000 C 
ATOM      6  C   UNL     1      28.915 -22.641 -15.745  0.00  0.00    -0.000 C 
ATOM      7  C   UNL     1      28.493 -23.780 -15.057  0.00  0.00    -0.000 C 
ENDBRANCH   1   2
BRANCH   1  10
ATOM      8  O   UNL     1      33.039 -22.932 -14.214  0.00  0.00    -0.274 OA
ATOM      9  N   UNL     1      34.794 -23.110 -15.719  0.00  0.00    -0.296 N 
ATOM     10  C   UNL     1      33.448 -23.152 -15.353  0.00  0.00    +0.237 C 
ATOM     11  H   UNL     1      35.033 -23.300 -16.655  0.00  0.00    +0.150 HD
BRANCH   9  18
ATOM     12  S   UNL     1      35.693 -25.592 -14.151  0.00  0.00    -0.118 S 
ATOM     13  O   UNL     1      37.862 -22.433 -16.328  0.00  0.00    -0.273 OA
ATOM     14  N   UNL     1      37.617 -23.884 -14.482  0.00  0.00    -0.260 N 
ATOM     15  C   UNL     1      36.315 -23.905 -13.808  0.00  0.00    +0.151 C 
ATOM     16  C   UNL     1      37.428 -26.270 -14.170  0.00  0.00    +0.068 C 
ATOM     17  CA  UNL     1      38.254 -25.140 -14.822  0.00  0.00    +0.184 C 
ATOM     18  CA  UNL     1      35.871 -22.796 -14.771  0.00  0.00    +0.178 C 
ATOM     19  C   UNL     1      37.287 -22.903 -15.372  0.00  0.00    +0.247 C 
ATOM     20  C   UNL     1      37.824 -26.595 -12.723  0.00  0.00    +0.013 C 
ATOM     21  C   UNL     1      37.456 -27.542 -15.020  0.00  0.00    +0.013 C 
BRANCH  17  23
ATOM     22  OXT UNL     1      40.043 -24.690 -13.264  0.00  0.00    -0.248 OA
ATOM     23  C   UNL     1      39.678 -25.049 -14.374  0.00  0.00    +0.333 C 
BRANCH  23  24
ATOM     24  O   UNL     1      40.518 -25.417 -15.372  0.00  0.00    -0.479 OA
ATOM     25  H   UNL     1      40.849 -24.774 -15.968  0.00  0.00    +0.295 HD
ENDBRANCH  23  24
ENDBRANCH  17  23
ENDBRANCH   9  18
ENDBRANCH   1  10
BRANCH   1  27
ATOM     26  O   UNL     1      31.994 -21.559 -17.860  0.00  0.00    -0.249 OA
ATOM     27  C   UNL     1      32.637 -22.589 -17.705  0.00  0.00    +0.334 C 
BRANCH  27  28
ATOM     28  O   UNL     1      33.627 -23.075 -18.559  0.00  0.00    -0.424 OA
BRANCH  28  35
ATOM     29  C   UNL     1      35.695 -18.735 -22.076  0.00  0.00    +0.009 C 
ATOM     30  C   UNL     1      34.305 -19.214 -21.633  0.00  0.00    +0.026 C 
ATOM     31  C   UNL     1      36.633 -18.926 -20.875  0.00  0.00    +0.026 C 
ATOM     32  C   UNL     1      34.667 -20.250 -20.616  0.00  0.00    -0.023 C 
ATOM     33  C   UNL     1      35.989 -20.086 -20.187  0.00  0.00    -0.026 C 
ATOM     34  C   UNL     1      33.859 -21.240 -20.081  0.00  0.00    +0.033 C 
ATOM     35  C   UNL     1      34.401 -22.081 -19.107  0.00  0.00    +0.148 C 
ATOM     36  C   UNL     1      36.530 -20.908 -19.213  0.00  0.00    -0.001 C 
ATOM     37  C   UNL     1      35.727 -21.917 -18.676  0.00  0.00    +0.037 C 
ENDBRANCH  28  35
ENDBRANCH  27  28
ENDBRANCH   1  27
TORSDOF 8
ENDMDL
MODEL 2
REMARK VINA RESULT:     -10.6      2.056      6.542
REMARK  Name = 93184
REMARK  8 active torsions:
REMARK  status: ('A' for Active; 'I' for Inactive)
REMARK    1  A    between atoms: C_1  and  C_2
REMARK    2  A    between atoms: C_1  and  C_10
REMARK    3  A    between atoms: C_1  and  C_27
REMARK    4  A    between atoms: N_9  and  CA_18
REMARK    5  A    between atoms: CA_17  and  C_23
REMARK    6  A    between atoms: C_23  and  O_24
REMARK    7  A    between atoms: C_27  and  O_28
REMARK    8  A    between atoms: O_28  and  C_35
REMARK                            x       y       z     vdW  Elec       q    Type
REMARK                         _______ _______ _______ _____ _____    ______ ____
ROOT
ATOM      1  C   UNL     1      36.433 -22.846 -15.154  0.00  0.00    +0.198 C 
ENDROOT
BRANCH   1   2
ATOM      2  C   UNL     1      37.530 -23.658 -14.487  0.00  0.00    -0.003 C 
ATOM      3  C   UNL     1      38.632 -24.032 -15.231  0.00  0.00    -0.003 C 
ATOM      4  C   UNL     1      37.395 -24.001 -13.155  0.00  0.00    -0.003 C 
ATOM      5  C   UNL     1      39.639 -24.779 -14.619  0.00  0.00    -0.000 C 
ATOM      6  C   UNL     1      38.402 -24.747 -12.544  0.00  0.00    -0.000 C 
ATOM      7  C   UNL     1      39.524 -25.136 -13.276  0.00  0.00    -0.000 C 
ENDBRANCH   1   2
BRANCH   1  10
ATOM      8  O   UNL     1      35.410 -25.008 -15.550  0.00  0.00    -0.274 OA
ATOM      9  N   UNL     1      34.201 -23.113 -16.122  0.00  0.00    -0.296 N 
ATOM     10  C   UNL     1      35.320 -23.783 -15.624  0.00  0.00    +0.237 C 
ATOM     11  H   UNL     1      34.214 -22.129 -16.145  0.00  0.00    +0.150 HD
BRANCH   9  18
ATOM     12  S   UNL     1      32.518 -24.250 -13.819  0.00  0.00    -0.118 S 
ATOM     13  O   UNL     1      31.543 -21.868 -17.397  0.00  0.00    -0.273 OA
ATOM     14  N   UNL     1      31.072 -23.612 -15.876  0.00  0.00    -0.260 N 
ATOM     15  C   UNL     1      32.150 -24.563 -15.585  0.00  0.00    +0.151 C 
ATOM     16  C   UNL     1      30.745 -23.785 -13.491  0.00  0.00    +0.068 C 
ATOM     17  CA  UNL     1      30.317 -23.045 -14.777  0.00  0.00    +0.184 C 
ATOM     18  CA  UNL     1      33.005 -23.810 -16.613  0.00  0.00    +0.178 C 
ATOM     19  C   UNL     1      31.778 -22.894 -16.799  0.00  0.00    +0.247 C 
ATOM     20  C   UNL     1      29.963 -25.076 -13.210  0.00  0.00    +0.013 C 
ATOM     21  C   UNL     1      30.690 -22.862 -12.272  0.00  0.00    +0.013 C 
BRANCH  17  23
ATOM     22  OXT UNL     1      28.371 -24.083 -15.758  0.00  0.00    -0.248 OA
ATOM     23  C   UNL     1      28.869 -23.160 -15.130  0.00  0.00    +0.333 C 
BRANCH  23  24
ATOM     24  O   UNL     1      28.175 -22.095 -14.660  0.00  0.00    -0.479 OA
ATOM     25  H   UNL     1      28.335 -21.241 -15.010  0.00  0.00    +0.295 HD
ENDBRANCH  23  24
ENDBRANCH  17  23
ENDBRANCH   9  18
ENDBRANCH   1  10
BRANCH   1  27
ATOM     26  O   UNL     1      37.518 -20.865 -16.076  0.00  0.00    -0.249 OA
ATOM     27  C   UNL     1      36.970 -21.945 -16.258  0.00  0.00    +0.334 C 
BRANCH  27  28
ATOM     28  O   UNL     1      36.781 -22.571 -17.490  0.00  0.00    -0.424 OA
BRANCH  28  35
ATOM     29  C   UNL     1      36.076 -18.131 -21.398  0.00  0.00    +0.009 C 
ATOM     30  C   UNL     1      37.266 -18.953 -20.880  0.00  0.00    +0.026 C 
ATOM     31  C   UNL     1      34.876 -19.086 -21.471  0.00  0.00    +0.026 C 
ATOM     32  C   UNL     1      36.566 -19.979 -20.044  0.00  0.00    -0.023 C 
ATOM     33  C   UNL     1      35.209 -20.053 -20.380  0.00  0.00    -0.026 C 
ATOM     34  C   UNL     1      37.112 -20.815 -19.085  0.00  0.00    +0.033 C 
ATOM     35  C   UNL     1      36.271 -21.730 -18.449  0.00  0.00    +0.148 C 
ATOM     36  C   UNL     1      34.371 -20.967 -19.763  0.00  0.00    -0.001 C 
ATOM     37  C   UNL     1      34.910 -21.806 -18.786  0.00  0.00    +0.037 C 
ENDBRANCH  28  35
ENDBRANCH  27  28
ENDBRANCH   1  27
TORSDOF 8
ENDMDL
MODEL 3
REMARK VINA RESULT:     -10.3      1.976      2.752
REMARK  Name = 93184
REMARK  8 active torsions:
REMARK  status: ('A' for Active; 'I' for Inactive)
REMARK    1  A    between atoms: C_1  and  C_2
REMARK    2  A    between atoms: C_1  and  C_10
REMARK    3  A    between atoms: C_1  and  C_27
REMARK    4  A    between atoms: N_9  and  CA_18
REMARK    5  A    between atoms: CA_17  and  C_23
REMARK    6  A    between atoms: C_23  and  O_24
REMARK    7  A    between atoms: C_27  and  O_28
REMARK    8  A    between atoms: O_28  and  C_35
REMARK                            x       y       z     vdW  Elec       q    Type
REMARK                         _______ _______ _______ _____ _____    ______ ____
ROOT
ATOM      1  C   UNL     1      31.200 -23.982 -15.920  0.00  0.00    +0.198 C 
ENDROOT
BRANCH   1   2
ATOM      2  C   UNL     1      29.803 -23.437 -15.677  0.00  0.00    -0.003 C 
ATOM      3  C   UNL     1      29.564 -22.691 -14.539  0.00  0.00    -0.003 C 
ATOM      4  C   UNL     1      28.810 -23.701 -16.601  0.00  0.00    -0.003 C 
ATOM      5  C   UNL     1      28.281 -22.191 -14.315  0.00  0.00    -0.000 C 
ATOM      6  C   UNL     1      27.528 -23.201 -16.377  0.00  0.00    -0.000 C 
ATOM      7  C   UNL     1      27.263 -22.446 -15.234  0.00  0.00    -0.000 C 
ENDBRANCH   1   2
BRANCH   1  10
ATOM      8  O   UNL     1      30.941 -25.325 -13.919  0.00  0.00    -0.274 OA
ATOM      9  N   UNL     1      33.069 -24.577 -14.457  0.00  0.00    -0.296 N 
ATOM     10  C   UNL     1      31.693 -24.697 -14.661  0.00  0.00    +0.237 C 
ATOM     11  H   UNL     1      33.597 -24.054 -15.103  0.00  0.00    +0.150 HD
BRANCH   9  18
ATOM     12  S   UNL     1      36.080 -24.867 -14.986  0.00  0.00    -0.118 S 
ATOM     13  O   UNL     1      33.735 -23.320 -11.590  0.00  0.00    -0.273 OA
ATOM     14  N   UNL     1      35.546 -24.554 -12.467  0.00  0.00    -0.260 N 
ATOM     15  C   UNL     1      35.248 -25.547 -13.504  0.00  0.00    +0.151 C 
ATOM     16  C   UNL     1      37.406 -24.091 -13.934  0.00  0.00    +0.068 C 
ATOM     17  CA  UNL     1      36.648 -23.635 -12.668  0.00  0.00    +0.184 C 
ATOM     18  CA  UNL     1      33.765 -25.197 -13.322  0.00  0.00    +0.178 C 
ATOM     19  C   UNL     1      34.248 -24.191 -12.257  0.00  0.00    +0.247 C 
ATOM     20  C   UNL     1      38.488 -25.150 -13.682  0.00  0.00    +0.013 C 
ATOM     21  C   UNL     1      38.003 -22.900 -14.686  0.00  0.00    +0.013 C 
BRANCH  17  23
ATOM     22  OXT UNL     1      38.312 -22.804 -11.128  0.00  0.00    -0.248 OA
ATOM     23  C   UNL     1      37.454 -23.628 -11.409  0.00  0.00    +0.333 C 
BRANCH  23  24
ATOM     24  O   UNL     1      37.106 -24.669 -10.613  0.00  0.00    -0.479 OA
ATOM     25  H   UNL     1      36.763 -25.454 -10.992  0.00  0.00    +0.295 HD
ENDBRANCH  23  24
ENDBRANCH  17  23
ENDBRANCH   9  18
ENDBRANCH   1  10
BRANCH   1  27
ATOM     26  O   UNL     1      32.863 -22.211 -15.706  0.00  0.00    -0.249 OA
ATOM     27  C   UNL     1      32.159 -22.911 -16.422  0.00  0.00    +0.334 C 
BRANCH  27  28
ATOM     28  O   UNL     1      32.137 -22.896 -17.817  0.00  0.00    -0.424 OA
BRANCH  28  35
ATOM     29  C   UNL     1      35.660 -19.632 -21.341  0.00  0.00    +0.009 C 
ATOM     30  C   UNL     1      34.191 -19.563 -20.897  0.00  0.00    +0.026 C 
ATOM     31  C   UNL     1      36.462 -20.154 -20.140  0.00  0.00    +0.026 C 
ATOM     32  C   UNL     1      34.145 -20.659 -19.878  0.00  0.00    -0.023 C 
ATOM     33  C   UNL     1      35.435 -20.994 -19.449  0.00  0.00    -0.026 C 
ATOM     34  C   UNL     1      33.029 -21.279 -19.342  0.00  0.00    +0.033 C 
ATOM     35  C   UNL     1      33.223 -22.259 -18.367  0.00  0.00    +0.148 C 
ATOM     36  C   UNL     1      35.634 -21.956 -18.474  0.00  0.00    -0.001 C 
ATOM     37  C   UNL     1      34.516 -22.595 -17.935  0.00  0.00    +0.037 C 
ENDBRANCH  28  35
ENDBRANCH  27  28
ENDBRANCH   1  27
TORSDOF 8
ENDMDL
MODEL 4
REMARK VINA RESULT:     -10.3      9.325     13.941
REMARK  Name = 93184
REMARK  8 active torsions:
REMARK  status: ('A' for Active; 'I' for Inactive)
REMARK    1  A    between atoms: C_1  and  C_2
REMARK    2  A    between atoms: C_1  and  C_10
REMARK    3  A    between atoms: C_1  and  C_27
REMARK    4  A    between atoms: N_9  and  CA_18
REMARK    5  A    between atoms: CA_17  and  C_23
REMARK    6  A    between atoms: C_23  and  O_24
REMARK    7  A    between atoms: C_27  and  O_28
REMARK    8  A    between atoms: O_28  and  C_35
REMARK                            x       y       z     vdW  Elec       q    Type
REMARK                         _______ _______ _______ _____ _____    ______ ____
ROOT
ATOM      1  C   UNL     1      34.336 -14.155 -23.584  0.00  0.00    +0.198 C 
ENDROOT
BRANCH   1   2
ATOM      2  C   UNL     1      33.706 -14.010 -22.210  0.00  0.00    -0.003 C 
ATOM      3  C   UNL     1      34.348 -14.559 -21.117  0.00  0.00    -0.003 C 
ATOM      4  C   UNL     1      32.508 -13.332 -22.090  0.00  0.00    -0.003 C 
ATOM      5  C   UNL     1      33.769 -14.427 -19.855  0.00  0.00    -0.000 C 
ATOM      6  C   UNL     1      31.929 -13.200 -20.828  0.00  0.00    -0.000 C 
ATOM      7  C   UNL     1      32.559 -13.747 -19.710  0.00  0.00    -0.000 C 
ENDBRANCH   1   2
BRANCH   1  10
ATOM      8  O   UNL     1      33.356 -13.124 -25.547  0.00  0.00    -0.274 OA
ATOM      9  N   UNL     1      34.219 -11.732 -23.906  0.00  0.00    -0.296 N 
ATOM     10  C   UNL     1      33.917 -12.975 -24.463  0.00  0.00    +0.237 C 
ATOM     11  H   UNL     1      34.670 -11.705 -23.032  0.00  0.00    +0.150 HD
BRANCH   9  18
ATOM     12  S   UNL     1      32.023 -10.199 -22.403  0.00  0.00    -0.118 S 
ATOM     13  O   UNL     1      35.949  -9.043 -24.037  0.00  0.00    -0.273 OA
ATOM     14  N   UNL     1      33.662  -8.614 -23.640  0.00  0.00    -0.260 N 
ATOM     15  C   UNL     1      32.704  -9.659 -24.014  0.00  0.00    +0.151 C 
ATOM     16  C   UNL     1      32.238  -8.489 -21.695  0.00  0.00    +0.068 C 
ATOM     17  CA  UNL     1      33.551  -7.991 -22.337  0.00  0.00    +0.184 C 
ATOM     18  CA  UNL     1      33.892 -10.460 -24.565  0.00  0.00    +0.178 C 
ATOM     19  C   UNL     1      34.763  -9.273 -24.106  0.00  0.00    +0.247 C 
ATOM     20  C   UNL     1      30.996  -7.666 -22.065  0.00  0.00    +0.013 C 
ATOM     21  C   UNL     1      32.364  -8.593 -20.174  0.00  0.00    +0.013 C 
BRANCH  17  23
ATOM     22  OXT UNL     1      33.031  -5.676 -21.896  0.00  0.00    -0.248 OA
ATOM     23  C   UNL     1      33.641  -6.513 -22.544  0.00  0.00    +0.333 C 
BRANCH  23  24
ATOM     24  O   UNL     1      34.493  -6.223 -23.557  0.00  0.00    -0.479 OA
ATOM     25  H   UNL     1      34.328  -5.485 -24.111  0.00  0.00    +0.295 HD
ENDBRANCH  23  24
ENDBRANCH  17  23
ENDBRANCH   9  18
ENDBRANCH   1  10
BRANCH   1  27
ATOM     26  O   UNL     1      32.960 -15.853 -24.668  0.00  0.00    -0.249 OA
ATOM     27  C   UNL     1      34.045 -15.511 -24.213  0.00  0.00    +0.334 C 
BRANCH  27  28
ATOM     28  O   UNL     1      35.216 -16.268 -24.228  0.00  0.00    -0.424 OA
BRANCH  28  35
ATOM     29  C   UNL     1      36.559 -20.210 -19.969  0.00  0.00    +0.009 C 
ATOM     30  C   UNL     1      36.797 -18.708 -20.184  0.00  0.00    +0.026 C 
ATOM     31  C   UNL     1      35.175 -20.527 -20.557  0.00  0.00    +0.026 C 
ATOM     32  C   UNL     1      35.997 -18.462 -21.424  0.00  0.00    -0.023 C 
ATOM     33  C   UNL     1      35.076 -19.495 -21.635  0.00  0.00    -0.026 C 
ATOM     34  C   UNL     1      36.056 -17.372 -22.275  0.00  0.00    +0.033 C 
ATOM     35  C   UNL     1      35.180 -17.334 -23.362  0.00  0.00    +0.148 C 
ATOM     36  C   UNL     1      34.195 -19.458 -22.703  0.00  0.00    -0.001 C 
ATOM     37  C   UNL     1      34.256 -18.369 -23.574  0.00  0.00    +0.037 C 
ENDBRANCH  28  35
ENDBRANCH  27  28
ENDBRANCH   1  27
TORSDOF 8
ENDMDL
MODEL 5
REMARK VINA RESULT:     -10.0      1.372      5.224
REMARK  Name = 93184
REMARK  8 active torsions:
REMARK  status: ('A' for Active; 'I' for Inactive)
REMARK    1  A    between atoms: C_1  and  C_2
REMARK    2  A    between atoms: C_1  and  C_10
REMARK    3  A    between atoms: C_1  and  C_27
REMARK    4  A    between atoms: N_9  and  CA_18
REMARK    5  A    between atoms: CA_17  and  C_23
REMARK    6  A    between atoms: C_23  and  O_24
REMARK    7  A    between atoms: C_27  and  O_28
REMARK    8  A    between atoms: O_28  and  C_35
REMARK                            x       y       z     vdW  Elec       q    Type
REMARK                         _______ _______ _______ _____ _____    ______ ____
ROOT
ATOM      1  C   UNL     1      34.306 -22.113 -17.581  0.00  0.00    +0.198 C 
ENDROOT
BRANCH   1   2
ATOM      2  C   UNL     1      34.234 -21.355 -18.895  0.00  0.00    -0.003 C 
ATOM      3  C   UNL     1      35.408 -21.043 -19.552  0.00  0.00    -0.003 C 
ATOM      4  C   UNL     1      32.997 -20.997 -19.395  0.00  0.00    -0.003 C 
ATOM      5  C   UNL     1      35.342 -20.345 -20.759  0.00  0.00    -0.000 C 
ATOM      6  C   UNL     1      32.931 -20.300 -20.601  0.00  0.00    -0.000 C 
ATOM      7  C   UNL     1      34.104 -19.974 -21.283  0.00  0.00    -0.000 C 
ENDBRANCH   1   2
BRANCH   1  10
ATOM      8  O   UNL     1      36.617 -21.380 -17.559  0.00  0.00    -0.274 OA
ATOM      9  N   UNL     1      35.793 -22.429 -15.662  0.00  0.00    -0.296 N 
ATOM     10  C   UNL     1      35.693 -21.930 -16.962  0.00  0.00    +0.237 C 
ATOM     11  H   UNL     1      35.002 -22.855 -15.260  0.00  0.00    +0.150 HD
BRANCH   9  18
ATOM     12  S   UNL     1      35.922 -24.631 -13.527  0.00  0.00    -0.118 S 
ATOM     13  O   UNL     1      38.787 -23.151 -16.531  0.00  0.00    -0.273 OA
ATOM     14  N   UNL     1      38.275 -23.926 -14.361  0.00  0.00    -0.260 N 
ATOM     15  C   UNL     1      37.157 -23.286 -13.661  0.00  0.00    +0.151 C 
ATOM     16  C   UNL     1      37.271 -25.912 -13.425  0.00  0.00    +0.068 C 
ATOM     17  CA  UNL     1      38.359 -25.372 -14.379  0.00  0.00    +0.184 C 
ATOM     18  CA  UNL     1      37.025 -22.346 -14.867  0.00  0.00    +0.178 C 
ATOM     19  C   UNL     1      38.212 -23.128 -15.466  0.00  0.00    +0.247 C 
ATOM     20  C   UNL     1      37.708 -26.021 -11.957  0.00  0.00    +0.013 C 
ATOM     21  C   UNL     1      36.720 -27.254 -13.910  0.00  0.00    +0.013 C 
BRANCH  17  23
ATOM     22  OXT UNL     1      40.585 -24.975 -13.532  0.00  0.00    -0.248 OA
ATOM     23  C   UNL     1      39.764 -25.738 -14.019  0.00  0.00    +0.333 C 
BRANCH  23  24
ATOM     24  O   UNL     1      40.009 -27.039 -14.309  0.00  0.00    -0.479 OA
ATOM     25  H   UNL     1      40.066 -27.317 -15.202  0.00  0.00    +0.295 HD
ENDBRANCH  23  24
ENDBRANCH  17  23
ENDBRANCH   9  18
ENDBRANCH   1  10
BRANCH   1  27
ATOM     26  O   UNL     1      33.807 -24.166 -18.801  0.00  0.00    -0.249 OA
ATOM     27  C   UNL     1      33.901 -23.574 -17.733  0.00  0.00    +0.334 C 
BRANCH  27  28
ATOM     28  O   UNL     1      33.707 -24.128 -16.468  0.00  0.00    -0.424 OA
BRANCH  28  35
ATOM     29  C   UNL     1      28.095 -22.392 -15.477  0.00  0.00    +0.009 C 
ATOM     30  C   UNL     1      28.785 -23.361 -16.449  0.00  0.00    +0.026 C 
ATOM     31  C   UNL     1      28.857 -22.483 -14.146  0.00  0.00    +0.026 C 
ATOM     32  C   UNL     1      30.188 -23.343 -15.929  0.00  0.00    -0.023 C 
ATOM     33  C   UNL     1      30.228 -22.844 -14.622  0.00  0.00    -0.026 C 
ATOM     34  C   UNL     1      31.339 -23.782 -16.562  0.00  0.00    +0.033 C 
ATOM     35  C   UNL     1      32.547 -23.704 -15.867  0.00  0.00    +0.148 C 
ATOM     36  C   UNL     1      31.420 -22.775 -13.921  0.00  0.00    -0.001 C 
ATOM     37  C   UNL     1      32.588 -23.204 -14.555  0.00  0.00    +0.037 C 
ENDBRANCH  28  35
ENDBRANCH  27  28
ENDBRANCH   1  27
TORSDOF 8
ENDMDL
MODEL 6
REMARK VINA RESULT:      -9.9     11.952     17.167
REMARK  Name = 93184
REMARK  8 active torsions:
REMARK  status: ('A' for Active; 'I' for Inactive)
REMARK    1  A    between atoms: C_1  and  C_2
REMARK    2  A    between atoms: C_1  and  C_10
REMARK    3  A    between atoms: C_1  and  C_27
REMARK    4  A    between atoms: N_9  and  CA_18
REMARK    5  A    between atoms: CA_17  and  C_23
REMARK    6  A    between atoms: C_23  and  O_24
REMARK    7  A    between atoms: C_27  and  O_28
REMARK    8  A    between atoms: O_28  and  C_35
REMARK                            x       y       z     vdW  Elec       q    Type
REMARK                         _______ _______ _______ _____ _____    ______ ____
ROOT
ATOM      1  C   UNL     1      32.572 -10.812 -23.194  0.00  0.00    +0.198 C 
ENDROOT
BRANCH   1   2
ATOM      2  C   UNL     1      33.637 -10.655 -24.265  0.00  0.00    -0.003 C 
ATOM      3  C   UNL     1      34.716  -9.827 -24.019  0.00  0.00    -0.003 C 
ATOM      4  C   UNL     1      33.499 -11.343 -25.455  0.00  0.00    -0.003 C 
ATOM      5  C   UNL     1      35.695  -9.682 -25.003  0.00  0.00    -0.000 C 
ATOM      6  C   UNL     1      34.477 -11.198 -26.438  0.00  0.00    -0.000 C 
ATOM      7  C   UNL     1      35.575 -10.367 -26.212  0.00  0.00    -0.000 C 
ENDBRANCH   1   2
BRANCH   1  10
ATOM      8  O   UNL     1      32.342  -9.644 -21.082  0.00  0.00    -0.274 OA
ATOM      9  N   UNL     1      32.884  -8.396 -22.960  0.00  0.00    -0.296 N 
ATOM     10  C   UNL     1      32.576  -9.580 -22.288  0.00  0.00    +0.237 C 
ATOM     11  H   UNL     1      33.057  -8.436 -23.928  0.00  0.00    +0.150 HD
BRANCH   9  18
ATOM     12  S   UNL     1      33.977  -6.214 -24.824  0.00  0.00    -0.118 S 
ATOM     13  O   UNL     1      30.503  -6.430 -22.121  0.00  0.00    -0.273 OA
ATOM     14  N   UNL     1      32.333  -5.268 -23.054  0.00  0.00    -0.260 N 
ATOM     15  C   UNL     1      33.636  -5.941 -23.047  0.00  0.00    +0.151 C 
ATOM     16  C   UNL     1      33.047  -4.666 -25.281  0.00  0.00    +0.068 C 
ATOM     17  CA  UNL     1      31.876  -4.634 -24.275  0.00  0.00    +0.184 C 
ATOM     18  CA  UNL     1      32.964  -7.092 -22.287  0.00  0.00    +0.178 C 
ATOM     19  C   UNL     1      31.671  -6.256 -22.386  0.00  0.00    +0.247 C 
ATOM     20  C   UNL     1      34.017  -3.482 -25.167  0.00  0.00    +0.013 C 
ATOM     21  C   UNL     1      32.543  -4.796 -26.719  0.00  0.00    +0.013 C 
BRANCH  17  23
ATOM     22  OXT UNL     1      31.772  -2.621 -22.946  0.00  0.00    -0.248 OA
ATOM     23  C   UNL     1      31.387  -3.269 -23.907  0.00  0.00    +0.333 C 
BRANCH  23  24
ATOM     24  O   UNL     1      30.448  -2.845 -24.788  0.00  0.00    -0.479 OA
ATOM     25  H   UNL     1      30.350  -1.929 -24.963  0.00  0.00    +0.295 HD
ENDBRANCH  23  24
ENDBRANCH  17  23
ENDBRANCH   9  18
ENDBRANCH   1  10
BRANCH   1  27
ATOM     26  O   UNL     1      31.781 -12.722 -21.899  0.00  0.00    -0.249 OA
ATOM     27  C   UNL     1      32.707 -12.123 -22.431  0.00  0.00    +0.334 C 
BRANCH  27  28
ATOM     28  O   UNL     1      34.036 -12.545 -22.482  0.00  0.00    -0.424 OA
BRANCH  28  35
ATOM     29  C   UNL     1      35.637 -18.278 -22.698  0.00  0.00    +0.009 C 
ATOM     30  C   UNL     1      35.392 -17.253 -21.581  0.00  0.00    +0.026 C 
ATOM     31  C   UNL     1      34.617 -17.979 -23.807  0.00  0.00    +0.026 C 
ATOM     32  C   UNL     1      34.859 -16.094 -22.365  0.00  0.00    -0.023 C 
ATOM     33  C   UNL     1      34.420 -16.507 -23.628  0.00  0.00    -0.026 C 
ATOM     34  C   UNL     1      34.735 -14.776 -21.960  0.00  0.00    +0.033 C 
ATOM     35  C   UNL     1      34.170 -13.861 -22.851  0.00  0.00    +0.148 C 
ATOM     36  C   UNL     1      33.846 -15.609 -24.512  0.00  0.00    -0.001 C 
ATOM     37  C   UNL     1      33.728 -14.275 -24.118  0.00  0.00    +0.037 C 
ENDBRANCH  28  35
ENDBRANCH  27  28
ENDBRANCH   1  27
TORSDOF 8
ENDMDL
MODEL 7
REMARK VINA RESULT:      -9.2     12.799     17.804
REMARK  Name = 93184
REMARK  8 active torsions:
REMARK  status: ('A' for Active; 'I' for Inactive)
REMARK    1  A    between atoms: C_1  and  C_2
REMARK    2  A    between atoms: C_1  and  C_10
REMARK    3  A    between atoms: C_1  and  C_27
REMARK    4  A    between atoms: N_9  and  CA_18
REMARK    5  A    between atoms: CA_17  and  C_23
REMARK    6  A    between atoms: C_23  and  O_24
REMARK    7  A    between atoms: C_27  and  O_28
REMARK    8  A    between atoms: O_28  and  C_35
REMARK                            x       y       z     vdW  Elec       q    Type
REMARK                         _______ _______ _______ _____ _____    ______ ____
ROOT
ATOM      1  C   UNL     1      31.775  -9.442 -22.876  0.00  0.00    +0.198 C 
ENDROOT
BRANCH   1   2
ATOM      2  C   UNL     1      33.048  -9.677 -23.672  0.00  0.00    -0.003 C 
ATOM      3  C   UNL     1      33.047 -10.637 -24.666  0.00  0.00    -0.003 C 
ATOM      4  C   UNL     1      34.170  -8.926 -23.380  0.00  0.00    -0.003 C 
ATOM      5  C   UNL     1      34.216 -10.853 -25.397  0.00  0.00    -0.000 C 
ATOM      6  C   UNL     1      35.338  -9.142 -24.111  0.00  0.00    -0.000 C 
ATOM      7  C   UNL     1      35.361 -10.106 -25.119  0.00  0.00    -0.000 C 
ENDBRANCH   1   2
BRANCH   1  10
ATOM      8  O   UNL     1      30.654  -7.339 -23.320  0.00  0.00    -0.274 OA
ATOM      9  N   UNL     1      32.424  -7.331 -21.822  0.00  0.00    -0.296 N 
ATOM     10  C   UNL     1      31.544  -7.938 -22.719  0.00  0.00    +0.237 C 
ATOM     11  H   UNL     1      33.108  -7.887 -21.384  0.00  0.00    +0.150 HD
BRANCH   9  18
ATOM     12  S   UNL     1      33.588  -5.615 -24.086  0.00  0.00    -0.118 S 
ATOM     13  O   UNL     1      29.882  -5.391 -21.712  0.00  0.00    -0.273 OA
ATOM     14  N   UNL     1      31.737  -4.373 -22.759  0.00  0.00    -0.260 N 
ATOM     15  C   UNL     1      33.063  -4.929 -22.472  0.00  0.00    +0.151 C 
ATOM     16  C   UNL     1      32.634  -4.300 -24.999  0.00  0.00    +0.068 C 
ATOM     17  CA  UNL     1      31.371  -4.099 -24.133  0.00  0.00    +0.184 C 
ATOM     18  CA  UNL     1      32.376  -5.898 -21.500  0.00  0.00    +0.178 C 
ATOM     19  C   UNL     1      31.061  -5.207 -21.916  0.00  0.00    +0.247 C 
ATOM     20  C   UNL     1      33.532  -3.060 -25.112  0.00  0.00    +0.013 C 
ATOM     21  C   UNL     1      32.279  -4.821 -26.392  0.00  0.00    +0.013 C 
BRANCH  17  23
ATOM     22  OXT UNL     1      30.065  -2.291 -25.057  0.00  0.00    -0.248 OA
ATOM     23  C   UNL     1      30.784  -2.724 -24.169  0.00  0.00    +0.333 C 
BRANCH  23  24
ATOM     24  O   UNL     1      31.162  -2.015 -23.078  0.00  0.00    -0.479 OA
ATOM     25  H   UNL     1      31.089  -2.394 -22.224  0.00  0.00    +0.295 HD
ENDBRANCH  23  24
ENDBRANCH  17  23
ENDBRANCH   9  18
ENDBRANCH   1  10
BRANCH   1  27
ATOM     26  O   UNL     1      32.183  -9.743 -20.489  0.00  0.00    -0.249 OA
ATOM     27  C   UNL     1      31.774 -10.195 -21.552  0.00  0.00    +0.334 C 
BRANCH  27  28
ATOM     28  O   UNL     1      31.194 -11.449 -21.741  0.00  0.00    -0.424 OA
BRANCH  28  35
ATOM     29  C   UNL     1      34.922 -16.021 -22.567  0.00  0.00    +0.009 C 
ATOM     30  C   UNL     1      34.563 -14.748 -23.347  0.00  0.00    +0.026 C 
ATOM     31  C   UNL     1      34.864 -15.658 -21.075  0.00  0.00    +0.026 C 
ATOM     32  C   UNL     1      33.664 -14.055 -22.372  0.00  0.00    -0.023 C 
ATOM     33  C   UNL     1      33.835 -14.572 -21.083  0.00  0.00    -0.026 C 
ATOM     34  C   UNL     1      32.791 -13.008 -22.613  0.00  0.00    +0.033 C 
ATOM     35  C   UNL     1      32.072 -12.486 -21.535  0.00  0.00    +0.148 C 
ATOM     36  C   UNL     1      33.136 -14.051 -20.007  0.00  0.00    -0.001 C 
ATOM     37  C   UNL     1      32.244 -13.003 -20.241  0.00  0.00    +0.037 C 
ENDBRANCH  28  35
ENDBRANCH  27  28
ENDBRANCH   1  27
TORSDOF 8
ENDMDL
MODEL 8
REMARK VINA RESULT:      -9.2      1.805      5.666
REMARK  Name = 93184
REMARK  8 active torsions:
REMARK  status: ('A' for Active; 'I' for Inactive)
REMARK    1  A    between atoms: C_1  and  C_2
REMARK    2  A    between atoms: C_1  and  C_10
REMARK    3  A    between atoms: C_1  and  C_27
REMARK    4  A    between atoms: N_9  and  CA_18
REMARK    5  A    between atoms: CA_17  and  C_23
REMARK    6  A    between atoms: C_23  and  O_24
REMARK    7  A    between atoms: C_27  and  O_28
REMARK    8  A    between atoms: O_28  and  C_35
REMARK                            x       y       z     vdW  Elec       q    Type
REMARK                         _______ _______ _______ _____ _____    ______ ____
ROOT
ATOM      1  C   UNL     1      34.656 -22.178 -17.505  0.00  0.00    +0.198 C 
ENDROOT
BRANCH   1   2
ATOM      2  C   UNL     1      34.763 -21.382 -18.795  0.00  0.00    -0.003 C 
ATOM      3  C   UNL     1      33.607 -20.936 -19.404  0.00  0.00    -0.003 C 
ATOM      4  C   UNL     1      36.014 -21.127 -19.323  0.00  0.00    -0.003 C 
ATOM      5  C   UNL     1      33.705 -20.206 -20.589  0.00  0.00    -0.000 C 
ATOM      6  C   UNL     1      36.113 -20.398 -20.507  0.00  0.00    -0.000 C 
ATOM      7  C   UNL     1      34.958 -19.937 -21.141  0.00  0.00    -0.000 C 
ENDBRANCH   1   2
BRANCH   1  10
ATOM      8  O   UNL     1      36.964 -21.552 -17.105  0.00  0.00    -0.274 OA
ATOM      9  N   UNL     1      36.161 -23.464 -16.066  0.00  0.00    -0.296 N 
ATOM     10  C   UNL     1      36.047 -22.345 -16.893  0.00  0.00    +0.237 C 
ATOM     11  H   UNL     1      35.375 -24.046 -15.952  0.00  0.00    +0.150 HD
BRANCH   9  18
ATOM     12  S   UNL     1      35.931 -22.953 -13.047  0.00  0.00    -0.118 S 
ATOM     13  O   UNL     1      37.361 -26.365 -15.443  0.00  0.00    -0.273 OA
ATOM     14  N   UNL     1      37.548 -24.905 -13.597  0.00  0.00    -0.260 N 
ATOM     15  C   UNL     1      37.486 -23.465 -13.866  0.00  0.00    +0.151 C 
ATOM     16  C   UNL     1      36.137 -24.269 -11.745  0.00  0.00    +0.068 C 
ATOM     17  CA  UNL     1      36.752 -25.456 -12.519  0.00  0.00    +0.184 C 
ATOM     18  CA  UNL     1      37.400 -23.813 -15.358  0.00  0.00    +0.178 C 
ATOM     19  C   UNL     1      37.470 -25.285 -14.906  0.00  0.00    +0.247 C 
ATOM     20  C   UNL     1      37.034 -23.699 -10.637  0.00  0.00    +0.013 C 
ATOM     21  C   UNL     1      34.763 -24.626 -11.177  0.00  0.00    +0.013 C 
BRANCH  17  23
ATOM     22  OXT UNL     1      37.289 -27.038 -10.777  0.00  0.00    -0.248 OA
ATOM     23  C   UNL     1      37.647 -26.346 -11.718  0.00  0.00    +0.333 C 
BRANCH  23  24
ATOM     24  O   UNL     1      38.921 -26.281 -12.177  0.00  0.00    -0.479 OA
ATOM     25  H   UNL     1      39.419 -25.495 -12.066  0.00  0.00    +0.295 HD
ENDBRANCH  23  24
ENDBRANCH  17  23
ENDBRANCH   9  18
ENDBRANCH   1  10
BRANCH   1  27
ATOM     26  O   UNL     1      33.617 -23.977 -18.784  0.00  0.00    -0.249 OA
ATOM     27  C   UNL     1      33.919 -23.496 -17.699  0.00  0.00    +0.334 C 
BRANCH  27  28
ATOM     28  O   UNL     1      33.692 -24.079 -16.452  0.00  0.00    -0.424 OA
BRANCH  28  35
ATOM     29  C   UNL     1      28.067 -22.354 -15.523  0.00  0.00    +0.009 C 
ATOM     30  C   UNL     1      28.768 -23.324 -16.484  0.00  0.00    +0.026 C 
ATOM     31  C   UNL     1      28.815 -22.438 -14.184  0.00  0.00    +0.026 C 
ATOM     32  C   UNL     1      30.166 -23.301 -15.950  0.00  0.00    -0.023 C 
ATOM     33  C   UNL     1      30.192 -22.797 -14.645  0.00  0.00    -0.026 C 
ATOM     34  C   UNL     1      31.324 -23.740 -16.571  0.00  0.00    +0.033 C 
ATOM     35  C   UNL     1      32.525 -23.656 -15.863  0.00  0.00    +0.148 C 
ATOM     36  C   UNL     1      31.377 -22.723 -13.932  0.00  0.00    -0.001 C 
ATOM     37  C   UNL     1      32.552 -23.152 -14.553  0.00  0.00    +0.037 C 
ENDBRANCH  28  35
ENDBRANCH  27  28
ENDBRANCH   1  27
TORSDOF 8
ENDMDL
MODEL 9
REMARK VINA RESULT:      -8.7      2.379      6.691
REMARK  Name = 93184
REMARK  8 active torsions:
REMARK  status: ('A' for Active; 'I' for Inactive)
REMARK    1  A    between atoms: C_1  and  C_2
REMARK    2  A    between atoms: C_1  and  C_10
REMARK    3  A    between atoms: C_1  and  C_27
REMARK    4  A    between atoms: N_9  and  CA_18
REMARK    5  A    between atoms: CA_17  and  C_23
REMARK    6  A    between atoms: C_23  and  O_24
REMARK    7  A    between atoms: C_27  and  O_28
REMARK    8  A    between atoms: O_28  and  C_35
REMARK                            x       y       z     vdW  Elec       q    Type
REMARK                         _______ _______ _______ _____ _____    ______ ____
ROOT
ATOM      1  C   UNL     1      36.494 -23.576 -13.703  0.00  0.00    +0.198 C 
ENDROOT
BRANCH   1   2
ATOM      2  C   UNL     1      37.351 -24.745 -14.157  0.00  0.00    -0.003 C 
ATOM      3  C   UNL     1      38.726 -24.613 -14.142  0.00  0.00    -0.003 C 
ATOM      4  C   UNL     1      36.732 -25.909 -14.573  0.00  0.00    -0.003 C 
ATOM      5  C   UNL     1      39.513 -25.686 -14.560  0.00  0.00    -0.000 C 
ATOM      6  C   UNL     1      37.519 -26.981 -14.990  0.00  0.00    -0.000 C 
ATOM      7  C   UNL     1      38.909 -26.871 -14.984  0.00  0.00    -0.000 C 
ENDBRANCH   1   2
BRANCH   1  10
ATOM      8  O   UNL     1      35.509 -24.826 -11.873  0.00  0.00    -0.274 OA
ATOM      9  N   UNL     1      34.085 -23.645 -13.272  0.00  0.00    -0.296 N 
ATOM     10  C   UNL     1      35.337 -24.095 -12.847  0.00  0.00    +0.237 C 
ATOM     11  H   UNL     1      34.039 -23.062 -14.064  0.00  0.00    +0.150 HD
BRANCH   9  18
ATOM     12  S   UNL     1      31.690 -22.089 -14.398  0.00  0.00    -0.118 S 
ATOM     13  O   UNL     1      32.385 -26.347 -13.496  0.00  0.00    -0.273 OA
ATOM     14  N   UNL     1      31.013 -24.426 -13.496  0.00  0.00    -0.260 N 
ATOM     15  C   UNL     1      31.579 -23.192 -12.941  0.00  0.00    +0.151 C 
ATOM     16  C   UNL     1      30.191 -22.887 -15.165  0.00  0.00    +0.068 C 
ATOM     17  CA  UNL     1      30.328 -24.374 -14.772  0.00  0.00    +0.184 C 
ATOM     18  CA  UNL     1      32.834 -24.002 -12.590  0.00  0.00    +0.178 C 
ATOM     19  C   UNL     1      32.099 -25.204 -13.217  0.00  0.00    +0.247 C 
ATOM     20  C   UNL     1      28.945 -22.191 -14.599  0.00  0.00    +0.013 C 
ATOM     21  C   UNL     1      30.251 -22.703 -16.682  0.00  0.00    +0.013 C 
BRANCH  17  23
ATOM     22  OXT UNL     1      27.966 -24.764 -15.079  0.00  0.00    -0.248 OA
ATOM     23  C   UNL     1      29.039 -25.114 -14.611  0.00  0.00    +0.333 C 
BRANCH  23  24
ATOM     24  O   UNL     1      29.218 -26.233 -13.868  0.00  0.00    -0.479 OA
ATOM     25  H   UNL     1      29.892 -26.260 -13.217  0.00  0.00    +0.295 HD
ENDBRANCH  23  24
ENDBRANCH  17  23
ENDBRANCH   9  18
ENDBRANCH   1  10
BRANCH   1  27
ATOM     26  O   UNL     1      36.036 -21.480 -14.864  0.00  0.00    -0.249 OA
ATOM     27  C   UNL     1      36.040 -22.705 -14.867  0.00  0.00    +0.334 C 
BRANCH  27  28
ATOM     28  O   UNL     1      35.682 -23.524 -15.937  0.00  0.00    -0.424 OA
BRANCH  28  35
ATOM     29  C   UNL     1      35.153 -19.763 -20.526  0.00  0.00    +0.009 C 
ATOM     30  C   UNL     1      36.301 -20.567 -19.898  0.00  0.00    +0.026 C 
ATOM     31  C   UNL     1      33.891 -20.632 -20.415  0.00  0.00    +0.026 C 
ATOM     32  C   UNL     1      35.561 -21.387 -18.888  0.00  0.00    -0.023 C 
ATOM     33  C   UNL     1      34.193 -21.423 -19.182  0.00  0.00    -0.026 C 
ATOM     34  C   UNL     1      36.080 -22.087 -17.811  0.00  0.00    +0.033 C 
ATOM     35  C   UNL     1      35.200 -22.823 -17.015  0.00  0.00    +0.148 C 
ATOM     36  C   UNL     1      33.316 -22.161 -18.405  0.00  0.00    -0.001 C 
ATOM     37  C   UNL     1      33.827 -22.860 -17.310  0.00  0.00    +0.037 C 
ENDBRANCH  28  35
ENDBRANCH  27  28
ENDBRANCH   1  27
TORSDOF 8
ENDMDL
