MODEL 1
REMARK VINA RESULT:     -11.6      0.000      0.000
REMARK  Name = 216239
REMARK  6 active torsions:
REMARK  status: ('A' for Active; 'I' for Inactive)
REMARK    1  A    between atoms: C_1  and  N_9
REMARK    2  A    between atoms: C_2  and  O_24
REMARK    3  A    between atoms: N_8  and  C_14
REMARK    4  A    between atoms: C_15  and  C_23
REMARK    5  A    between atoms: O_24  and  C_26
REMARK    6  A    between atoms: C_28  and  C_33
REMARK                            x       y       z     vdW  Elec       q    Type
REMARK                         _______ _______ _______ _____ _____    ______ ____
ROOT
ATOM      1  C   UNL     1      33.411 -14.000 -22.780  0.00  0.00    +0.052 C 
ATOM      2  C   UNL     1      34.833 -16.344 -23.176  0.00  0.00    +0.145 C 
ATOM      3  C   UNL     1      34.144 -14.533 -21.733  0.00  0.00    +0.018 C 
ATOM      4  C   UNL     1      33.374 -14.613 -24.021  0.00  0.00    +0.018 C 
ATOM      5  C   UNL     1      34.860 -15.713 -21.933  0.00  0.00    +0.039 C 
ATOM      6  C   UNL     1      34.089 -15.795 -24.221  0.00  0.00    +0.039 C 
ENDROOT
BRANCH   1   9
ATOM      7  O   UNL     1      34.196 -11.163 -23.283  0.00  0.00    -0.252 OA
ATOM      8  N   UNL     1      32.071 -10.578 -22.489  0.00  0.00    -0.268 N 
ATOM      9  N   UNL     1      32.685 -12.803 -22.577  0.00  0.00    -0.268 N 
ATOM     10  C   UNL     1      33.102 -11.486 -22.832  0.00  0.00    +0.308 C 
ATOM     11  H   UNL     1      31.245 -10.982 -22.136  0.00  0.00    +0.156 HD
ATOM     12  H   UNL     1      31.777 -12.905 -22.213  0.00  0.00    +0.156 HD
BRANCH   8  14
ATOM     13 CL   UNL     1      32.068  -4.684 -22.934  0.00  0.00    -0.082 Cl
ATOM     14  C   UNL     1      32.068  -9.186 -22.584  0.00  0.00    +0.052 C 
ATOM     15  C   UNL     1      31.967  -7.016 -21.527  0.00  0.00    +0.083 C 
ATOM     16  C   UNL     1      31.968  -8.408 -21.432  0.00  0.00    +0.019 C 
ATOM     17  C   UNL     1      32.166  -8.573 -23.834  0.00  0.00    +0.016 C 
ATOM     18  C   UNL     1      32.064  -6.402 -22.776  0.00  0.00    +0.062 C 
ATOM     19  C   UNL     1      32.165  -7.182 -23.929  0.00  0.00    +0.013 C 
BRANCH  15  23
ATOM     20  F   UNL     1      32.929  -5.399 -20.051  0.00  0.00    -0.166 F 
ATOM     21  F   UNL     1      30.768  -5.400 -20.233  0.00  0.00    -0.166 F 
ATOM     22  F   UNL     1      31.767  -7.005 -19.158  0.00  0.00    -0.166 F 
ATOM     23  C   UNL     1      31.860  -6.218 -20.268  0.00  0.00    +0.419 C 
ENDBRANCH  15  23
ENDBRANCH   8  14
ENDBRANCH   1   9
BRANCH   2  24
ATOM     24  O   UNL     1      35.531 -17.497 -23.370  0.00  0.00    -0.453 OA
BRANCH  24  26
ATOM     25  N   UNL     1      36.176 -19.944 -20.074  0.00  0.00    -0.239 NA
ATOM     26  C   UNL     1      35.745 -18.311 -22.272  0.00  0.00    +0.149 C 
ATOM     27  C   UNL     1      34.693 -19.036 -21.754  0.00  0.00    +0.061 C 
ATOM     28  C   UNL     1      34.960 -19.838 -20.656  0.00  0.00    +0.137 C 
ATOM     29  C   UNL     1      37.007 -18.381 -21.720  0.00  0.00    +0.058 C 
ATOM     30  C   UNL     1      37.170 -19.211 -20.622  0.00  0.00    +0.102 C 
BRANCH  28  33
ATOM     31  O   UNL     1      32.734 -20.551 -20.474  0.00  0.00    -0.268 OA
ATOM     32  N   UNL     1      34.267 -21.493 -19.013  0.00  0.00    -0.298 N 
ATOM     33  C   UNL     1      33.902 -20.632 -20.054  0.00  0.00    +0.264 C 
ATOM     34  C   UNL     1      33.335 -22.363 -18.331  0.00  0.00    +0.111 C 
ATOM     35  H   UNL     1      35.210 -21.508 -18.728  0.00  0.00    +0.150 HD
ENDBRANCH  28  33
ENDBRANCH  24  26
ENDBRANCH   2  24
TORSDOF 6
ENDMDL
MODEL 2
REMARK VINA RESULT:     -11.5      1.800      2.112
REMARK  Name = 216239
REMARK  6 active torsions:
REMARK  status: ('A' for Active; 'I' for Inactive)
REMARK    1  A    between atoms: C_1  and  N_9
REMARK    2  A    between atoms: C_2  and  O_24
REMARK    3  A    between atoms: N_8  and  C_14
REMARK    4  A    between atoms: C_15  and  C_23
REMARK    5  A    between atoms: O_24  and  C_26
REMARK    6  A    between atoms: C_28  and  C_33
REMARK                            x       y       z     vdW  Elec       q    Type
REMARK                         _______ _______ _______ _____ _____    ______ ____
ROOT
ATOM      1  C   UNL     1      33.682 -14.070 -22.619  0.00  0.00    +0.052 C 
ATOM      2  C   UNL     1      34.912 -16.518 -23.024  0.00  0.00    +0.145 C 
ATOM      3  C   UNL     1      34.355 -14.671 -21.569  0.00  0.00    +0.018 C 
ATOM      4  C   UNL     1      33.610 -14.666 -23.867  0.00  0.00    +0.018 C 
ATOM      5  C   UNL     1      34.975 -15.904 -21.773  0.00  0.00    +0.039 C 
ATOM      6  C   UNL     1      34.229 -15.900 -24.071  0.00  0.00    +0.039 C 
ENDROOT
BRANCH   1   9
ATOM      7  O   UNL     1      34.040 -11.474 -24.051  0.00  0.00    -0.252 OA
ATOM      8  N   UNL     1      32.428 -10.603 -22.592  0.00  0.00    -0.268 N 
ATOM      9  N   UNL     1      33.054 -12.819 -22.412  0.00  0.00    -0.268 N 
ATOM     10  C   UNL     1      33.259 -11.622 -23.118  0.00  0.00    +0.308 C 
ATOM     11  H   UNL     1      31.851 -10.867 -21.839  0.00  0.00    +0.156 HD
ATOM     12  H   UNL     1      32.392 -12.783 -21.685  0.00  0.00    +0.156 HD
BRANCH   8  14
ATOM     13 CL   UNL     1      31.919  -4.970 -24.309  0.00  0.00    -0.082 Cl
ATOM     14  C   UNL     1      32.318  -9.272 -22.997  0.00  0.00    +0.052 C 
ATOM     15  C   UNL     1      33.354  -7.203 -23.691  0.00  0.00    +0.083 C 
ATOM     16  C   UNL     1      33.465  -8.533 -23.285  0.00  0.00    +0.019 C 
ATOM     17  C   UNL     1      31.059  -8.682 -23.114  0.00  0.00    +0.016 C 
ATOM     18  C   UNL     1      32.096  -6.612 -23.808  0.00  0.00    +0.062 C 
ATOM     19  C   UNL     1      30.949  -7.352 -23.520  0.00  0.00    +0.013 C 
BRANCH  15  23
ATOM     20  F   UNL     1      34.472  -5.095 -23.856  0.00  0.00    -0.166 F 
ATOM     21  F   UNL     1      35.655  -6.786 -23.188  0.00  0.00    -0.166 F 
ATOM     22  F   UNL     1      35.042  -6.645 -25.270  0.00  0.00    -0.166 F 
ATOM     23  C   UNL     1      34.607  -6.446 -23.993  0.00  0.00    +0.419 C 
ENDBRANCH  15  23
ENDBRANCH   8  14
ENDBRANCH   1   9
BRANCH   2  24
ATOM     24  O   UNL     1      35.515 -17.722 -23.222  0.00  0.00    -0.453 OA
BRANCH  24  26
ATOM     25  N   UNL     1      36.111 -20.155 -19.906  0.00  0.00    -0.239 NA
ATOM     26  C   UNL     1      35.713 -18.532 -22.117  0.00  0.00    +0.149 C 
ATOM     27  C   UNL     1      34.644 -19.223 -21.586  0.00  0.00    +0.061 C 
ATOM     28  C   UNL     1      34.895 -20.021 -20.482  0.00  0.00    +0.137 C 
ATOM     29  C   UNL     1      36.976 -18.631 -21.572  0.00  0.00    +0.058 C 
ATOM     30  C   UNL     1      37.122 -19.455 -20.467  0.00  0.00    +0.102 C 
BRANCH  28  33
ATOM     31  O   UNL     1      32.646 -20.645 -20.259  0.00  0.00    -0.268 OA
ATOM     32  N   UNL     1      34.172 -21.670 -18.845  0.00  0.00    -0.298 N 
ATOM     33  C   UNL     1      33.819 -20.779 -19.867  0.00  0.00    +0.264 C 
ATOM     34  C   UNL     1      33.220 -22.510 -18.154  0.00  0.00    +0.111 C 
ATOM     35  H   UNL     1      35.119 -21.727 -18.583  0.00  0.00    +0.150 HD
ENDBRANCH  28  33
ENDBRANCH  24  26
ENDBRANCH   2  24
TORSDOF 6
ENDMDL
MODEL 3
REMARK VINA RESULT:     -11.5      1.321      1.783
REMARK  Name = 216239
REMARK  6 active torsions:
REMARK  status: ('A' for Active; 'I' for Inactive)
REMARK    1  A    between atoms: C_1  and  N_9
REMARK    2  A    between atoms: C_2  and  O_24
REMARK    3  A    between atoms: N_8  and  C_14
REMARK    4  A    between atoms: C_15  and  C_23
REMARK    5  A    between atoms: O_24  and  C_26
REMARK    6  A    between atoms: C_28  and  C_33
REMARK                            x       y       z     vdW  Elec       q    Type
REMARK                         _______ _______ _______ _____ _____    ______ ____
ROOT
ATOM      1  C   UNL     1      33.749 -13.788 -23.002  0.00  0.00    +0.052 C 
ATOM      2  C   UNL     1      34.596 -16.399 -23.372  0.00  0.00    +0.145 C 
ATOM      3  C   UNL     1      33.490 -14.419 -24.206  0.00  0.00    +0.018 C 
ATOM      4  C   UNL     1      34.423 -14.433 -21.978  0.00  0.00    +0.018 C 
ATOM      5  C   UNL     1      33.916 -15.735 -24.392  0.00  0.00    +0.039 C 
ATOM      6  C   UNL     1      34.850 -15.748 -22.164  0.00  0.00    +0.039 C 
ENDROOT
BRANCH   1   9
ATOM      7  O   UNL     1      34.667 -11.263 -24.306  0.00  0.00    -0.252 OA
ATOM      8  N   UNL     1      33.083 -10.161 -22.978  0.00  0.00    -0.268 N 
ATOM      9  N   UNL     1      33.317 -12.454 -22.813  0.00  0.00    -0.268 N 
ATOM     10  C   UNL     1      33.784 -11.295 -23.456  0.00  0.00    +0.308 C 
ATOM     11  H   UNL     1      32.399 -10.340 -22.292  0.00  0.00    +0.156 HD
ATOM     12  H   UNL     1      32.601 -12.321 -22.151  0.00  0.00    +0.156 HD
BRANCH   8  14
ATOM     13 CL   UNL     1      33.761  -4.506 -24.556  0.00  0.00    -0.082 Cl
ATOM     14  C   UNL     1      33.233  -8.824 -23.347  0.00  0.00    +0.052 C 
ATOM     15  C   UNL     1      32.395  -6.559 -23.395  0.00  0.00    +0.083 C 
ATOM     16  C   UNL     1      32.244  -7.896 -23.026  0.00  0.00    +0.019 C 
ATOM     17  C   UNL     1      34.375  -8.417 -24.037  0.00  0.00    +0.016 C 
ATOM     18  C   UNL     1      33.537  -6.151 -24.085  0.00  0.00    +0.062 C 
ATOM     19  C   UNL     1      34.527  -7.080 -24.406  0.00  0.00    +0.013 C 
BRANCH  15  23
ATOM     20  F   UNL     1      31.749  -4.549 -22.270  0.00  0.00    -0.166 F 
ATOM     21  F   UNL     1      30.706  -5.024 -24.112  0.00  0.00    -0.166 F 
ATOM     22  F   UNL     1      30.312  -6.181 -22.312  0.00  0.00    -0.166 F 
ATOM     23  C   UNL     1      31.313  -5.595 -23.031  0.00  0.00    +0.419 C 
ENDBRANCH  15  23
ENDBRANCH   8  14
ENDBRANCH   1   9
BRANCH   2  24
ATOM     24  O   UNL     1      35.013 -17.681 -23.554  0.00  0.00    -0.453 OA
BRANCH  24  26
ATOM     25  N   UNL     1      35.990 -19.896 -20.175  0.00  0.00    -0.239 NA
ATOM     26  C   UNL     1      35.338 -18.418 -22.428  0.00  0.00    +0.149 C 
ATOM     27  C   UNL     1      34.363 -19.173 -21.812  0.00  0.00    +0.061 C 
ATOM     28  C   UNL     1      34.739 -19.894 -20.690  0.00  0.00    +0.137 C 
ATOM     29  C   UNL     1      36.631 -18.382 -21.949  0.00  0.00    +0.058 C 
ATOM     30  C   UNL     1      36.905 -19.138 -20.820  0.00  0.00    +0.102 C 
BRANCH  28  33
ATOM     31  O   UNL     1      32.553 -20.609 -20.236  0.00  0.00    -0.268 OA
ATOM     32  N   UNL     1      34.265 -21.624 -19.046  0.00  0.00    -0.298 N 
ATOM     33  C   UNL     1      33.767 -20.713 -19.986  0.00  0.00    +0.264 C 
ATOM     34  C   UNL     1      33.428 -22.523 -18.283  0.00  0.00    +0.111 C 
ATOM     35  H   UNL     1      35.237 -21.655 -18.896  0.00  0.00    +0.150 HD
ENDBRANCH  28  33
ENDBRANCH  24  26
ENDBRANCH   2  24
TORSDOF 6
ENDMDL
MODEL 4
REMARK VINA RESULT:     -11.4      2.136      3.059
REMARK  Name = 216239
REMARK  6 active torsions:
REMARK  status: ('A' for Active; 'I' for Inactive)
REMARK    1  A    between atoms: C_1  and  N_9
REMARK    2  A    between atoms: C_2  and  O_24
REMARK    3  A    between atoms: N_8  and  C_14
REMARK    4  A    between atoms: C_15  and  C_23
REMARK    5  A    between atoms: O_24  and  C_26
REMARK    6  A    between atoms: C_28  and  C_33
REMARK                            x       y       z     vdW  Elec       q    Type
REMARK                         _______ _______ _______ _____ _____    ______ ____
ROOT
ATOM      1  C   UNL     1      34.360 -15.980 -23.589  0.00  0.00    +0.052 C 
ATOM      2  C   UNL     1      35.010 -18.532 -22.730  0.00  0.00    +0.145 C 
ATOM      3  C   UNL     1      34.007 -17.068 -24.369  0.00  0.00    +0.018 C 
ATOM      4  C   UNL     1      35.031 -16.140 -22.388  0.00  0.00    +0.018 C 
ATOM      5  C   UNL     1      34.335 -18.353 -23.937  0.00  0.00    +0.039 C 
ATOM      6  C   UNL     1      35.359 -17.425 -21.956  0.00  0.00    +0.039 C 
ENDROOT
BRANCH   1   9
ATOM      7  O   UNL     1      34.754 -13.338 -22.253  0.00  0.00    -0.252 OA
ATOM      8  N   UNL     1      33.757 -12.386 -24.146  0.00  0.00    -0.268 N 
ATOM      9  N   UNL     1      34.027 -14.677 -24.028  0.00  0.00    -0.268 N 
ATOM     10  C   UNL     1      34.236 -13.460 -23.357  0.00  0.00    +0.308 C 
ATOM     11  H   UNL     1      33.363 -12.635 -25.014  0.00  0.00    +0.156 HD
ATOM     12  H   UNL     1      33.598 -14.615 -24.911  0.00  0.00    +0.156 HD
BRANCH   8  14
ATOM     13 CL   UNL     1      33.837  -6.598 -22.952  0.00  0.00    -0.082 Cl
ATOM     14  C   UNL     1      33.767 -11.021 -23.858  0.00  0.00    +0.052 C 
ATOM     15  C   UNL     1      32.894  -9.134 -22.627  0.00  0.00    +0.083 C 
ATOM     16  C   UNL     1      32.882 -10.499 -22.916  0.00  0.00    +0.019 C 
ATOM     17  C   UNL     1      34.665 -10.177 -24.515  0.00  0.00    +0.016 C 
ATOM     18  C   UNL     1      33.791  -8.290 -23.284  0.00  0.00    +0.062 C 
ATOM     19  C   UNL     1      34.676  -8.813 -24.227  0.00  0.00    +0.013 C 
BRANCH  15  23
ATOM     20  F   UNL     1      32.536  -7.981 -20.563  0.00  0.00    -0.166 F 
ATOM     21  F   UNL     1      31.043  -7.710 -22.112  0.00  0.00    -0.166 F 
ATOM     22  F   UNL     1      31.176  -9.605 -21.053  0.00  0.00    -0.166 F 
ATOM     23  C   UNL     1      31.932  -8.615 -21.609  0.00  0.00    +0.419 C 
ENDBRANCH  15  23
ENDBRANCH   8  14
ENDBRANCH   1   9
BRANCH   2  24
ATOM     24  O   UNL     1      35.332 -19.785 -22.309  0.00  0.00    -0.453 OA
BRANCH  24  26
ATOM     25  N   UNL     1      33.401 -21.238 -18.928  0.00  0.00    -0.239 NA
ATOM     26  C   UNL     1      34.689 -20.270 -21.183  0.00  0.00    +0.149 C 
ATOM     27  C   UNL     1      35.433 -20.859 -20.182  0.00  0.00    +0.061 C 
ATOM     28  C   UNL     1      34.742 -21.326 -19.076  0.00  0.00    +0.137 C 
ATOM     29  C   UNL     1      33.318 -20.152 -21.087  0.00  0.00    +0.058 C 
ATOM     30  C   UNL     1      32.722 -20.653 -19.939  0.00  0.00    +0.102 C 
BRANCH  28  33
ATOM     31  O   UNL     1      34.991 -22.967 -17.419  0.00  0.00    -0.268 OA
ATOM     32  N   UNL     1      36.685 -21.395 -17.612  0.00  0.00    -0.298 N 
ATOM     33  C   UNL     1      35.457 -21.958 -17.980  0.00  0.00    +0.264 C 
ATOM     34  C   UNL     1      37.522 -21.923 -16.558  0.00  0.00    +0.111 C 
ATOM     35  H   UNL     1      36.995 -20.596 -18.096  0.00  0.00    +0.150 HD
ENDBRANCH  28  33
ENDBRANCH  24  26
ENDBRANCH   2  24
TORSDOF 6
ENDMDL
MODEL 5
REMARK VINA RESULT:     -11.3      2.362      3.383
REMARK  Name = 216239
REMARK  6 active torsions:
REMARK  status: ('A' for Active; 'I' for Inactive)
REMARK    1  A    between atoms: C_1  and  N_9
REMARK    2  A    between atoms: C_2  and  O_24
REMARK    3  A    between atoms: N_8  and  C_14
REMARK    4  A    between atoms: C_15  and  C_23
REMARK    5  A    between atoms: O_24  and  C_26
REMARK    6  A    between atoms: C_28  and  C_33
REMARK                            x       y       z     vdW  Elec       q    Type
REMARK                         _______ _______ _______ _____ _____    ______ ____
ROOT
ATOM      1  C   UNL     1      34.606 -15.771 -23.113  0.00  0.00    +0.052 C 
ATOM      2  C   UNL     1      35.344 -18.320 -22.317  0.00  0.00    +0.145 C 
ATOM      3  C   UNL     1      34.564 -16.806 -24.031  0.00  0.00    +0.018 C 
ATOM      4  C   UNL     1      35.008 -15.982 -21.805  0.00  0.00    +0.018 C 
ATOM      5  C   UNL     1      34.935 -18.090 -23.631  0.00  0.00    +0.039 C 
ATOM      6  C   UNL     1      35.381 -17.266 -21.404  0.00  0.00    +0.039 C 
ENDROOT
BRANCH   1   9
ATOM      7  O   UNL     1      33.928 -13.364 -21.481  0.00  0.00    -0.252 OA
ATOM      8  N   UNL     1      33.592 -12.249 -23.513  0.00  0.00    -0.268 N 
ATOM      9  N   UNL     1      34.229 -14.470 -23.519  0.00  0.00    -0.268 N 
ATOM     10  C   UNL     1      33.919 -13.366 -22.707  0.00  0.00    +0.308 C 
ATOM     11  H   UNL     1      33.626 -12.399 -24.486  0.00  0.00    +0.156 HD
ATOM     12  H   UNL     1      34.177 -14.318 -24.490  0.00  0.00    +0.156 HD
BRANCH   8  14
ATOM     13 CL   UNL     1      32.004  -6.819 -21.801  0.00  0.00    -0.082 Cl
ATOM     14  C   UNL     1      33.226 -10.963 -23.114  0.00  0.00    +0.052 C 
ATOM     15  C   UNL     1      33.592  -8.576 -23.151  0.00  0.00    +0.083 C 
ATOM     16  C   UNL     1      33.959  -9.861 -23.550  0.00  0.00    +0.019 C 
ATOM     17  C   UNL     1      32.124 -10.782 -22.277  0.00  0.00    +0.016 C 
ATOM     18  C   UNL     1      32.491  -8.393 -22.314  0.00  0.00    +0.062 C 
ATOM     19  C   UNL     1      31.756  -9.497 -21.878  0.00  0.00    +0.013 C 
BRANCH  15  23
ATOM     20  F   UNL     1      33.657  -6.315 -23.929  0.00  0.00    -0.166 F 
ATOM     21  F   UNL     1      35.344  -6.997 -22.748  0.00  0.00    -0.166 F 
ATOM     22  F   UNL     1      35.086  -7.711 -24.786  0.00  0.00    -0.166 F 
ATOM     23  C   UNL     1      34.403  -7.420 -23.642  0.00  0.00    +0.419 C 
ENDBRANCH  15  23
ENDBRANCH   8  14
ENDBRANCH   1   9
BRANCH   2  24
ATOM     24  O   UNL     1      35.708 -19.571 -21.927  0.00  0.00    -0.453 OA
BRANCH  24  26
ATOM     25  N   UNL     1      33.477 -21.380 -18.923  0.00  0.00    -0.239 NA
ATOM     26  C   UNL     1      34.965 -20.175 -20.926  0.00  0.00    +0.149 C 
ATOM     27  C   UNL     1      35.618 -20.822 -19.899  0.00  0.00    +0.061 C 
ATOM     28  C   UNL     1      34.830 -21.408 -18.922  0.00  0.00    +0.137 C 
ATOM     29  C   UNL     1      33.589 -20.114 -20.979  0.00  0.00    +0.058 C 
ATOM     30  C   UNL     1      32.891 -20.733 -19.954  0.00  0.00    +0.102 C 
BRANCH  28  33
ATOM     31  O   UNL     1      34.848 -23.040 -17.239  0.00  0.00    -0.268 OA
ATOM     32  N   UNL     1      36.730 -21.700 -17.430  0.00  0.00    -0.298 N 
ATOM     33  C   UNL     1      35.445 -22.108 -17.807  0.00  0.00    +0.264 C 
ATOM     34  C   UNL     1      37.480 -22.312 -16.357  0.00  0.00    +0.111 C 
ATOM     35  H   UNL     1      37.145 -20.954 -17.921  0.00  0.00    +0.150 HD
ENDBRANCH  28  33
ENDBRANCH  24  26
ENDBRANCH   2  24
TORSDOF 6
ENDMDL
MODEL 6
REMARK VINA RESULT:     -11.3      8.430     13.662
REMARK  Name = 216239
REMARK  6 active torsions:
REMARK  status: ('A' for Active; 'I' for Inactive)
REMARK    1  A    between atoms: C_1  and  N_9
REMARK    2  A    between atoms: C_2  and  O_24
REMARK    3  A    between atoms: N_8  and  C_14
REMARK    4  A    between atoms: C_15  and  C_23
REMARK    5  A    between atoms: O_24  and  C_26
REMARK    6  A    between atoms: C_28  and  C_33
REMARK                            x       y       z     vdW  Elec       q    Type
REMARK                         _______ _______ _______ _____ _____    ______ ____
ROOT
ATOM      1  C   UNL     1      35.461 -21.252 -19.077  0.00  0.00    +0.052 C 
ATOM      2  C   UNL     1      36.113 -19.394 -21.026  0.00  0.00    +0.145 C 
ATOM      3  C   UNL     1      36.787 -20.898 -19.259  0.00  0.00    +0.018 C 
ATOM      4  C   UNL     1      34.453 -20.698 -19.849  0.00  0.00    +0.018 C 
ATOM      5  C   UNL     1      37.115 -19.962 -20.240  0.00  0.00    +0.039 C 
ATOM      6  C   UNL     1      34.782 -19.763 -20.831  0.00  0.00    +0.039 C 
ENDROOT
BRANCH   1   9
ATOM      7  O   UNL     1      36.371 -21.469 -16.241  0.00  0.00    -0.252 OA
ATOM      8  N   UNL     1      35.009 -23.368 -16.092  0.00  0.00    -0.268 N 
ATOM      9  N   UNL     1      35.129 -22.201 -18.083  0.00  0.00    -0.268 N 
ATOM     10  C   UNL     1      35.587 -22.258 -16.756  0.00  0.00    +0.308 C 
ATOM     11  H   UNL     1      34.395 -23.918 -16.633  0.00  0.00    +0.156 HD
ATOM     12  H   UNL     1      34.500 -22.908 -18.352  0.00  0.00    +0.156 HD
BRANCH   8  14
ATOM     13 CL   UNL     1      35.745 -25.139 -10.502  0.00  0.00    -0.082 Cl
ATOM     14  C   UNL     1      35.193 -23.789 -14.775  0.00  0.00    +0.052 C 
ATOM     15  C   UNL     1      36.641 -24.593 -13.017  0.00  0.00    +0.083 C 
ATOM     16  C   UNL     1      36.458 -24.174 -14.335  0.00  0.00    +0.019 C 
ATOM     17  C   UNL     1      34.108 -23.824 -13.897  0.00  0.00    +0.016 C 
ATOM     18  C   UNL     1      35.557 -24.629 -12.139  0.00  0.00    +0.062 C 
ATOM     19  C   UNL     1      34.291 -24.243 -12.580  0.00  0.00    +0.013 C 
BRANCH  15  23
ATOM     20  F   UNL     1      38.510 -24.230 -11.569  0.00  0.00    -0.166 F 
ATOM     21  F   UNL     1      38.087 -26.282 -12.133  0.00  0.00    -0.166 F 
ATOM     22  F   UNL     1      38.927 -24.906 -13.594  0.00  0.00    -0.166 F 
ATOM     23  C   UNL     1      38.014 -24.996 -12.584  0.00  0.00    +0.419 C 
ENDBRANCH  15  23
ENDBRANCH   8  14
ENDBRANCH   1   9
BRANCH   2  24
ATOM     24  O   UNL     1      36.434 -18.483 -21.984  0.00  0.00    -0.453 OA
BRANCH  24  26
ATOM     25  N   UNL     1      33.492 -17.457 -24.735  0.00  0.00    -0.239 NA
ATOM     26  C   UNL     1      35.453 -18.140 -22.900  0.00  0.00    +0.149 C 
ATOM     27  C   UNL     1      35.190 -16.809 -23.139  0.00  0.00    +0.061 C 
ATOM     28  C   UNL     1      34.201 -16.519 -24.066  0.00  0.00    +0.137 C 
ATOM     29  C   UNL     1      34.763 -19.140 -23.553  0.00  0.00    +0.058 C 
ATOM     30  C   UNL     1      33.793 -18.745 -24.460  0.00  0.00    +0.102 C 
BRANCH  28  33
ATOM     31  O   UNL     1      33.516 -14.813 -25.521  0.00  0.00    -0.268 OA
ATOM     32  N   UNL     1      33.934 -14.218 -23.319  0.00  0.00    -0.298 N 
ATOM     33  C   UNL     1      33.866 -15.139 -24.372  0.00  0.00    +0.264 C 
ATOM     34  C   UNL     1      33.609 -12.817 -23.461  0.00  0.00    +0.111 C 
ATOM     35  H   UNL     1      34.219 -14.543 -22.434  0.00  0.00    +0.150 HD
ENDBRANCH  28  33
ENDBRANCH  24  26
ENDBRANCH   2  24
TORSDOF 6
ENDMDL
MODEL 7
REMARK VINA RESULT:     -11.2      7.450     12.694
REMARK  Name = 216239
REMARK  6 active torsions:
REMARK  status: ('A' for Active; 'I' for Inactive)
REMARK    1  A    between atoms: C_1  and  N_9
REMARK    2  A    between atoms: C_2  and  O_24
REMARK    3  A    between atoms: N_8  and  C_14
REMARK    4  A    between atoms: C_15  and  C_23
REMARK    5  A    between atoms: O_24  and  C_26
REMARK    6  A    between atoms: C_28  and  C_33
REMARK                            x       y       z     vdW  Elec       q    Type
REMARK                         _______ _______ _______ _____ _____    ______ ____
ROOT
ATOM      1  C   UNL     1      35.044 -21.189 -19.111  0.00  0.00    +0.052 C 
ATOM      2  C   UNL     1      35.863 -19.515 -21.160  0.00  0.00    +0.145 C 
ATOM      3  C   UNL     1      36.393 -20.922 -19.268  0.00  0.00    +0.018 C 
ATOM      4  C   UNL     1      34.094 -20.637 -19.955  0.00  0.00    +0.018 C 
ATOM      5  C   UNL     1      36.805 -20.079 -20.300  0.00  0.00    +0.039 C 
ATOM      6  C   UNL     1      34.507 -19.795 -20.988  0.00  0.00    +0.039 C 
ENDROOT
BRANCH   1   9
ATOM      7  O   UNL     1      32.299 -21.811 -18.112  0.00  0.00    -0.252 OA
ATOM      8  N   UNL     1      33.333 -23.222 -16.554  0.00  0.00    -0.268 N 
ATOM      9  N   UNL     1      34.626 -22.044 -18.064  0.00  0.00    -0.268 N 
ATOM     10  C   UNL     1      33.314 -22.304 -17.632  0.00  0.00    +0.308 C 
ATOM     11  H   UNL     1      34.225 -23.533 -16.273  0.00  0.00    +0.156 HD
ATOM     12  H   UNL     1      35.340 -22.515 -17.579  0.00  0.00    +0.156 HD
BRANCH   8  14
ATOM     13 CL   UNL     1      28.806 -25.456 -13.481  0.00  0.00    -0.082 Cl
ATOM     14  C   UNL     1      32.258 -23.744 -15.835  0.00  0.00    +0.052 C 
ATOM     15  C   UNL     1      29.877 -24.031 -15.542  0.00  0.00    +0.083 C 
ATOM     16  C   UNL     1      30.952 -23.507 -16.261  0.00  0.00    +0.019 C 
ATOM     17  C   UNL     1      32.491 -24.504 -14.688  0.00  0.00    +0.016 C 
ATOM     18  C   UNL     1      30.109 -24.791 -14.395  0.00  0.00    +0.062 C 
ATOM     19  C   UNL     1      31.416 -25.027 -13.969  0.00  0.00    +0.013 C 
BRANCH  15  23
ATOM     20  F   UNL     1      28.442 -22.812 -17.017  0.00  0.00    -0.166 F 
ATOM     21  F   UNL     1      27.873 -24.854 -16.555  0.00  0.00    -0.166 F 
ATOM     22  F   UNL     1      27.669 -23.302 -15.045  0.00  0.00    -0.166 F 
ATOM     23  C   UNL     1      28.492 -23.756 -16.033  0.00  0.00    +0.419 C 
ENDBRANCH  15  23
ENDBRANCH   8  14
ENDBRANCH   1   9
BRANCH   2  24
ATOM     24  O   UNL     1      36.266 -18.694 -22.168  0.00  0.00    -0.453 OA
BRANCH  24  26
ATOM     25  N   UNL     1      33.384 -17.381 -24.859  0.00  0.00    -0.239 NA
ATOM     26  C   UNL     1      35.305 -18.256 -23.063  0.00  0.00    +0.149 C 
ATOM     27  C   UNL     1      35.118 -16.902 -23.243  0.00  0.00    +0.061 C 
ATOM     28  C   UNL     1      34.146 -16.516 -24.152  0.00  0.00    +0.137 C 
ATOM     29  C   UNL     1      34.557 -19.185 -23.756  0.00  0.00    +0.058 C 
ATOM     30  C   UNL     1      33.609 -18.695 -24.641  0.00  0.00    +0.102 C 
BRANCH  28  33
ATOM     31  O   UNL     1      33.493 -14.720 -25.510  0.00  0.00    -0.268 OA
ATOM     32  N   UNL     1      34.090 -14.228 -23.324  0.00  0.00    -0.298 N 
ATOM     33  C   UNL     1      33.891 -15.106 -24.396  0.00  0.00    +0.264 C 
ATOM     34  C   UNL     1      33.857 -12.804 -23.404  0.00  0.00    +0.111 C 
ATOM     35  H   UNL     1      34.407 -14.600 -22.469  0.00  0.00    +0.150 HD
ENDBRANCH  28  33
ENDBRANCH  24  26
ENDBRANCH   2  24
TORSDOF 6
ENDMDL
MODEL 8
REMARK VINA RESULT:     -11.2      2.641      3.888
REMARK  Name = 216239
REMARK  6 active torsions:
REMARK  status: ('A' for Active; 'I' for Inactive)
REMARK    1  A    between atoms: C_1  and  N_9
REMARK    2  A    between atoms: C_2  and  O_24
REMARK    3  A    between atoms: N_8  and  C_14
REMARK    4  A    between atoms: C_15  and  C_23
REMARK    5  A    between atoms: O_24  and  C_26
REMARK    6  A    between atoms: C_28  and  C_33
REMARK                            x       y       z     vdW  Elec       q    Type
REMARK                         _______ _______ _______ _____ _____    ______ ____
ROOT
ATOM      1  C   UNL     1      34.940 -16.506 -22.561  0.00  0.00    +0.052 C 
ATOM      2  C   UNL     1      35.581 -18.982 -21.496  0.00  0.00    +0.145 C 
ATOM      3  C   UNL     1      35.303 -16.597 -21.228  0.00  0.00    +0.018 C 
ATOM      4  C   UNL     1      34.890 -17.627 -23.374  0.00  0.00    +0.018 C 
ATOM      5  C   UNL     1      35.626 -17.844 -20.692  0.00  0.00    +0.039 C 
ATOM      6  C   UNL     1      35.212 -18.874 -22.837  0.00  0.00    +0.039 C 
ENDROOT
BRANCH   1   9
ATOM      7  O   UNL     1      33.881 -14.053 -21.228  0.00  0.00    -0.252 OA
ATOM      8  N   UNL     1      33.921 -13.051 -23.344  0.00  0.00    -0.268 N 
ATOM      9  N   UNL     1      34.613 -15.242 -23.104  0.00  0.00    -0.268 N 
ATOM     10  C   UNL     1      34.115 -14.114 -22.430  0.00  0.00    +0.308 C 
ATOM     11  H   UNL     1      34.152 -13.245 -24.282  0.00  0.00    +0.156 HD
ATOM     12  H   UNL     1      34.750 -15.139 -24.073  0.00  0.00    +0.156 HD
BRANCH   8  14
ATOM     13 CL   UNL     1      31.868  -7.613 -22.271  0.00  0.00    -0.082 Cl
ATOM     14  C   UNL     1      33.445 -11.763 -23.095  0.00  0.00    +0.052 C 
ATOM     15  C   UNL     1      33.666  -9.369 -23.327  0.00  0.00    +0.083 C 
ATOM     16  C   UNL     1      34.143 -10.655 -23.575  0.00  0.00    +0.019 C 
ATOM     17  C   UNL     1      32.270 -11.585 -22.365  0.00  0.00    +0.016 C 
ATOM     18  C   UNL     1      32.490  -9.189 -22.597  0.00  0.00    +0.062 C 
ATOM     19  C   UNL     1      31.793 -10.298 -22.117  0.00  0.00    +0.013 C 
BRANCH  15  23
ATOM     20  F   UNL     1      33.655  -7.217 -24.372  0.00  0.00    -0.166 F 
ATOM     21  F   UNL     1      35.223  -7.598 -22.923  0.00  0.00    -0.166 F 
ATOM     22  F   UNL     1      35.287  -8.565 -24.870  0.00  0.00    -0.166 F 
ATOM     23  C   UNL     1      34.441  -8.208 -23.861  0.00  0.00    +0.419 C 
ENDBRANCH  15  23
ENDBRANCH   8  14
ENDBRANCH   1   9
BRANCH   2  24
ATOM     24  O   UNL     1      35.894 -20.198 -20.973  0.00  0.00    -0.453 OA
BRANCH  24  26
ATOM     25  N   UNL     1      33.218 -21.884 -18.277  0.00  0.00    -0.239 NA
ATOM     26  C   UNL     1      35.003 -20.761 -20.075  0.00  0.00    +0.149 C 
ATOM     27  C   UNL     1      35.488 -21.500 -19.017  0.00  0.00    +0.061 C 
ATOM     28  C   UNL     1      34.555 -22.040 -18.146  0.00  0.00    +0.137 C 
ATOM     29  C   UNL     1      33.650 -20.568 -20.258  0.00  0.00    +0.058 C 
ATOM     30  C   UNL     1      32.800 -21.151 -19.332  0.00  0.00    +0.102 C 
BRANCH  28  33
ATOM     31  O   UNL     1      34.287 -23.767 -16.583  0.00  0.00    -0.268 OA
ATOM     32  N   UNL     1      36.226 -22.504 -16.439  0.00  0.00    -0.298 N 
ATOM     33  C   UNL     1      34.989 -22.831 -17.007  0.00  0.00    +0.264 C 
ATOM     34  C   UNL     1      36.803 -23.212 -15.318  0.00  0.00    +0.111 C 
ATOM     35  H   UNL     1      36.731 -21.751 -16.823  0.00  0.00    +0.150 HD
ENDBRANCH  28  33
ENDBRANCH  24  26
ENDBRANCH   2  24
TORSDOF 6
ENDMDL
MODEL 9
REMARK VINA RESULT:     -11.2      7.119     11.835
REMARK  Name = 216239
REMARK  6 active torsions:
REMARK  status: ('A' for Active; 'I' for Inactive)
REMARK    1  A    between atoms: C_1  and  N_9
REMARK    2  A    between atoms: C_2  and  O_24
REMARK    3  A    between atoms: N_8  and  C_14
REMARK    4  A    between atoms: C_15  and  C_23
REMARK    5  A    between atoms: O_24  and  C_26
REMARK    6  A    between atoms: C_28  and  C_33
REMARK                            x       y       z     vdW  Elec       q    Type
REMARK                         _______ _______ _______ _____ _____    ______ ____
ROOT
ATOM      1  C   UNL     1      35.111 -18.769 -22.345  0.00  0.00    +0.052 C 
ATOM      2  C   UNL     1      34.373 -16.916 -24.267  0.00  0.00    +0.145 C 
ATOM      3  C   UNL     1      35.578 -17.470 -22.248  0.00  0.00    +0.018 C 
ATOM      4  C   UNL     1      34.283 -19.163 -23.383  0.00  0.00    +0.018 C 
ATOM      5  C   UNL     1      35.206 -16.536 -23.215  0.00  0.00    +0.039 C 
ATOM      6  C   UNL     1      33.912 -18.230 -24.352  0.00  0.00    +0.039 C 
ENDROOT
BRANCH   1   9
ATOM      7  O   UNL     1      33.554 -19.899 -20.061  0.00  0.00    -0.252 OA
ATOM      8  N   UNL     1      35.469 -21.148 -19.551  0.00  0.00    -0.268 N 
ATOM      9  N   UNL     1      35.488 -19.715 -21.364  0.00  0.00    -0.268 N 
ATOM     10  C   UNL     1      34.713 -20.216 -20.304  0.00  0.00    +0.308 C 
ATOM     11  H   UNL     1      36.390 -21.303 -19.864  0.00  0.00    +0.156 HD
ATOM     12  H   UNL     1      36.405 -20.065 -21.430  0.00  0.00    +0.156 HD
BRANCH   8  14
ATOM     13 CL   UNL     1      33.796 -24.227 -14.792  0.00  0.00    -0.082 Cl
ATOM     14  C   UNL     1      35.084 -21.874 -18.424  0.00  0.00    +0.052 C 
ATOM     15  C   UNL     1      35.603 -22.809 -16.258  0.00  0.00    +0.083 C 
ATOM     16  C   UNL     1      35.989 -22.083 -17.385  0.00  0.00    +0.019 C 
ATOM     17  C   UNL     1      33.791 -22.391 -18.338  0.00  0.00    +0.016 C 
ATOM     18  C   UNL     1      34.311 -23.326 -16.171  0.00  0.00    +0.062 C 
ATOM     19  C   UNL     1      33.405 -23.117 -17.211  0.00  0.00    +0.013 C 
BRANCH  15  23
ATOM     20  F   UNL     1      37.731 -22.256 -15.315  0.00  0.00    -0.166 F 
ATOM     21  F   UNL     1      36.124 -22.697 -13.926  0.00  0.00    -0.166 F 
ATOM     22  F   UNL     1      37.031 -24.301 -15.080  0.00  0.00    -0.166 F 
ATOM     23  C   UNL     1      36.603 -23.009 -15.165  0.00  0.00    +0.419 C 
ENDBRANCH  15  23
ENDBRANCH   8  14
ENDBRANCH   1   9
BRANCH   2  24
ATOM     24  O   UNL     1      34.012 -16.006 -25.213  0.00  0.00    -0.453 OA
BRANCH  24  26
ATOM     25  N   UNL     1      33.113 -12.152 -23.940  0.00  0.00    -0.239 NA
ATOM     26  C   UNL     1      33.712 -14.722 -24.788  0.00  0.00    +0.149 C 
ATOM     27  C   UNL     1      33.348 -14.514 -23.475  0.00  0.00    +0.061 C 
ATOM     28  C   UNL     1      33.059 -13.211 -23.101  0.00  0.00    +0.137 C 
ATOM     29  C   UNL     1      33.784 -13.681 -25.690  0.00  0.00    +0.058 C 
ATOM     30  C   UNL     1      33.475 -12.416 -25.216  0.00  0.00    +0.102 C 
BRANCH  28  33
ATOM     31  O   UNL     1      32.932 -13.706 -20.812  0.00  0.00    -0.268 OA
ATOM     32  N   UNL     1      32.014 -11.694 -21.511  0.00  0.00    -0.298 N 
ATOM     33  C   UNL     1      32.669 -12.912 -21.734  0.00  0.00    +0.264 C 
ATOM     34  C   UNL     1      31.585 -11.245 -20.206  0.00  0.00    +0.111 C 
ATOM     35  H   UNL     1      31.836 -11.113 -22.285  0.00  0.00    +0.150 HD
ENDBRANCH  28  33
ENDBRANCH  24  26
ENDBRANCH   2  24
TORSDOF 6
ENDMDL
