MODEL 1
REMARK VINA RESULT:     -11.2      0.000      0.000
REMARK  Name = 100472
REMARK  3 active torsions:
REMARK  status: ('A' for Active; 'I' for Inactive)
REMARK    1  A    between atoms: C_1  and  C_13
REMARK    2  A    between atoms: C_2  and  C_7
REMARK    3  A    between atoms: C_13  and  C_16
REMARK                            x       y       z     vdW  Elec       q    Type
REMARK                         _______ _______ _______ _____ _____    ______ ____
ROOT
ATOM      1  C   UNL     1      35.098 -19.936 -21.080  0.00  0.00    -0.013 C 
ATOM      2  C   UNL     1      34.257 -21.452 -18.893  0.00  0.00    -0.000 C 
ATOM      3  C   UNL     1      36.039 -20.515 -20.228  0.00  0.00    -0.004 C 
ATOM      4  C   UNL     1      33.736 -20.115 -20.837  0.00  0.00    -0.004 C 
ATOM      5  C   UNL     1      35.619 -21.273 -19.135  0.00  0.00    -0.000 C 
ATOM      6  C   UNL     1      33.315 -20.873 -19.744  0.00  0.00    -0.000 C 
ENDROOT
BRANCH   2   7
ATOM      7  C   UNL     1      33.820 -22.237 -17.758  0.00  0.00    -0.000 C 
ATOM      8  C   UNL     1      32.460 -22.446 -17.537  0.00  0.00    -0.000 C 
ATOM      9  C   UNL     1      34.762 -22.784 -16.887  0.00  0.00    -0.000 C 
ATOM     10  C   UNL     1      32.039 -23.204 -16.444  0.00  0.00    +0.000 C 
ATOM     11  C   UNL     1      34.342 -23.542 -15.793  0.00  0.00    +0.000 C 
ATOM     12  C   UNL     1      32.980 -23.752 -15.573  0.00  0.00    +0.000 C 
ENDBRANCH   2   7
BRANCH   1  13
ATOM     13  C   UNL     1      35.547 -19.126 -22.248  0.00  0.00    +0.112 C 
BRANCH  13  16
ATOM     14  O   UNL     1      35.441 -17.020 -21.082  0.00  0.00    -0.274 OA
ATOM     15  N   UNL     1      34.734 -17.131 -23.319  0.00  0.00    -0.269 N 
ATOM     16  C   UNL     1      35.242 -17.636 -22.124  0.00  0.00    +0.232 C 
ATOM     17  H   UNL     1      34.641 -17.774 -24.058  0.00  0.00    +0.156 HD
ATOM     18  N   UNL     1      33.870 -15.524 -24.824  0.00  0.00    -0.229 NA
ATOM     19  C   UNL     1      34.337 -15.801 -23.593  0.00  0.00    +0.134 C 
ATOM     20  C   UNL     1      34.465 -14.888 -22.568  0.00  0.00    +0.034 C 
ATOM     21  C   UNL     1      34.078 -13.579 -22.828  0.00  0.00    +0.004 C 
ATOM     22  C   UNL     1      33.588 -13.240 -24.085  0.00  0.00    +0.021 C 
ATOM     23  C   UNL     1      33.506 -14.241 -25.039  0.00  0.00    +0.100 C 
ENDBRANCH  13  16
ENDBRANCH   1  13
TORSDOF 3
ENDMDL
MODEL 2
REMARK VINA RESULT:     -11.1      0.453      1.127
REMARK  Name = 100472
REMARK  3 active torsions:
REMARK  status: ('A' for Active; 'I' for Inactive)
REMARK    1  A    between atoms: C_1  and  C_13
REMARK    2  A    between atoms: C_2  and  C_7
REMARK    3  A    between atoms: C_13  and  C_16
REMARK                            x       y       z     vdW  Elec       q    Type
REMARK                         _______ _______ _______ _____ _____    ______ ____
ROOT
ATOM      1  C   UNL     1      35.262 -19.751 -21.319  0.00  0.00    -0.013 C 
ATOM      2  C   UNL     1      34.650 -21.313 -19.089  0.00  0.00    -0.000 C 
ATOM      3  C   UNL     1      33.931 -20.029 -21.005  0.00  0.00    -0.004 C 
ATOM      4  C   UNL     1      36.286 -20.255 -20.518  0.00  0.00    -0.004 C 
ATOM      5  C   UNL     1      33.625 -20.809 -19.891  0.00  0.00    -0.000 C 
ATOM      6  C   UNL     1      35.981 -21.035 -19.403  0.00  0.00    -0.000 C 
ENDROOT
BRANCH   2   7
ATOM      7  C   UNL     1      34.334 -22.124 -17.933  0.00  0.00    -0.000 C 
ATOM      8  C   UNL     1      33.041 -22.616 -17.760  0.00  0.00    -0.000 C 
ATOM      9  C   UNL     1      35.322 -22.412 -16.993  0.00  0.00    -0.000 C 
ATOM     10  C   UNL     1      32.736 -23.398 -16.646  0.00  0.00    +0.000 C 
ATOM     11  C   UNL     1      35.018 -23.195 -15.879  0.00  0.00    +0.000 C 
ATOM     12  C   UNL     1      33.724 -23.687 -15.706  0.00  0.00    +0.000 C 
ENDBRANCH   2   7
BRANCH   1  13
ATOM     13  C   UNL     1      35.588 -18.916 -22.511  0.00  0.00    +0.112 C 
BRANCH  13  16
ATOM     14  O   UNL     1      35.473 -16.843 -21.285  0.00  0.00    -0.274 OA
ATOM     15  N   UNL     1      34.715 -16.907 -23.507  0.00  0.00    -0.269 N 
ATOM     16  C   UNL     1      35.260 -17.435 -22.339  0.00  0.00    +0.232 C 
ATOM     17  H   UNL     1      34.615 -17.532 -24.261  0.00  0.00    +0.156 HD
ATOM     18  N   UNL     1      33.788 -15.276 -24.947  0.00  0.00    -0.229 NA
ATOM     19  C   UNL     1      34.288 -15.577 -23.735  0.00  0.00    +0.134 C 
ATOM     20  C   UNL     1      34.425 -14.690 -22.689  0.00  0.00    +0.034 C 
ATOM     21  C   UNL     1      34.009 -13.382 -22.904  0.00  0.00    +0.004 C 
ATOM     22  C   UNL     1      33.484 -13.018 -24.139  0.00  0.00    +0.021 C 
ATOM     23  C   UNL     1      33.396 -13.994 -25.118  0.00  0.00    +0.100 C 
ENDBRANCH  13  16
ENDBRANCH   1  13
TORSDOF 3
ENDMDL
MODEL 3
REMARK VINA RESULT:     -10.9      2.099      3.672
REMARK  Name = 100472
REMARK  3 active torsions:
REMARK  status: ('A' for Active; 'I' for Inactive)
REMARK    1  A    between atoms: C_1  and  C_13
REMARK    2  A    between atoms: C_2  and  C_7
REMARK    3  A    between atoms: C_13  and  C_16
REMARK                            x       y       z     vdW  Elec       q    Type
REMARK                         _______ _______ _______ _____ _____    ______ ____
ROOT
ATOM      1  C   UNL     1      34.937 -17.449 -23.278  0.00  0.00    -0.013 C 
ATOM      2  C   UNL     1      34.905 -19.368 -21.253  0.00  0.00    -0.000 C 
ATOM      3  C   UNL     1      35.624 -17.217 -22.086  0.00  0.00    -0.004 C 
ATOM      4  C   UNL     1      34.234 -18.641 -23.457  0.00  0.00    -0.004 C 
ATOM      5  C   UNL     1      35.608 -18.177 -21.074  0.00  0.00    -0.000 C 
ATOM      6  C   UNL     1      34.218 -19.600 -22.445  0.00  0.00    -0.000 C 
ENDROOT
BRANCH   2   7
ATOM      7  C   UNL     1      34.888 -20.364 -20.203  0.00  0.00    -0.000 C 
ATOM      8  C   UNL     1      36.083 -20.788 -19.624  0.00  0.00    -0.000 C 
ATOM      9  C   UNL     1      33.675 -20.898 -19.770  0.00  0.00    -0.000 C 
ATOM     10  C   UNL     1      36.066 -21.747 -18.611  0.00  0.00    +0.000 C 
ATOM     11  C   UNL     1      33.657 -21.857 -18.757  0.00  0.00    +0.000 C 
ATOM     12  C   UNL     1      34.854 -22.281 -18.178  0.00  0.00    +0.000 C 
ENDBRANCH   2   7
BRANCH   1  13
ATOM     13  C   UNL     1      34.955 -16.423 -24.360  0.00  0.00    +0.112 C 
BRANCH  13  16
ATOM     14  O   UNL     1      33.588 -14.532 -24.967  0.00  0.00    -0.274 OA
ATOM     15  N   UNL     1      33.976 -14.987 -22.696  0.00  0.00    -0.269 N 
ATOM     16  C   UNL     1      34.091 -15.199 -24.068  0.00  0.00    +0.232 C 
ATOM     17  H   UNL     1      34.450 -15.627 -22.116  0.00  0.00    +0.156 HD
ATOM     18  N   UNL     1      33.281 -13.937 -20.695  0.00  0.00    -0.229 NA
ATOM     19  C   UNL     1      33.260 -13.959 -22.039  0.00  0.00    +0.134 C 
ATOM     20  C   UNL     1      32.590 -13.057 -22.839  0.00  0.00    +0.034 C 
ATOM     21  C   UNL     1      31.883 -12.044 -22.203  0.00  0.00    +0.004 C 
ATOM     22  C   UNL     1      31.872 -11.976 -20.814  0.00  0.00    +0.021 C 
ATOM     23  C   UNL     1      32.580 -12.938 -20.112  0.00  0.00    +0.100 C 
ENDBRANCH  13  16
ENDBRANCH   1  13
TORSDOF 3
ENDMDL
MODEL 4
REMARK VINA RESULT:     -10.8      4.751      9.910
REMARK  Name = 100472
REMARK  3 active torsions:
REMARK  status: ('A' for Active; 'I' for Inactive)
REMARK    1  A    between atoms: C_1  and  C_13
REMARK    2  A    between atoms: C_2  and  C_7
REMARK    3  A    between atoms: C_13  and  C_16
REMARK                            x       y       z     vdW  Elec       q    Type
REMARK                         _______ _______ _______ _____ _____    ______ ____
ROOT
ATOM      1  C   UNL     1      34.059 -22.615 -17.603  0.00  0.00    -0.013 C 
ATOM      2  C   UNL     1      34.768 -20.878 -19.669  0.00  0.00    -0.000 C 
ATOM      3  C   UNL     1      33.069 -22.022 -18.388  0.00  0.00    -0.004 C 
ATOM      4  C   UNL     1      35.404 -22.339 -17.852  0.00  0.00    -0.004 C 
ATOM      5  C   UNL     1      33.423 -21.154 -19.420  0.00  0.00    -0.000 C 
ATOM      6  C   UNL     1      35.758 -21.471 -18.885  0.00  0.00    -0.000 C 
ENDROOT
BRANCH   2   7
ATOM      7  C   UNL     1      35.136 -19.977 -20.739  0.00  0.00    -0.000 C 
ATOM      8  C   UNL     1      34.273 -19.785 -21.818  0.00  0.00    -0.000 C 
ATOM      9  C   UNL     1      36.355 -19.300 -20.692  0.00  0.00    -0.000 C 
ATOM     10  C   UNL     1      34.628 -18.916 -22.849  0.00  0.00    +0.000 C 
ATOM     11  C   UNL     1      36.710 -18.430 -21.724  0.00  0.00    +0.000 C 
ATOM     12  C   UNL     1      35.845 -18.239 -22.802  0.00  0.00    +0.000 C 
ENDBRANCH   2   7
BRANCH   1  13
ATOM     13  C   UNL     1      33.680 -23.543 -16.500  0.00  0.00    +0.112 C 
BRANCH  13  16
ATOM     14  O   UNL     1      34.786 -22.511 -14.623  0.00  0.00    -0.274 OA
ATOM     15  N   UNL     1      35.267 -24.748 -15.152  0.00  0.00    -0.269 N 
ATOM     16  C   UNL     1      34.637 -23.517 -15.311  0.00  0.00    +0.232 C 
ATOM     17  H   UNL     1      35.025 -25.448 -15.801  0.00  0.00    +0.156 HD
ATOM     18  N   UNL     1      36.704 -26.364 -14.193  0.00  0.00    -0.229 NA
ATOM     19  C   UNL     1      36.216 -25.111 -14.166  0.00  0.00    +0.134 C 
ATOM     20  C   UNL     1      36.563 -24.142 -13.249  0.00  0.00    +0.034 C 
ATOM     21  C   UNL     1      37.493 -24.489 -12.276  0.00  0.00    +0.004 C 
ATOM     22  C   UNL     1      38.029 -25.772 -12.260  0.00  0.00    +0.021 C 
ATOM     23  C   UNL     1      37.605 -26.664 -13.231  0.00  0.00    +0.100 C 
ENDBRANCH  13  16
ENDBRANCH   1  13
TORSDOF 3
ENDMDL
MODEL 5
REMARK VINA RESULT:     -10.8      2.236      8.933
REMARK  Name = 100472
REMARK  3 active torsions:
REMARK  status: ('A' for Active; 'I' for Inactive)
REMARK    1  A    between atoms: C_1  and  C_13
REMARK    2  A    between atoms: C_2  and  C_7
REMARK    3  A    between atoms: C_13  and  C_16
REMARK                            x       y       z     vdW  Elec       q    Type
REMARK                         _______ _______ _______ _____ _____    ______ ____
ROOT
ATOM      1  C   UNL     1      34.852 -16.666 -23.151  0.00  0.00    -0.013 C 
ATOM      2  C   UNL     1      33.806 -14.087 -22.942  0.00  0.00    -0.000 C 
ATOM      3  C   UNL     1      34.926 -15.979 -21.938  0.00  0.00    -0.004 C 
ATOM      4  C   UNL     1      34.255 -16.063 -24.258  0.00  0.00    -0.004 C 
ATOM      5  C   UNL     1      34.403 -14.690 -21.834  0.00  0.00    -0.000 C 
ATOM      6  C   UNL     1      33.732 -14.775 -24.154  0.00  0.00    -0.000 C 
ENDROOT
BRANCH   2   7
ATOM      7  C   UNL     1      33.264 -12.750 -22.834  0.00  0.00    -0.000 C 
ATOM      8  C   UNL     1      32.287 -12.468 -21.880  0.00  0.00    -0.000 C 
ATOM      9  C   UNL     1      33.720 -11.744 -23.685  0.00  0.00    -0.000 C 
ATOM     10  C   UNL     1      31.765 -11.179 -21.776  0.00  0.00    +0.000 C 
ATOM     11  C   UNL     1      33.198 -10.453 -23.581  0.00  0.00    +0.000 C 
ATOM     12  C   UNL     1      32.221 -10.172 -22.626  0.00  0.00    +0.000 C 
ENDBRANCH   2   7
BRANCH   1  13
ATOM     13  C   UNL     1      35.411 -18.044 -23.262  0.00  0.00    +0.112 C 
BRANCH  13  16
ATOM     14  O   UNL     1      33.644 -19.419 -22.370  0.00  0.00    -0.274 OA
ATOM     15  N   UNL     1      35.742 -19.418 -21.315  0.00  0.00    -0.269 N 
ATOM     16  C   UNL     1      34.807 -19.040 -22.275  0.00  0.00    +0.232 C 
ATOM     17  H   UNL     1      36.635 -19.011 -21.393  0.00  0.00    +0.156 HD
ATOM     18  N   UNL     1      36.602 -20.547 -19.423  0.00  0.00    -0.229 NA
ATOM     19  C   UNL     1      35.558 -20.321 -20.240  0.00  0.00    +0.134 C 
ATOM     20  C   UNL     1      34.313 -20.901 -20.120  0.00  0.00    +0.034 C 
ATOM     21  C   UNL     1      34.123 -21.789 -19.068  0.00  0.00    +0.004 C 
ATOM     22  C   UNL     1      35.170 -22.058 -18.194  0.00  0.00    +0.021 C 
ATOM     23  C   UNL     1      36.379 -21.417 -18.413  0.00  0.00    +0.100 C 
ENDBRANCH  13  16
ENDBRANCH   1  13
TORSDOF 3
ENDMDL
MODEL 6
REMARK VINA RESULT:     -10.8      3.960      9.260
REMARK  Name = 100472
REMARK  3 active torsions:
REMARK  status: ('A' for Active; 'I' for Inactive)
REMARK    1  A    between atoms: C_1  and  C_13
REMARK    2  A    between atoms: C_2  and  C_7
REMARK    3  A    between atoms: C_13  and  C_16
REMARK                            x       y       z     vdW  Elec       q    Type
REMARK                         _______ _______ _______ _____ _____    ______ ____
ROOT
ATOM      1  C   UNL     1      34.716 -21.646 -18.873  0.00  0.00    -0.013 C 
ATOM      2  C   UNL     1      34.742 -19.800 -20.966  0.00  0.00    -0.000 C 
ATOM      3  C   UNL     1      35.928 -21.136 -19.340  0.00  0.00    -0.004 C 
ATOM      4  C   UNL     1      33.517 -21.232 -19.454  0.00  0.00    -0.004 C 
ATOM      5  C   UNL     1      35.941 -20.213 -20.385  0.00  0.00    -0.000 C 
ATOM      6  C   UNL     1      33.530 -20.310 -20.499  0.00  0.00    -0.000 C 
ENDROOT
BRANCH   2   7
ATOM      7  C   UNL     1      34.755 -18.843 -22.051  0.00  0.00    -0.000 C 
ATOM      8  C   UNL     1      34.228 -19.191 -23.294  0.00  0.00    -0.000 C 
ATOM      9  C   UNL     1      35.295 -17.572 -21.853  0.00  0.00    -0.000 C 
ATOM     10  C   UNL     1      34.240 -18.268 -24.340  0.00  0.00    +0.000 C 
ATOM     11  C   UNL     1      35.307 -16.649 -22.898  0.00  0.00    +0.000 C 
ATOM     12  C   UNL     1      34.779 -16.997 -24.142  0.00  0.00    +0.000 C 
ENDBRANCH   2   7
BRANCH   1  13
ATOM     13  C   UNL     1      34.703 -22.633 -17.755  0.00  0.00    +0.112 C 
BRANCH  13  16
ATOM     14  O   UNL     1      32.293 -22.613 -17.800  0.00  0.00    -0.274 OA
ATOM     15  N   UNL     1      33.400 -23.494 -15.925  0.00  0.00    -0.269 N 
ATOM     16  C   UNL     1      33.313 -22.901 -17.183  0.00  0.00    +0.232 C 
ATOM     17  H   UNL     1      34.308 -23.654 -15.581  0.00  0.00    +0.156 HD
ATOM     18  N   UNL     1      32.640 -24.448 -13.899  0.00  0.00    -0.229 NA
ATOM     19  C   UNL     1      32.333 -23.891 -15.084  0.00  0.00    +0.134 C 
ATOM     20  C   UNL     1      31.055 -23.674 -15.553  0.00  0.00    +0.034 C 
ATOM     21  C   UNL     1      30.001 -24.061 -14.734  0.00  0.00    +0.004 C 
ATOM     22  C   UNL     1      30.264 -24.643 -13.499  0.00  0.00    +0.021 C 
ATOM     23  C   UNL     1      31.589 -24.813 -13.132  0.00  0.00    +0.100 C 
ENDBRANCH  13  16
ENDBRANCH   1  13
TORSDOF 3
ENDMDL
MODEL 7
REMARK VINA RESULT:     -10.8      4.184      8.704
REMARK  Name = 100472
REMARK  3 active torsions:
REMARK  status: ('A' for Active; 'I' for Inactive)
REMARK    1  A    between atoms: C_1  and  C_13
REMARK    2  A    between atoms: C_2  and  C_7
REMARK    3  A    between atoms: C_13  and  C_16
REMARK                            x       y       z     vdW  Elec       q    Type
REMARK                         _______ _______ _______ _____ _____    ______ ____
ROOT
ATOM      1  C   UNL     1      33.978 -22.470 -18.156  0.00  0.00    -0.013 C 
ATOM      2  C   UNL     1      34.487 -20.515 -20.081  0.00  0.00    -0.000 C 
ATOM      3  C   UNL     1      32.918 -21.800 -18.767  0.00  0.00    -0.004 C 
ATOM      4  C   UNL     1      35.293 -22.162 -18.507  0.00  0.00    -0.004 C 
ATOM      5  C   UNL     1      33.172 -20.823 -19.730  0.00  0.00    -0.000 C 
ATOM      6  C   UNL     1      35.547 -21.185 -19.470  0.00  0.00    -0.000 C 
ENDROOT
BRANCH   2   7
ATOM      7  C   UNL     1      34.751 -19.502 -21.080  0.00  0.00    -0.000 C 
ATOM      8  C   UNL     1      35.501 -18.374 -20.747  0.00  0.00    -0.000 C 
ATOM      9  C   UNL     1      34.255 -19.653 -22.374  0.00  0.00    -0.000 C 
ATOM     10  C   UNL     1      35.757 -17.397 -21.710  0.00  0.00    +0.000 C 
ATOM     11  C   UNL     1      34.510 -18.676 -23.337  0.00  0.00    +0.000 C 
ATOM     12  C   UNL     1      35.261 -17.549 -23.004  0.00  0.00    +0.000 C 
ENDBRANCH   2   7
BRANCH   1  13
ATOM     13  C   UNL     1      33.706 -23.514 -17.127  0.00  0.00    +0.112 C 
BRANCH  13  16
ATOM     14  O   UNL     1      32.800 -22.816 -15.005  0.00  0.00    -0.274 OA
ATOM     15  N   UNL     1      31.337 -23.270 -16.785  0.00  0.00    -0.269 N 
ATOM     16  C   UNL     1      32.578 -23.155 -16.163  0.00  0.00    +0.232 C 
ATOM     17  H   UNL     1      31.347 -23.557 -17.727  0.00  0.00    +0.156 HD
ATOM     18  N   UNL     1      28.983 -23.195 -17.003  0.00  0.00    -0.229 NA
ATOM     19  C   UNL     1      30.063 -23.022 -16.220  0.00  0.00    +0.134 C 
ATOM     20  C   UNL     1      30.034 -22.617 -14.903  0.00  0.00    +0.034 C 
ATOM     21  C   UNL     1      28.787 -22.370 -14.339  0.00  0.00    +0.004 C 
ATOM     22  C   UNL     1      27.639 -22.534 -15.106  0.00  0.00    +0.021 C 
ATOM     23  C   UNL     1      27.790 -22.944 -16.421  0.00  0.00    +0.100 C 
ENDBRANCH  13  16
ENDBRANCH   1  13
TORSDOF 3
ENDMDL
MODEL 8
REMARK VINA RESULT:     -10.7      2.116      8.707
REMARK  Name = 100472
REMARK  3 active torsions:
REMARK  status: ('A' for Active; 'I' for Inactive)
REMARK    1  A    between atoms: C_1  and  C_13
REMARK    2  A    between atoms: C_2  and  C_7
REMARK    3  A    between atoms: C_13  and  C_16
REMARK                            x       y       z     vdW  Elec       q    Type
REMARK                         _______ _______ _______ _____ _____    ______ ____
ROOT
ATOM      1  C   UNL     1      34.668 -16.413 -23.438  0.00  0.00    -0.013 C 
ATOM      2  C   UNL     1      33.544 -13.944 -22.784  0.00  0.00    -0.000 C 
ATOM      3  C   UNL     1      33.920 -15.713 -24.386  0.00  0.00    -0.004 C 
ATOM      4  C   UNL     1      34.854 -15.878 -22.163  0.00  0.00    -0.004 C 
ATOM      5  C   UNL     1      33.359 -14.479 -24.059  0.00  0.00    -0.000 C 
ATOM      6  C   UNL     1      34.292 -14.644 -21.836  0.00  0.00    -0.000 C 
ENDROOT
BRANCH   2   7
ATOM      7  C   UNL     1      32.961 -12.664 -22.444  0.00  0.00    -0.000 C 
ATOM      8  C   UNL     1      33.257 -11.537 -23.210  0.00  0.00    -0.000 C 
ATOM      9  C   UNL     1      32.103 -12.558 -21.350  0.00  0.00    -0.000 C 
ATOM     10  C   UNL     1      32.694 -10.304 -22.883  0.00  0.00    +0.000 C 
ATOM     11  C   UNL     1      31.540 -11.325 -21.022  0.00  0.00    +0.000 C 
ATOM     12  C   UNL     1      31.836 -10.198 -21.790  0.00  0.00    +0.000 C 
ENDBRANCH   2   7
BRANCH   1  13
ATOM     13  C   UNL     1      35.269 -17.732 -23.788  0.00  0.00    +0.112 C 
BRANCH  13  16
ATOM     14  O   UNL     1      36.812 -18.674 -22.193  0.00  0.00    -0.274 OA
ATOM     15  N   UNL     1      34.526 -19.186 -22.021  0.00  0.00    -0.269 N 
ATOM     16  C   UNL     1      35.650 -18.580 -22.577  0.00  0.00    +0.232 C 
ATOM     17  H   UNL     1      33.667 -18.999 -22.464  0.00  0.00    +0.156 HD
ATOM     18  N   UNL     1      33.277 -20.523 -20.523  0.00  0.00    -0.229 NA
ATOM     19  C   UNL     1      34.476 -20.042 -20.895  0.00  0.00    +0.134 C 
ATOM     20  C   UNL     1      35.672 -20.312 -20.264  0.00  0.00    +0.034 C 
ATOM     21  C   UNL     1      35.633 -21.150 -19.156  0.00  0.00    +0.004 C 
ATOM     22  C   UNL     1      34.417 -21.674 -18.729  0.00  0.00    +0.021 C 
ATOM     23  C   UNL     1      33.279 -21.333 -19.440  0.00  0.00    +0.100 C 
ENDBRANCH  13  16
ENDBRANCH   1  13
TORSDOF 3
ENDMDL
MODEL 9
REMARK VINA RESULT:     -10.6      1.133      1.988
REMARK  Name = 100472
REMARK  3 active torsions:
REMARK  status: ('A' for Active; 'I' for Inactive)
REMARK    1  A    between atoms: C_1  and  C_13
REMARK    2  A    between atoms: C_2  and  C_7
REMARK    3  A    between atoms: C_13  and  C_16
REMARK                            x       y       z     vdW  Elec       q    Type
REMARK                         _______ _______ _______ _____ _____    ______ ____
ROOT
ATOM      1  C   UNL     1      35.299 -21.003 -19.755  0.00  0.00    -0.013 C 
ATOM      2  C   UNL     1      33.790 -22.203 -17.738  0.00  0.00    -0.000 C 
ATOM      3  C   UNL     1      33.907 -20.928 -19.787  0.00  0.00    -0.004 C 
ATOM      4  C   UNL     1      35.937 -21.680 -18.715  0.00  0.00    -0.004 C 
ATOM      5  C   UNL     1      33.152 -21.527 -18.779  0.00  0.00    -0.000 C 
ATOM      6  C   UNL     1      35.183 -22.279 -17.706  0.00  0.00    -0.000 C 
ENDROOT
BRANCH   2   7
ATOM      7  C   UNL     1      33.007 -22.826 -16.692  0.00  0.00    -0.000 C 
ATOM      8  C   UNL     1      31.615 -22.825 -16.769  0.00  0.00    -0.000 C 
ATOM      9  C   UNL     1      33.646 -23.427 -15.608  0.00  0.00    -0.000 C 
ATOM     10  C   UNL     1      30.861 -23.426 -15.761  0.00  0.00    +0.000 C 
ATOM     11  C   UNL     1      32.892 -24.028 -14.600  0.00  0.00    +0.000 C 
ATOM     12  C   UNL     1      31.499 -24.027 -14.677  0.00  0.00    +0.000 C 
ENDBRANCH   2   7
BRANCH   1  13
ATOM     13  C   UNL     1      36.106 -20.362 -20.833  0.00  0.00    +0.112 C 
BRANCH  13  16
ATOM     14  O   UNL     1      35.978 -18.050 -20.164  0.00  0.00    -0.274 OA
ATOM     15  N   UNL     1      35.296 -18.659 -22.327  0.00  0.00    -0.269 N 
ATOM     16  C   UNL     1      35.793 -18.883 -21.045  0.00  0.00    +0.232 C 
ATOM     17  H   UNL     1      35.213 -19.451 -22.906  0.00  0.00    +0.156 HD
ATOM     18  N   UNL     1      34.441 -17.431 -24.159  0.00  0.00    -0.229 NA
ATOM     19  C   UNL     1      34.896 -17.425 -22.893  0.00  0.00    +0.134 C 
ATOM     20  C   UNL     1      35.009 -16.307 -22.094  0.00  0.00    +0.034 C 
ATOM     21  C   UNL     1      34.619 -15.091 -22.642  0.00  0.00    +0.004 C 
ATOM     22  C   UNL     1      34.142 -15.042 -23.947  0.00  0.00    +0.021 C 
ATOM     23  C   UNL     1      34.074 -16.230 -24.657  0.00  0.00    +0.100 C 
ENDBRANCH  13  16
ENDBRANCH   1  13
TORSDOF 3
ENDMDL
