MODEL 1
REMARK VINA RESULT:     -11.8      0.000      0.000
REMARK  Name = 44129603
REMARK  3 active torsions:
REMARK  status: ('A' for Active; 'I' for Inactive)
REMARK    1  A    between atoms: N_5  and  C_17
REMARK    2  A    between atoms: C_12  and  C_24
REMARK    3  A    between atoms: C_24  and  O_25
REMARK                            x       y       z     vdW  Elec       q    Type
REMARK                         _______ _______ _______ _____ _____    ______ ____
ROOT
ATOM      1  N   UNL     1      36.619 -23.041 -14.614  0.00  0.00    -0.246 N 
ATOM      2  N   UNL     1      37.581 -23.130 -13.673  0.00  0.00    -0.163 NA
ATOM      3  N   UNL     1      34.047 -22.936 -16.090  0.00  0.00    -0.336 NA
ATOM      4  N   UNL     1      31.732 -23.623 -16.144  0.00  0.00    -0.170 NA
ATOM      5  N   UNL     1      32.687 -22.443 -17.935  0.00  0.00    -0.247 N 
ATOM      6  C   UNL     1      34.419 -24.249 -12.013  0.00  0.00    +0.035 C 
ATOM      7  C   UNL     1      35.561 -23.797 -12.853  0.00  0.00    +0.024 A 
ATOM      8  C   UNL     1      33.272 -24.832 -12.883  0.00  0.00    +0.035 C 
ATOM      9  C   UNL     1      35.395 -23.436 -14.171  0.00  0.00    +0.106 A 
ATOM     10  C   UNL     1      33.078 -24.142 -14.216  0.00  0.00    +0.030 C 
ATOM     11  C   UNL     1      34.134 -23.504 -14.872  0.00  0.00    +0.158 C 
ATOM     12  C   UNL     1      36.926 -23.589 -12.598  0.00  0.00    +0.174 A 
ATOM     13  C   UNL     1      31.891 -24.177 -14.921  0.00  0.00    +0.110 C 
ATOM     14  C   UNL     1      36.977 -22.537 -15.920  0.00  0.00    +0.154 C 
ATOM     15  C   UNL     1      32.830 -23.031 -16.659  0.00  0.00    +0.149 C 
ATOM     16  H   UNL     1      31.782 -22.534 -18.313  0.00  0.00    +0.165 HD
ENDROOT
BRANCH   5  17
ATOM     17  C   UNL     1      33.582 -21.754 -18.772  0.00  0.00    +0.058 C 
ATOM     18  C   UNL     1      33.103 -20.806 -19.675  0.00  0.00    +0.015 C 
ATOM     19  C   UNL     1      34.950 -22.018 -18.697  0.00  0.00    +0.015 C 
ATOM     20  C   UNL     1      33.992 -20.121 -20.505  0.00  0.00    +0.001 C 
ATOM     21  C   UNL     1      35.839 -21.333 -19.527  0.00  0.00    +0.001 C 
ATOM     22  C   UNL     1      35.360 -20.385 -20.431  0.00  0.00    +0.000 C 
ENDBRANCH   5  17
BRANCH  12  24
ATOM     23  O   UNL     1      37.417 -24.726 -10.552  0.00  0.00    -0.243 OA
ATOM     24  C   UNL     1      37.640 -23.817 -11.374  0.00  0.00    +0.357 C 
BRANCH  24  25
ATOM     25  O   UNL     1      38.644 -22.911 -11.159  0.00  0.00    -0.476 OA
ATOM     26  H   UNL     1      38.679 -22.121 -11.662  0.00  0.00    +0.295 HD
ENDBRANCH  24  25
ENDBRANCH  12  24
TORSDOF 3
ENDMDL
MODEL 2
REMARK VINA RESULT:     -10.7     12.054     15.079
REMARK  Name = 44129603
REMARK  3 active torsions:
REMARK  status: ('A' for Active; 'I' for Inactive)
REMARK    1  A    between atoms: N_5  and  C_17
REMARK    2  A    between atoms: C_12  and  C_24
REMARK    3  A    between atoms: C_24  and  O_25
REMARK                            x       y       z     vdW  Elec       q    Type
REMARK                         _______ _______ _______ _____ _____    ______ ____
ROOT
ATOM      1  N   UNL     1      33.428 -11.825 -24.072  0.00  0.00    -0.246 N 
ATOM      2  N   UNL     1      33.862 -12.966 -24.646  0.00  0.00    -0.163 NA
ATOM      3  N   UNL     1      32.561  -9.716 -22.174  0.00  0.00    -0.336 NA
ATOM      4  N   UNL     1      31.577  -9.230 -20.022  0.00  0.00    -0.170 NA
ATOM      5  N   UNL     1      32.075  -7.511 -21.541  0.00  0.00    -0.247 N 
ATOM      6  C   UNL     1      33.043 -13.851 -21.104  0.00  0.00    +0.035 C 
ATOM      7  C   UNL     1      33.287 -13.307 -22.467  0.00  0.00    +0.024 A 
ATOM      8  C   UNL     1      32.001 -12.997 -20.331  0.00  0.00    +0.035 C 
ATOM      9  C   UNL     1      33.067 -11.982 -22.770  0.00  0.00    +0.106 A 
ATOM     10  C   UNL     1      32.069 -11.511 -20.613  0.00  0.00    +0.030 C 
ATOM     11  C   UNL     1      32.542 -11.017 -21.832  0.00  0.00    +0.158 C 
ATOM     12  C   UNL     1      33.777 -13.866 -23.658  0.00  0.00    +0.174 A 
ATOM     13  C   UNL     1      31.583 -10.553 -19.746  0.00  0.00    +0.110 C 
ATOM     14  C   UNL     1      33.419 -10.615 -24.863  0.00  0.00    +0.154 C 
ATOM     15  C   UNL     1      32.070  -8.889 -21.231  0.00  0.00    +0.149 C 
ATOM     16  H   UNL     1      31.710  -6.943 -20.824  0.00  0.00    +0.165 HD
ENDROOT
BRANCH   5  17
ATOM     17  C   UNL     1      32.499  -6.790 -22.672  0.00  0.00    +0.058 C 
ATOM     18  C   UNL     1      31.565  -6.351 -23.610  0.00  0.00    +0.015 C 
ATOM     19  C   UNL     1      33.855  -6.516 -22.855  0.00  0.00    +0.015 C 
ATOM     20  C   UNL     1      31.986  -5.635 -24.731  0.00  0.00    +0.001 C 
ATOM     21  C   UNL     1      34.275  -5.800 -23.977  0.00  0.00    +0.001 C 
ATOM     22  C   UNL     1      33.342  -5.360 -24.914  0.00  0.00    +0.000 C 
ENDBRANCH   5  17
BRANCH  12  24
ATOM     23  O   UNL     1      33.538 -16.054 -24.595  0.00  0.00    -0.243 OA
ATOM     24  C   UNL     1      34.161 -15.227 -23.902  0.00  0.00    +0.357 C 
BRANCH  24  25
ATOM     25  O   UNL     1      35.331 -15.577 -23.282  0.00  0.00    -0.476 OA
ATOM     26  H   UNL     1      35.604 -16.473 -23.269  0.00  0.00    +0.295 HD
ENDBRANCH  24  25
ENDBRANCH  12  24
TORSDOF 3
ENDMDL
MODEL 3
REMARK VINA RESULT:     -10.3     12.326     15.470
REMARK  Name = 44129603
REMARK  3 active torsions:
REMARK  status: ('A' for Active; 'I' for Inactive)
REMARK    1  A    between atoms: N_5  and  C_17
REMARK    2  A    between atoms: C_12  and  C_24
REMARK    3  A    between atoms: C_24  and  O_25
REMARK                            x       y       z     vdW  Elec       q    Type
REMARK                         _______ _______ _______ _____ _____    ______ ____
ROOT
ATOM      1  N   UNL     1      33.539 -11.460 -24.024  0.00  0.00    -0.246 N 
ATOM      2  N   UNL     1      33.878 -12.651 -24.558  0.00  0.00    -0.163 NA
ATOM      3  N   UNL     1      32.784  -9.239 -22.207  0.00  0.00    -0.336 NA
ATOM      4  N   UNL     1      31.708  -8.614 -20.137  0.00  0.00    -0.170 NA
ATOM      5  N   UNL     1      32.512  -6.984 -21.623  0.00  0.00    -0.247 N 
ATOM      6  C   UNL     1      32.703 -13.387 -21.083  0.00  0.00    +0.035 C 
ATOM      7  C   UNL     1      33.109 -12.893 -22.426  0.00  0.00    +0.024 A 
ATOM      8  C   UNL     1      31.714 -12.408 -20.394  0.00  0.00    +0.035 C 
ATOM      9  C   UNL     1      33.066 -11.556 -22.752  0.00  0.00    +0.106 A 
ATOM     10  C   UNL     1      31.974 -10.944 -20.678  0.00  0.00    +0.030 C 
ATOM     11  C   UNL     1      32.589 -10.525 -21.860  0.00  0.00    +0.158 C 
ATOM     12  C   UNL     1      33.617 -13.522 -23.574  0.00  0.00    +0.174 A 
ATOM     13  C   UNL     1      31.540  -9.924 -19.854  0.00  0.00    +0.110 C 
ATOM     14  C   UNL     1      33.728 -10.269 -24.819  0.00  0.00    +0.154 C 
ATOM     15  C   UNL     1      32.325  -8.348 -21.307  0.00  0.00    +0.149 C 
ATOM     16  H   UNL     1      32.164  -6.368 -20.939  0.00  0.00    +0.165 HD
ENDROOT
BRANCH   5  17
ATOM     17  C   UNL     1      33.099  -6.333 -22.724  0.00  0.00    +0.058 C 
ATOM     18  C   UNL     1      34.394  -6.665 -23.121  0.00  0.00    +0.015 C 
ATOM     19  C   UNL     1      32.385  -5.356 -23.416  0.00  0.00    +0.015 C 
ATOM     20  C   UNL     1      34.975  -6.020 -24.214  0.00  0.00    +0.001 C 
ATOM     21  C   UNL     1      32.967  -4.710 -24.509  0.00  0.00    +0.001 C 
ATOM     22  C   UNL     1      34.261  -5.042 -24.907  0.00  0.00    +0.000 C 
ENDBRANCH   5  17
BRANCH  12  24
ATOM     23  O   UNL     1      34.489 -15.679 -23.019  0.00  0.00    -0.243 OA
ATOM     24  C   UNL     1      33.857 -14.921 -23.781  0.00  0.00    +0.357 C 
BRANCH  24  25
ATOM     25  O   UNL     1      33.312 -15.397 -24.944  0.00  0.00    -0.476 OA
ATOM     26  H   UNL     1      32.571 -14.967 -25.323  0.00  0.00    +0.295 HD
ENDBRANCH  24  25
ENDBRANCH  12  24
TORSDOF 3
ENDMDL
MODEL 4
REMARK VINA RESULT:     -10.3      3.558      7.038
REMARK  Name = 44129603
REMARK  3 active torsions:
REMARK  status: ('A' for Active; 'I' for Inactive)
REMARK    1  A    between atoms: N_5  and  C_17
REMARK    2  A    between atoms: C_12  and  C_24
REMARK    3  A    between atoms: C_24  and  O_25
REMARK                            x       y       z     vdW  Elec       q    Type
REMARK                         _______ _______ _______ _____ _____    ______ ____
ROOT
ATOM      1  N   UNL     1      32.381 -23.995 -14.766  0.00  0.00    -0.246 N 
ATOM      2  N   UNL     1      31.034 -24.069 -14.753  0.00  0.00    -0.163 NA
ATOM      3  N   UNL     1      35.212 -23.297 -15.315  0.00  0.00    -0.336 NA
ATOM      4  N   UNL     1      36.794 -22.437 -16.926  0.00  0.00    -0.170 NA
ATOM      5  N   UNL     1      37.508 -23.253 -14.844  0.00  0.00    -0.247 N 
ATOM      6  C   UNL     1      31.915 -22.043 -17.772  0.00  0.00    +0.035 C 
ATOM      7  C   UNL     1      31.776 -22.878 -16.550  0.00  0.00    +0.024 A 
ATOM      8  C   UNL     1      33.308 -22.233 -18.433  0.00  0.00    +0.035 C 
ATOM      9  C   UNL     1      32.870 -23.297 -15.827  0.00  0.00    +0.106 A 
ATOM     10  C   UNL     1      34.446 -22.443 -17.457  0.00  0.00    +0.030 C 
ATOM     11  C   UNL     1      34.237 -23.015 -16.199  0.00  0.00    +0.158 C 
ATOM     12  C   UNL     1      30.671 -23.382 -15.843  0.00  0.00    +0.174 A 
ATOM     13  C   UNL     1      35.767 -22.186 -17.768  0.00  0.00    +0.110 C 
ATOM     14  C   UNL     1      33.117 -24.615 -13.689  0.00  0.00    +0.154 C 
ATOM     15  C   UNL     1      36.451 -22.983 -15.740  0.00  0.00    +0.149 C 
ATOM     16  H   UNL     1      38.396 -23.007 -15.193  0.00  0.00    +0.165 HD
ENDROOT
BRANCH   5  17
ATOM     17  C   UNL     1      37.543 -23.804 -13.550  0.00  0.00    +0.058 C 
ATOM     18  C   UNL     1      37.215 -23.016 -12.447  0.00  0.00    +0.015 C 
ATOM     19  C   UNL     1      37.906 -25.139 -13.371  0.00  0.00    +0.015 C 
ATOM     20  C   UNL     1      37.249 -23.563 -11.164  0.00  0.00    +0.001 C 
ATOM     21  C   UNL     1      37.940 -25.686 -12.087  0.00  0.00    +0.001 C 
ATOM     22  C   UNL     1      37.612 -24.898 -10.985  0.00  0.00    +0.000 C 
ENDBRANCH   5  17
BRANCH  12  24
ATOM     23  O   UNL     1      28.712 -22.200 -16.541  0.00  0.00    -0.243 OA
ATOM     24  C   UNL     1      29.280 -23.244 -16.166  0.00  0.00    +0.357 C 
BRANCH  24  25
ATOM     25  O   UNL     1      28.575 -24.409 -16.025  0.00  0.00    -0.476 OA
ATOM     26  H   UNL     1      27.717 -24.486 -16.396  0.00  0.00    +0.295 HD
ENDBRANCH  24  25
ENDBRANCH  12  24
TORSDOF 3
ENDMDL
MODEL 5
REMARK VINA RESULT:     -10.1      3.701      6.729
REMARK  Name = 44129603
REMARK  3 active torsions:
REMARK  status: ('A' for Active; 'I' for Inactive)
REMARK    1  A    between atoms: N_5  and  C_17
REMARK    2  A    between atoms: C_12  and  C_24
REMARK    3  A    between atoms: C_24  and  O_25
REMARK                            x       y       z     vdW  Elec       q    Type
REMARK                         _______ _______ _______ _____ _____    ______ ____
ROOT
ATOM      1  N   UNL     1      36.447 -21.745 -17.751  0.00  0.00    -0.246 N 
ATOM      2  N   UNL     1      36.804 -20.950 -18.781  0.00  0.00    -0.163 NA
ATOM      3  N   UNL     1      35.034 -23.581 -15.897  0.00  0.00    -0.336 NA
ATOM      4  N   UNL     1      32.899 -24.388 -15.108  0.00  0.00    -0.170 NA
ATOM      5  N   UNL     1      34.903 -25.087 -14.105  0.00  0.00    -0.247 N 
ATOM      6  C   UNL     1      33.145 -21.604 -19.214  0.00  0.00    +0.035 C 
ATOM      7  C   UNL     1      34.581 -21.449 -18.856  0.00  0.00    +0.024 A 
ATOM      8  C   UNL     1      32.286 -21.959 -17.970  0.00  0.00    +0.035 C 
ATOM      9  C   UNL     1      35.125 -22.064 -17.751  0.00  0.00    +0.106 A 
ATOM     10  C   UNL     1      32.975 -22.855 -16.962  0.00  0.00    +0.030 C 
ATOM     11  C   UNL     1      34.365 -22.865 -16.820  0.00  0.00    +0.158 C 
ATOM     12  C   UNL     1      35.659 -20.777 -19.454  0.00  0.00    +0.174 A 
ATOM     13  C   UNL     1      32.291 -23.640 -16.055  0.00  0.00    +0.110 C 
ATOM     14  C   UNL     1      37.468 -22.168 -16.820  0.00  0.00    +0.154 C 
ATOM     15  C   UNL     1      34.246 -24.312 -15.086  0.00  0.00    +0.149 C 
ATOM     16  H   UNL     1      34.290 -25.606 -13.535  0.00  0.00    +0.165 HD
ENDROOT
BRANCH   5  17
ATOM     17  C   UNL     1      36.261 -25.263 -13.781  0.00  0.00    +0.058 C 
ATOM     18  C   UNL     1      36.841 -24.498 -12.770  0.00  0.00    +0.015 C 
ATOM     19  C   UNL     1      37.025 -26.203 -14.472  0.00  0.00    +0.015 C 
ATOM     20  C   UNL     1      38.188 -24.674 -12.448  0.00  0.00    +0.001 C 
ATOM     21  C   UNL     1      38.372 -26.378 -14.151  0.00  0.00    +0.001 C 
ATOM     22  C   UNL     1      38.952 -25.614 -13.139  0.00  0.00    +0.000 C 
ENDBRANCH   5  17
BRANCH  12  24
ATOM     23  O   UNL     1      34.927 -20.140 -21.640  0.00  0.00    -0.243 OA
ATOM     24  C   UNL     1      35.647 -19.966 -20.638  0.00  0.00    +0.357 C 
BRANCH  24  25
ATOM     25  O   UNL     1      36.535 -18.925 -20.589  0.00  0.00    -0.476 OA
ATOM     26  H   UNL     1      36.603 -18.333 -21.312  0.00  0.00    +0.295 HD
ENDBRANCH  24  25
ENDBRANCH  12  24
TORSDOF 3
ENDMDL
MODEL 6
REMARK VINA RESULT:      -9.4      2.545      4.400
REMARK  Name = 44129603
REMARK  3 active torsions:
REMARK  status: ('A' for Active; 'I' for Inactive)
REMARK    1  A    between atoms: N_5  and  C_17
REMARK    2  A    between atoms: C_12  and  C_24
REMARK    3  A    between atoms: C_24  and  O_25
REMARK                            x       y       z     vdW  Elec       q    Type
REMARK                         _______ _______ _______ _____ _____    ______ ____
ROOT
ATOM      1  N   UNL     1      32.384 -23.109 -16.094  0.00  0.00    -0.246 N 
ATOM      2  N   UNL     1      31.284 -23.679 -15.563  0.00  0.00    -0.163 NA
ATOM      3  N   UNL     1      35.160 -22.385 -16.855  0.00  0.00    -0.336 NA
ATOM      4  N   UNL     1      37.486 -22.387 -16.208  0.00  0.00    -0.170 NA
ATOM      5  N   UNL     1      36.782 -21.342 -18.188  0.00  0.00    -0.247 N 
ATOM      6  C   UNL     1      34.178 -25.034 -13.616  0.00  0.00    +0.035 C 
ATOM      7  C   UNL     1      33.171 -24.370 -14.486  0.00  0.00    +0.024 A 
ATOM      8  C   UNL     1      35.488 -24.205 -13.530  0.00  0.00    +0.035 C 
ATOM      9  C   UNL     1      33.537 -23.487 -15.478  0.00  0.00    +0.106 A 
ATOM     10  C   UNL     1      35.865 -23.488 -14.809  0.00  0.00    +0.030 C 
ATOM     11  C   UNL     1      34.901 -23.089 -15.738  0.00  0.00    +0.158 C 
ATOM     12  C   UNL     1      31.772 -24.451 -14.583  0.00  0.00    +0.174 A 
ATOM     13  C   UNL     1      37.155 -23.089 -15.101  0.00  0.00    +0.110 C 
ATOM     14  C   UNL     1      32.225 -22.220 -17.222  0.00  0.00    +0.154 C 
ATOM     15  C   UNL     1      36.459 -22.074 -17.025  0.00  0.00    +0.149 C 
ATOM     16  H   UNL     1      37.742 -21.138 -18.273  0.00  0.00    +0.165 HD
ENDROOT
BRANCH   5  17
ATOM     17  C   UNL     1      36.003 -20.846 -19.249  0.00  0.00    +0.058 C 
ATOM     18  C   UNL     1      34.670 -21.235 -19.377  0.00  0.00    +0.015 C 
ATOM     19  C   UNL     1      36.564 -19.965 -20.174  0.00  0.00    +0.015 C 
ATOM     20  C   UNL     1      33.897 -20.743 -20.429  0.00  0.00    +0.001 C 
ATOM     21  C   UNL     1      35.791 -19.473 -21.226  0.00  0.00    +0.001 C 
ATOM     22  C   UNL     1      34.458 -19.862 -21.353  0.00  0.00    +0.000 C 
ENDBRANCH   5  17
BRANCH  12  24
ATOM     23  O   UNL     1      30.060 -26.075 -14.190  0.00  0.00    -0.243 OA
ATOM     24  C   UNL     1      30.876 -25.228 -13.776  0.00  0.00    +0.357 C 
BRANCH  24  25
ATOM     25  O   UNL     1      30.983 -24.959 -12.438  0.00  0.00    -0.476 OA
ATOM     26  H   UNL     1      31.781 -25.151 -11.984  0.00  0.00    +0.295 HD
ENDBRANCH  24  25
ENDBRANCH  12  24
TORSDOF 3
ENDMDL
MODEL 7
REMARK VINA RESULT:      -9.4      3.538      6.691
REMARK  Name = 44129603
REMARK  3 active torsions:
REMARK  status: ('A' for Active; 'I' for Inactive)
REMARK    1  A    between atoms: N_5  and  C_17
REMARK    2  A    between atoms: C_12  and  C_24
REMARK    3  A    between atoms: C_24  and  O_25
REMARK                            x       y       z     vdW  Elec       q    Type
REMARK                         _______ _______ _______ _____ _____    ______ ____
ROOT
ATOM      1  N   UNL     1      35.167 -22.580 -16.693  0.00  0.00    -0.246 N 
ATOM      2  N   UNL     1      35.157 -22.027 -17.923  0.00  0.00    -0.163 NA
ATOM      3  N   UNL     1      34.476 -23.974 -14.167  0.00  0.00    -0.336 NA
ATOM      4  N   UNL     1      32.719 -24.597 -12.632  0.00  0.00    -0.170 NA
ATOM      5  N   UNL     1      34.969 -25.055 -12.145  0.00  0.00    -0.247 N 
ATOM      6  C   UNL     1      31.582 -22.772 -17.109  0.00  0.00    +0.035 C 
ATOM      7  C   UNL     1      33.046 -22.538 -17.233  0.00  0.00    +0.024 A 
ATOM      8  C   UNL     1      31.144 -22.851 -15.621  0.00  0.00    +0.035 C 
ATOM      9  C   UNL     1      33.926 -22.896 -16.236  0.00  0.00    +0.106 A 
ATOM     10  C   UNL     1      32.153 -23.505 -14.701  0.00  0.00    +0.030 C 
ATOM     11  C   UNL     1      33.523 -23.478 -14.977  0.00  0.00    +0.158 C 
ATOM     12  C   UNL     1      33.858 -22.008 -18.249  0.00  0.00    +0.174 A 
ATOM     13  C   UNL     1      31.814 -24.075 -13.490  0.00  0.00    +0.110 C 
ATOM     14  C   UNL     1      36.440 -22.786 -16.040  0.00  0.00    +0.154 C 
ATOM     15  C   UNL     1      34.007 -24.514 -13.026  0.00  0.00    +0.149 C 
ATOM     16  H   UNL     1      34.583 -25.440 -11.326  0.00  0.00    +0.165 HD
ENDROOT
BRANCH   5  17
ATOM     17  C   UNL     1      36.371 -25.151 -12.209  0.00  0.00    +0.058 C 
ATOM     18  C   UNL     1      36.967 -26.163 -12.961  0.00  0.00    +0.015 C 
ATOM     19  C   UNL     1      37.165 -24.233 -11.521  0.00  0.00    +0.015 C 
ATOM     20  C   UNL     1      38.358 -26.258 -13.025  0.00  0.00    +0.001 C 
ATOM     21  C   UNL     1      38.556 -24.328 -11.585  0.00  0.00    +0.001 C 
ATOM     22  C   UNL     1      39.152 -25.340 -12.336  0.00  0.00    +0.000 C 
ENDBRANCH   5  17
BRANCH  12  24
ATOM     23  O   UNL     1      32.374 -21.707 -20.099  0.00  0.00    -0.243 OA
ATOM     24  C   UNL     1      33.450 -21.474 -19.516  0.00  0.00    +0.357 C 
BRANCH  24  25
ATOM     25  O   UNL     1      34.381 -20.641 -20.077  0.00  0.00    -0.476 OA
ATOM     26  H   UNL     1      34.244 -19.714 -20.072  0.00  0.00    +0.295 HD
ENDBRANCH  24  25
ENDBRANCH  12  24
TORSDOF 3
ENDMDL
MODEL 8
REMARK VINA RESULT:      -9.2      3.299      6.388
REMARK  Name = 44129603
REMARK  3 active torsions:
REMARK  status: ('A' for Active; 'I' for Inactive)
REMARK    1  A    between atoms: N_5  and  C_17
REMARK    2  A    between atoms: C_12  and  C_24
REMARK    3  A    between atoms: C_24  and  O_25
REMARK                            x       y       z     vdW  Elec       q    Type
REMARK                         _______ _______ _______ _____ _____    ______ ____
ROOT
ATOM      1  N   UNL     1      34.072 -22.300 -17.868  0.00  0.00    -0.246 N 
ATOM      2  N   UNL     1      34.466 -21.663 -18.989  0.00  0.00    -0.163 NA
ATOM      3  N   UNL     1      33.856 -23.423 -15.130  0.00  0.00    -0.336 NA
ATOM      4  N   UNL     1      35.046 -24.190 -13.173  0.00  0.00    -0.170 NA
ATOM      5  N   UNL     1      32.712 -24.385 -13.323  0.00  0.00    -0.247 N 
ATOM      6  C   UNL     1      37.456 -21.713 -16.741  0.00  0.00    +0.035 C 
ATOM      7  C   UNL     1      36.173 -21.815 -17.487  0.00  0.00    +0.024 A 
ATOM      8  C   UNL     1      37.576 -22.826 -15.664  0.00  0.00    +0.035 C 
ATOM      9  C   UNL     1      35.063 -22.421 -16.943  0.00  0.00    +0.106 A 
ATOM     10  C   UNL     1      36.271 -23.196 -14.991  0.00  0.00    +0.030 C 
ATOM     11  C   UNL     1      35.043 -23.047 -15.641  0.00  0.00    +0.158 C 
ATOM     12  C   UNL     1      35.749 -21.366 -18.748  0.00  0.00    +0.174 A 
ATOM     13  C   UNL     1      36.203 -23.794 -13.748  0.00  0.00    +0.110 C 
ATOM     14  C   UNL     1      32.700 -22.741 -17.770  0.00  0.00    +0.154 C 
ATOM     15  C   UNL     1      33.933 -23.979 -13.905  0.00  0.00    +0.149 C 
ATOM     16  H   UNL     1      32.813 -24.784 -12.429  0.00  0.00    +0.165 HD
ENDROOT
BRANCH   5  17
ATOM     17  C   UNL     1      31.379 -24.330 -13.770  0.00  0.00    +0.058 C 
ATOM     18  C   UNL     1      30.818 -23.110 -14.145  0.00  0.00    +0.015 C 
ATOM     19  C   UNL     1      30.619 -25.498 -13.838  0.00  0.00    +0.015 C 
ATOM     20  C   UNL     1      29.496 -23.056 -14.589  0.00  0.00    +0.001 C 
ATOM     21  C   UNL     1      29.297 -25.444 -14.282  0.00  0.00    +0.001 C 
ATOM     22  C   UNL     1      28.736 -24.224 -14.657  0.00  0.00    +0.000 C 
ENDBRANCH   5  17
BRANCH  12  24
ATOM     23  O   UNL     1      37.627 -21.020 -20.189  0.00  0.00    -0.243 OA
ATOM     24  C   UNL     1      36.517 -20.671 -19.741  0.00  0.00    +0.357 C 
BRANCH  24  25
ATOM     25  O   UNL     1      35.912 -19.529 -20.191  0.00  0.00    -0.476 OA
ATOM     26  H   UNL     1      36.303 -18.694 -20.023  0.00  0.00    +0.295 HD
ENDBRANCH  24  25
ENDBRANCH  12  24
TORSDOF 3
ENDMDL
