MODEL 1
REMARK VINA RESULT:     -12.8      0.000      0.000
REMARK  Name = 58212050
REMARK  2 active torsions:
REMARK  status: ('A' for Active; 'I' for Inactive)
REMARK    1  A    between atoms: C_2  and  C_13
REMARK    2  A    between atoms: C_10  and  C_26
REMARK                            x       y       z     vdW  Elec       q    Type
REMARK                         _______ _______ _______ _____ _____    ______ ____
ROOT
ATOM      1  N   UNL     1      37.100 -22.952 -16.511  0.00  0.00    +0.389 N 
ATOM      2  C   UNL     1      34.651 -23.219 -16.761  0.00  0.00    +0.023 C 
ATOM      3  C   UNL     1      35.838 -23.096 -15.775  0.00  0.00    -0.068 C 
ATOM      4  C   UNL     1      34.719 -22.208 -17.898  0.00  0.00    -0.026 C 
ATOM      5  C   UNL     1      35.909 -21.493 -18.133  0.00  0.00    -0.047 C 
ATOM      6  C   UNL     1      37.109 -21.668 -17.230  0.00  0.00    -0.050 C 
ATOM      7  C   UNL     1      33.638 -22.034 -18.779  0.00  0.00    -0.004 C 
ATOM      8  C   UNL     1      35.972 -20.572 -19.190  0.00  0.00    -0.005 C 
ATOM      9  C   UNL     1      38.242 -23.033 -15.601  0.00  0.00    -0.100 C 
ATOM     10  C   UNL     1      34.880 -20.390 -20.036  0.00  0.00    +0.019 C 
ATOM     11  C   UNL     1      33.716 -21.126 -19.835  0.00  0.00    +0.001 C 
ATOM     12  H   UNL     1      37.177 -23.715 -17.184  0.00  0.00    -0.079 HD
ENDROOT
BRANCH   2  13
ATOM     13  C   UNL     1      33.344 -23.194 -15.977  0.00  0.00    -0.020 C 
ATOM     14  C   UNL     1      32.130 -23.057 -16.651  0.00  0.00    -0.004 C 
ATOM     15  C   UNL     1      33.362 -23.307 -14.591  0.00  0.00    -0.004 C 
ATOM     16  C   UNL     1      30.917 -23.031 -15.944  0.00  0.00    -0.000 C 
ATOM     17  C   UNL     1      30.936 -23.146 -14.534  0.00  0.00    -0.000 C 
ATOM     18  C   UNL     1      32.167 -23.283 -13.872  0.00  0.00    -0.000 C 
ATOM     19  C   UNL     1      29.686 -22.894 -16.606  0.00  0.00    -0.000 C 
ATOM     20  C   UNL     1      29.723 -23.119 -13.826  0.00  0.00    -0.000 C 
ATOM     21  C   UNL     1      28.490 -22.870 -15.888  0.00  0.00    -0.000 C 
ATOM     22  C   UNL     1      28.509 -22.982 -14.500  0.00  0.00    -0.000 C 
ENDBRANCH   2  13
BRANCH  10  26
ATOM     23  N   UNL     1      35.496 -18.244 -20.816  0.00  0.00    -0.147 NA
ATOM     24  N   UNL     1      35.607 -17.296 -21.785  0.00  0.00    -0.133 NA
ATOM     25  N   UNL     1      35.292 -16.593 -24.041  0.00  0.00    -0.341 N 
ATOM     26  C   UNL     1      34.959 -19.443 -21.127  0.00  0.00    +0.103 C 
ATOM     27  C   UNL     1      34.512 -19.760 -22.394  0.00  0.00    +0.024 C 
ATOM     28  C   UNL     1      34.624 -18.795 -23.380  0.00  0.00    +0.037 C 
ATOM     29  C   UNL     1      35.177 -17.579 -23.033  0.00  0.00    +0.147 C 
ATOM     30  H   UNL     1      35.681 -15.714 -23.828  0.00  0.00    +0.144 HD
ATOM     31  H   UNL     1      34.982 -16.785 -24.955  0.00  0.00    +0.144 HD
ENDBRANCH  10  26
TORSDOF 2
ENDMDL
MODEL 2
REMARK VINA RESULT:     -12.0      0.754      1.615
REMARK  Name = 58212050
REMARK  2 active torsions:
REMARK  status: ('A' for Active; 'I' for Inactive)
REMARK    1  A    between atoms: C_2  and  C_13
REMARK    2  A    between atoms: C_10  and  C_26
REMARK                            x       y       z     vdW  Elec       q    Type
REMARK                         _______ _______ _______ _____ _____    ______ ____
ROOT
ATOM      1  N   UNL     1      37.228 -22.622 -16.772  0.00  0.00    +0.389 N 
ATOM      2  C   UNL     1      34.834 -23.132 -17.144  0.00  0.00    +0.023 C 
ATOM      3  C   UNL     1      35.955 -22.908 -16.100  0.00  0.00    -0.068 C 
ATOM      4  C   UNL     1      34.849 -22.096 -18.260  0.00  0.00    -0.026 C 
ATOM      5  C   UNL     1      35.969 -21.258 -18.426  0.00  0.00    -0.047 C 
ATOM      6  C   UNL     1      37.137 -21.329 -17.470  0.00  0.00    -0.050 C 
ATOM      7  C   UNL     1      33.798 -22.015 -19.189  0.00  0.00    -0.004 C 
ATOM      8  C   UNL     1      35.986 -20.314 -19.464  0.00  0.00    -0.005 C 
ATOM      9  C   UNL     1      38.329 -22.604 -15.810  0.00  0.00    -0.100 C 
ATOM     10  C   UNL     1      34.921 -20.227 -20.359  0.00  0.00    +0.019 C 
ATOM     11  C   UNL     1      33.831 -21.082 -20.225  0.00  0.00    +0.001 C 
ATOM     12  H   UNL     1      37.414 -23.358 -17.453  0.00  0.00    -0.079 HD
ENDROOT
BRANCH   2  13
ATOM     13  C   UNL     1      33.496 -23.257 -16.423  0.00  0.00    -0.020 C 
ATOM     14  C   UNL     1      33.425 -23.911 -15.193  0.00  0.00    -0.004 C 
ATOM     15  C   UNL     1      32.347 -22.719 -16.994  0.00  0.00    -0.004 C 
ATOM     16  C   UNL     1      32.201 -24.036 -14.518  0.00  0.00    -0.000 C 
ATOM     17  C   UNL     1      31.032 -23.490 -15.098  0.00  0.00    -0.000 C 
ATOM     18  C   UNL     1      31.121 -22.834 -16.336  0.00  0.00    -0.000 C 
ATOM     19  C   UNL     1      32.112 -24.692 -13.279  0.00  0.00    -0.000 C 
ATOM     20  C   UNL     1      29.807 -23.615 -14.422  0.00  0.00    -0.000 C 
ATOM     21  C   UNL     1      30.886 -24.807 -12.621  0.00  0.00    -0.000 C 
ATOM     22  C   UNL     1      29.736 -24.270 -13.192  0.00  0.00    -0.000 C 
ENDBRANCH   2  13
BRANCH  10  26
ATOM     23  N   UNL     1      35.501 -18.063 -21.114  0.00  0.00    -0.147 NA
ATOM     24  N   UNL     1      35.569 -17.092 -22.064  0.00  0.00    -0.133 NA
ATOM     25  N   UNL     1      35.156 -16.336 -24.288  0.00  0.00    -0.341 N 
ATOM     26  C   UNL     1      34.951 -19.255 -21.430  0.00  0.00    +0.103 C 
ATOM     27  C   UNL     1      34.450 -19.542 -22.683  0.00  0.00    +0.024 C 
ATOM     28  C   UNL     1      34.519 -18.554 -23.650  0.00  0.00    +0.037 C 
ATOM     29  C   UNL     1      35.086 -17.346 -23.299  0.00  0.00    +0.147 C 
ATOM     30  H   UNL     1      35.554 -15.462 -24.070  0.00  0.00    +0.144 HD
ATOM     31  H   UNL     1      34.807 -16.507 -25.192  0.00  0.00    +0.144 HD
ENDBRANCH  10  26
TORSDOF 2
ENDMDL
MODEL 3
REMARK VINA RESULT:     -12.0      8.455     14.149
REMARK  Name = 58212050
REMARK  2 active torsions:
REMARK  status: ('A' for Active; 'I' for Inactive)
REMARK    1  A    between atoms: C_2  and  C_13
REMARK    2  A    between atoms: C_10  and  C_26
REMARK                            x       y       z     vdW  Elec       q    Type
REMARK                         _______ _______ _______ _____ _____    ______ ____
ROOT
ATOM      1  N   UNL     1      31.368 -10.216 -20.102  0.00  0.00    +0.389 N 
ATOM      2  C   UNL     1      32.047  -9.383 -22.333  0.00  0.00    +0.023 C 
ATOM      3  C   UNL     1      31.980  -9.088 -20.815  0.00  0.00    -0.068 C 
ATOM      4  C   UNL     1      32.539 -10.792 -22.641  0.00  0.00    -0.026 C 
ATOM      5  C   UNL     1      32.604 -11.754 -21.615  0.00  0.00    -0.047 C 
ATOM      6  C   UNL     1      32.249 -11.392 -20.191  0.00  0.00    -0.050 C 
ATOM      7  C   UNL     1      32.851 -11.179 -23.955  0.00  0.00    -0.004 C 
ATOM      8  C   UNL     1      33.045 -13.054 -21.905  0.00  0.00    -0.005 C 
ATOM      9  C   UNL     1      31.121  -9.871 -18.702  0.00  0.00    -0.100 C 
ATOM     10  C   UNL     1      33.379 -13.413 -23.209  0.00  0.00    +0.019 C 
ATOM     11  C   UNL     1      33.276 -12.478 -24.234  0.00  0.00    +0.001 C 
ATOM     12  H   UNL     1      30.472 -10.435 -20.538  0.00  0.00    -0.079 HD
ENDROOT
BRANCH   2  13
ATOM     13  C   UNL     1      32.836  -8.278 -23.025  0.00  0.00    -0.020 C 
ATOM     14  C   UNL     1      32.167  -7.293 -23.750  0.00  0.00    -0.004 C 
ATOM     15  C   UNL     1      34.224  -8.254 -22.932  0.00  0.00    -0.004 C 
ATOM     16  C   UNL     1      32.879  -6.269 -24.394  0.00  0.00    -0.000 C 
ATOM     17  C   UNL     1      34.291  -6.244 -24.301  0.00  0.00    -0.000 C 
ATOM     18  C   UNL     1      34.948  -7.243 -23.566  0.00  0.00    -0.000 C 
ATOM     19  C   UNL     1      32.221  -5.269 -25.129  0.00  0.00    -0.000 C 
ATOM     20  C   UNL     1      35.004  -5.219 -24.945  0.00  0.00    -0.000 C 
ATOM     21  C   UNL     1      32.945  -4.258 -25.763  0.00  0.00    -0.000 C 
ATOM     22  C   UNL     1      34.334  -4.234 -25.671  0.00  0.00    -0.000 C 
ENDBRANCH   2  13
BRANCH  10  26
ATOM     23  N   UNL     1      33.387 -15.277 -24.665  0.00  0.00    -0.147 NA
ATOM     24  N   UNL     1      33.762 -16.537 -25.013  0.00  0.00    -0.133 NA
ATOM     25  N   UNL     1      34.953 -18.549 -24.543  0.00  0.00    -0.341 N 
ATOM     26  C   UNL     1      33.826 -14.758 -23.498  0.00  0.00    +0.103 C 
ATOM     27  C   UNL     1      34.646 -15.451 -22.630  0.00  0.00    +0.024 C 
ATOM     28  C   UNL     1      35.027 -16.734 -22.983  0.00  0.00    +0.037 C 
ATOM     29  C   UNL     1      34.563 -17.238 -24.182  0.00  0.00    +0.147 C 
ATOM     30  H   UNL     1      34.640 -18.939 -25.391  0.00  0.00    +0.144 HD
ATOM     31  H   UNL     1      35.536 -19.071 -23.946  0.00  0.00    +0.144 HD
ENDBRANCH  10  26
TORSDOF 2
ENDMDL
MODEL 4
REMARK VINA RESULT:     -11.5      1.418      2.070
REMARK  Name = 58212050
REMARK  2 active torsions:
REMARK  status: ('A' for Active; 'I' for Inactive)
REMARK    1  A    between atoms: C_2  and  C_13
REMARK    2  A    between atoms: C_10  and  C_26
REMARK                            x       y       z     vdW  Elec       q    Type
REMARK                         _______ _______ _______ _____ _____    ______ ____
ROOT
ATOM      1  N   UNL     1      35.441 -24.366 -14.979  0.00  0.00    +0.389 N 
ATOM      2  C   UNL     1      33.157 -23.934 -15.831  0.00  0.00    +0.023 C 
ATOM      3  C   UNL     1      34.049 -24.127 -14.581  0.00  0.00    -0.068 C 
ATOM      4  C   UNL     1      33.785 -23.012 -16.869  0.00  0.00    -0.026 C 
ATOM      5  C   UNL     1      35.148 -22.670 -16.773  0.00  0.00    -0.047 C 
ATOM      6  C   UNL     1      35.988 -23.155 -15.614  0.00  0.00    -0.050 C 
ATOM      7  C   UNL     1      33.049 -22.562 -17.978  0.00  0.00    -0.004 C 
ATOM      8  C   UNL     1      35.726 -21.833 -17.739  0.00  0.00    -0.005 C 
ATOM      9  C   UNL     1      36.253 -24.743 -13.822  0.00  0.00    -0.100 C 
ATOM     10  C   UNL     1      34.973 -21.370 -18.816  0.00  0.00    +0.019 C 
ATOM     11  C   UNL     1      33.637 -21.741 -18.939  0.00  0.00    +0.001 C 
ATOM     12  H   UNL     1      35.466 -25.136 -15.648  0.00  0.00    -0.079 HD
ENDROOT
BRANCH   2  13
ATOM     13  C   UNL     1      31.758 -23.520 -15.389  0.00  0.00    -0.020 C 
ATOM     14  C   UNL     1      30.713 -23.501 -16.313  0.00  0.00    -0.004 C 
ATOM     15  C   UNL     1      31.525 -23.159 -14.066  0.00  0.00    -0.004 C 
ATOM     16  C   UNL     1      29.419 -23.121 -15.923  0.00  0.00    -0.000 C 
ATOM     17  C   UNL     1      29.182 -22.754 -14.577  0.00  0.00    -0.000 C 
ATOM     18  C   UNL     1      30.245 -22.778 -13.661  0.00  0.00    -0.000 C 
ATOM     19  C   UNL     1      28.355 -23.097 -16.840  0.00  0.00    -0.000 C 
ATOM     20  C   UNL     1      27.887 -22.373 -14.187  0.00  0.00    -0.000 C 
ATOM     21  C   UNL     1      27.075 -22.716 -16.435  0.00  0.00    -0.000 C 
ATOM     22  C   UNL     1      26.842 -22.355 -15.111  0.00  0.00    -0.000 C 
ENDBRANCH   2  13
BRANCH  10  26
ATOM     23  N   UNL     1      36.854 -20.140 -19.553  0.00  0.00    -0.147 NA
ATOM     24  N   UNL     1      37.499 -19.334 -20.438  0.00  0.00    -0.133 NA
ATOM     25  N   UNL     1      37.522 -18.086 -22.470  0.00  0.00    -0.341 N 
ATOM     26  C   UNL     1      35.581 -20.512 -19.810  0.00  0.00    +0.103 C 
ATOM     27  C   UNL     1      34.894 -20.111 -20.938  0.00  0.00    +0.024 C 
ATOM     28  C   UNL     1      35.551 -19.290 -21.838  0.00  0.00    +0.037 C 
ATOM     29  C   UNL     1      36.851 -18.926 -21.550  0.00  0.00    +0.147 C 
ATOM     30  H   UNL     1      38.450 -17.808 -22.295  0.00  0.00    +0.144 HD
ATOM     31  H   UNL     1      37.061 -17.781 -23.284  0.00  0.00    +0.144 HD
ENDBRANCH  10  26
TORSDOF 2
ENDMDL
MODEL 5
REMARK VINA RESULT:     -10.5      2.406      5.753
REMARK  Name = 58212050
REMARK  2 active torsions:
REMARK  status: ('A' for Active; 'I' for Inactive)
REMARK    1  A    between atoms: C_2  and  C_13
REMARK    2  A    between atoms: C_10  and  C_26
REMARK                            x       y       z     vdW  Elec       q    Type
REMARK                         _______ _______ _______ _____ _____    ______ ____
ROOT
ATOM      1  N   UNL     1      32.313 -23.439 -15.203  0.00  0.00    +0.389 N 
ATOM      2  C   UNL     1      34.785 -23.562 -15.144  0.00  0.00    +0.023 C 
ATOM      3  C   UNL     1      33.453 -24.307 -14.886  0.00  0.00    -0.068 C 
ATOM      4  C   UNL     1      34.792 -22.805 -16.466  0.00  0.00    -0.026 C 
ATOM      5  C   UNL     1      33.587 -22.595 -17.163  0.00  0.00    -0.047 C 
ATOM      6  C   UNL     1      32.286 -23.167 -16.649  0.00  0.00    -0.050 C 
ATOM      7  C   UNL     1      35.974 -22.231 -16.966  0.00  0.00    -0.004 C 
ATOM      8  C   UNL     1      33.596 -21.885 -18.373  0.00  0.00    -0.005 C 
ATOM      9  C   UNL     1      31.057 -24.058 -14.779  0.00  0.00    -0.100 C 
ATOM     10  C   UNL     1      34.782 -21.349 -18.870  0.00  0.00    +0.019 C 
ATOM     11  C   UNL     1      35.969 -21.516 -18.163  0.00  0.00    +0.001 C 
ATOM     12  H   UNL     1      32.418 -22.559 -14.698  0.00  0.00    -0.079 HD
ENDROOT
BRANCH   2  13
ATOM     13  C   UNL     1      35.945 -24.536 -14.973  0.00  0.00    -0.020 C 
ATOM     14  C   UNL     1      37.245 -24.052 -14.822  0.00  0.00    -0.004 C 
ATOM     15  C   UNL     1      35.707 -25.907 -14.969  0.00  0.00    -0.004 C 
ATOM     16  C   UNL     1      38.324 -24.935 -14.664  0.00  0.00    -0.000 C 
ATOM     17  C   UNL     1      38.083 -26.329 -14.661  0.00  0.00    -0.000 C 
ATOM     18  C   UNL     1      36.769 -26.799 -14.814  0.00  0.00    -0.000 C 
ATOM     19  C   UNL     1      39.639 -24.465 -14.511  0.00  0.00    -0.000 C 
ATOM     20  C   UNL     1      39.163 -27.213 -14.504  0.00  0.00    -0.000 C 
ATOM     21  C   UNL     1      40.701 -25.357 -14.355  0.00  0.00    -0.000 C 
ATOM     22  C   UNL     1      40.463 -26.729 -14.352  0.00  0.00    -0.000 C 
ENDBRANCH   2  13
BRANCH  10  26
ATOM     23  N   UNL     1      33.575 -20.494 -20.715  0.00  0.00    -0.147 NA
ATOM     24  N   UNL     1      33.483 -19.816 -21.891  0.00  0.00    -0.133 NA
ATOM     25  N   UNL     1      34.505 -18.574 -23.651  0.00  0.00    -0.341 N 
ATOM     26  C   UNL     1      34.779 -20.613 -20.116  0.00  0.00    +0.103 C 
ATOM     27  C   UNL     1      35.936 -20.074 -20.642  0.00  0.00    +0.024 C 
ATOM     28  C   UNL     1      35.843 -19.385 -21.838  0.00  0.00    +0.037 C 
ATOM     29  C   UNL     1      34.600 -19.279 -22.428  0.00  0.00    +0.147 C 
ATOM     30  H   UNL     1      33.633 -18.480 -24.099  0.00  0.00    +0.144 HD
ATOM     31  H   UNL     1      35.311 -18.178 -24.054  0.00  0.00    +0.144 HD
ENDBRANCH  10  26
TORSDOF 2
ENDMDL
MODEL 6
REMARK VINA RESULT:     -10.5      2.852      6.357
REMARK  Name = 58212050
REMARK  2 active torsions:
REMARK  status: ('A' for Active; 'I' for Inactive)
REMARK    1  A    between atoms: C_2  and  C_13
REMARK    2  A    between atoms: C_10  and  C_26
REMARK                            x       y       z     vdW  Elec       q    Type
REMARK                         _______ _______ _______ _____ _____    ______ ____
ROOT
ATOM      1  N   UNL     1      33.602 -24.170 -14.179  0.00  0.00    +0.389 N 
ATOM      2  C   UNL     1      36.068 -23.953 -14.211  0.00  0.00    +0.023 C 
ATOM      3  C   UNL     1      34.861 -24.876 -13.915  0.00  0.00    -0.068 C 
ATOM      4  C   UNL     1      35.922 -23.190 -15.521  0.00  0.00    -0.026 C 
ATOM      5  C   UNL     1      34.674 -23.142 -16.172  0.00  0.00    -0.047 C 
ATOM      6  C   UNL     1      33.484 -23.892 -15.620  0.00  0.00    -0.050 C 
ATOM      7  C   UNL     1      36.994 -22.456 -16.055  0.00  0.00    -0.004 C 
ATOM      8  C   UNL     1      34.541 -22.426 -17.371  0.00  0.00    -0.005 C 
ATOM      9  C   UNL     1      32.459 -24.959 -13.719  0.00  0.00    -0.100 C 
ATOM     10  C   UNL     1      35.623 -21.728 -17.903  0.00  0.00    +0.019 C 
ATOM     11  C   UNL     1      36.847 -21.737 -17.241  0.00  0.00    +0.001 C 
ATOM     12  H   UNL     1      33.604 -23.288 -13.666  0.00  0.00    -0.079 HD
ENDROOT
BRANCH   2  13
ATOM     13  C   UNL     1      37.356 -24.760 -14.095  0.00  0.00    -0.020 C 
ATOM     14  C   UNL     1      37.622 -25.783 -15.004  0.00  0.00    -0.004 C 
ATOM     15  C   UNL     1      38.265 -24.475 -13.081  0.00  0.00    -0.004 C 
ATOM     16  C   UNL     1      38.803 -26.536 -14.911  0.00  0.00    -0.000 C 
ATOM     17  C   UNL     1      39.728 -26.247 -13.879  0.00  0.00    -0.000 C 
ATOM     18  C   UNL     1      39.444 -25.214 -12.973  0.00  0.00    -0.000 C 
ATOM     19  C   UNL     1      39.086 -27.571 -15.818  0.00  0.00    -0.000 C 
ATOM     20  C   UNL     1      40.910 -27.001 -13.785  0.00  0.00    -0.000 C 
ATOM     21  C   UNL     1      40.265 -28.309 -15.710  0.00  0.00    -0.000 C 
ATOM     22  C   UNL     1      41.175 -28.025 -14.695  0.00  0.00    -0.000 C 
ENDBRANCH   2  13
BRANCH  10  26
ATOM     23  N   UNL     1      36.585 -20.361 -19.576  0.00  0.00    -0.147 NA
ATOM     24  N   UNL     1      36.529 -19.642 -20.730  0.00  0.00    -0.133 NA
ATOM     25  N   UNL     1      35.304 -18.829 -22.607  0.00  0.00    -0.341 N 
ATOM     26  C   UNL     1      35.473 -20.988 -19.137  0.00  0.00    +0.103 C 
ATOM     27  C   UNL     1      34.267 -20.937 -19.808  0.00  0.00    +0.024 C 
ATOM     28  C   UNL     1      34.210 -20.206 -20.982  0.00  0.00    +0.037 C 
ATOM     29  C   UNL     1      35.362 -19.576 -21.407  0.00  0.00    +0.147 C 
ATOM     30  H   UNL     1      36.107 -18.366 -22.938  0.00  0.00    +0.144 HD
ATOM     31  H   UNL     1      34.460 -18.771 -23.109  0.00  0.00    +0.144 HD
ENDBRANCH  10  26
TORSDOF 2
ENDMDL
MODEL 7
REMARK VINA RESULT:     -10.4      3.639      8.762
REMARK  Name = 58212050
REMARK  2 active torsions:
REMARK  status: ('A' for Active; 'I' for Inactive)
REMARK    1  A    between atoms: C_2  and  C_13
REMARK    2  A    between atoms: C_10  and  C_26
REMARK                            x       y       z     vdW  Elec       q    Type
REMARK                         _______ _______ _______ _____ _____    ______ ____
ROOT
ATOM      1  N   UNL     1      30.398 -23.266 -16.329  0.00  0.00    +0.389 N 
ATOM      2  C   UNL     1      32.512 -22.908 -17.568  0.00  0.00    +0.023 C 
ATOM      3  C   UNL     1      31.044 -22.457 -17.369  0.00  0.00    -0.068 C 
ATOM      4  C   UNL     1      33.248 -23.123 -16.251  0.00  0.00    -0.026 C 
ATOM      5  C   UNL     1      32.525 -23.190 -15.044  0.00  0.00    -0.047 C 
ATOM      6  C   UNL     1      31.027 -22.989 -15.027  0.00  0.00    -0.050 C 
ATOM      7  C   UNL     1      34.635 -23.343 -16.224  0.00  0.00    -0.004 C 
ATOM      8  C   UNL     1      33.205 -23.401 -13.835  0.00  0.00    -0.005 C 
ATOM      9  C   UNL     1      28.964 -22.983 -16.270  0.00  0.00    -0.100 C 
ATOM     10  C   UNL     1      34.586 -23.587 -13.823  0.00  0.00    +0.019 C 
ATOM     11  C   UNL     1      35.299 -23.565 -15.018  0.00  0.00    +0.001 C 
ATOM     12  H   UNL     1      30.518 -24.253 -16.556  0.00  0.00    -0.079 HD
ENDROOT
BRANCH   2  13
ATOM     13  C   UNL     1      33.207 -21.947 -18.525  0.00  0.00    -0.020 C 
ATOM     14  C   UNL     1      34.596 -21.828 -18.506  0.00  0.00    -0.004 C 
ATOM     15  C   UNL     1      32.455 -21.190 -19.417  0.00  0.00    -0.004 C 
ATOM     16  C   UNL     1      35.252 -20.946 -19.380  0.00  0.00    -0.000 C 
ATOM     17  C   UNL     1      34.487 -20.175 -20.287  0.00  0.00    -0.000 C 
ATOM     18  C   UNL     1      33.089 -20.309 -20.293  0.00  0.00    -0.000 C 
ATOM     19  C   UNL     1      36.650 -20.813 -19.373  0.00  0.00    -0.000 C 
ATOM     20  C   UNL     1      35.143 -19.293 -21.162  0.00  0.00    -0.000 C 
ATOM     21  C   UNL     1      37.285 -19.932 -20.250  0.00  0.00    -0.000 C 
ATOM     22  C   UNL     1      36.533 -19.174 -21.142  0.00  0.00    -0.000 C 
ENDBRANCH   2  13
BRANCH  10  26
ATOM     23  N   UNL     1      34.601 -24.545 -11.661  0.00  0.00    -0.147 NA
ATOM     24  N   UNL     1      35.179 -24.802 -10.457  0.00  0.00    -0.133 NA
ATOM     25  N   UNL     1      37.014 -24.584  -8.951  0.00  0.00    -0.341 N 
ATOM     26  C   UNL     1      35.276 -23.811 -12.572  0.00  0.00    +0.103 C 
ATOM     27  C   UNL     1      36.538 -23.302 -12.339  0.00  0.00    +0.024 C 
ATOM     28  C   UNL     1      37.126 -23.564 -11.114  0.00  0.00    +0.037 C 
ATOM     29  C   UNL     1      36.413 -24.317 -10.203  0.00  0.00    +0.147 C 
ATOM     30  H   UNL     1      36.533 -25.118  -8.278  0.00  0.00    +0.144 HD
ATOM     31  H   UNL     1      37.913 -24.235  -8.752  0.00  0.00    +0.144 HD
ENDBRANCH  10  26
TORSDOF 2
ENDMDL
MODEL 8
REMARK VINA RESULT:     -10.3     12.453     16.950
REMARK  Name = 58212050
REMARK  2 active torsions:
REMARK  status: ('A' for Active; 'I' for Inactive)
REMARK    1  A    between atoms: C_2  and  C_13
REMARK    2  A    between atoms: C_10  and  C_26
REMARK                            x       y       z     vdW  Elec       q    Type
REMARK                         _______ _______ _______ _____ _____    ______ ____
ROOT
ATOM      1  N   UNL     1      31.268  -3.247 -22.372  0.00  0.00    +0.389 N 
ATOM      2  C   UNL     1      32.361  -5.451 -22.091  0.00  0.00    +0.023 C 
ATOM      3  C   UNL     1      31.037  -4.652 -22.014  0.00  0.00    -0.068 C 
ATOM      4  C   UNL     1      33.166  -5.143 -23.347  0.00  0.00    -0.026 C 
ATOM      5  C   UNL     1      32.836  -4.025 -24.137  0.00  0.00    -0.047 C 
ATOM      6  C   UNL     1      31.649  -3.155 -23.791  0.00  0.00    -0.050 C 
ATOM      7  C   UNL     1      34.293  -5.907 -23.691  0.00  0.00    -0.004 C 
ATOM      8  C   UNL     1      33.588  -3.737 -25.286  0.00  0.00    -0.005 C 
ATOM      9  C   UNL     1      30.073  -2.444 -22.114  0.00  0.00    -0.100 C 
ATOM     10  C   UNL     1      34.686  -4.524 -25.629  0.00  0.00    +0.019 C 
ATOM     11  C   UNL     1      35.042  -5.604 -24.828  0.00  0.00    +0.001 C 
ATOM     12  H   UNL     1      32.026  -2.880 -21.796  0.00  0.00    -0.079 HD
ENDROOT
BRANCH   2  13
ATOM     13  C   UNL     1      32.065  -6.932 -21.884  0.00  0.00    -0.020 C 
ATOM     14  C   UNL     1      32.290  -7.520 -20.639  0.00  0.00    -0.004 C 
ATOM     15  C   UNL     1      31.571  -7.696 -22.936  0.00  0.00    -0.004 C 
ATOM     16  C   UNL     1      32.024  -8.883 -20.432  0.00  0.00    -0.000 C 
ATOM     17  C   UNL     1      31.522  -9.660 -21.502  0.00  0.00    -0.000 C 
ATOM     18  C   UNL     1      31.301  -9.052 -22.748  0.00  0.00    -0.000 C 
ATOM     19  C   UNL     1      32.246  -9.491 -19.185  0.00  0.00    -0.000 C 
ATOM     20  C   UNL     1      31.256 -11.024 -21.295  0.00  0.00    -0.000 C 
ATOM     21  C   UNL     1      31.976 -10.847 -18.997  0.00  0.00    -0.000 C 
ATOM     22  C   UNL     1      31.482 -11.612 -20.050  0.00  0.00    -0.000 C 
ENDBRANCH   2  13
BRANCH  10  26
ATOM     23  N   UNL     1      36.777  -4.003 -26.604  0.00  0.00    -0.147 NA
ATOM     24  N   UNL     1      37.575  -3.706 -27.665  0.00  0.00    -0.133 NA
ATOM     25  N   UNL     1      37.860  -3.318 -30.000  0.00  0.00    -0.341 N 
ATOM     26  C   UNL     1      35.459  -4.213 -26.812  0.00  0.00    +0.103 C 
ATOM     27  C   UNL     1      34.874  -4.140 -28.060  0.00  0.00    +0.024 C 
ATOM     28  C   UNL     1      35.686  -3.837 -29.138  0.00  0.00    +0.037 C 
ATOM     29  C   UNL     1      37.029  -3.628 -28.897  0.00  0.00    +0.147 C 
ATOM     30  H   UNL     1      38.822  -3.163 -29.863  0.00  0.00    +0.144 HD
ATOM     31  H   UNL     1      37.475  -3.257 -30.904  0.00  0.00    +0.144 HD
ENDBRANCH  10  26
TORSDOF 2
ENDMDL
MODEL 9
REMARK VINA RESULT:     -10.1      7.140     11.818
REMARK  Name = 58212050
REMARK  2 active torsions:
REMARK  status: ('A' for Active; 'I' for Inactive)
REMARK    1  A    between atoms: C_2  and  C_13
REMARK    2  A    between atoms: C_10  and  C_26
REMARK                            x       y       z     vdW  Elec       q    Type
REMARK                         _______ _______ _______ _____ _____    ______ ____
ROOT
ATOM      1  N   UNL     1      33.603 -12.478 -26.131  0.00  0.00    +0.389 N 
ATOM      2  C   UNL     1      33.246 -13.658 -23.984  0.00  0.00    +0.023 C 
ATOM      3  C   UNL     1      34.104 -13.554 -25.268  0.00  0.00    -0.068 C 
ATOM      4  C   UNL     1      32.952 -12.301 -23.358  0.00  0.00    -0.026 C 
ATOM      5  C   UNL     1      33.196 -11.122 -24.088  0.00  0.00    -0.047 C 
ATOM      6  C   UNL     1      33.807 -11.179 -25.469  0.00  0.00    -0.050 C 
ATOM      7  C   UNL     1      32.357 -12.202 -22.089  0.00  0.00    -0.004 C 
ATOM      8  C   UNL     1      32.911  -9.874 -23.513  0.00  0.00    -0.005 C 
ATOM      9  C   UNL     1      34.278 -12.498 -27.429  0.00  0.00    -0.100 C 
ATOM     10  C   UNL     1      32.349  -9.793 -22.240  0.00  0.00    +0.019 C 
ATOM     11  C   UNL     1      32.066 -10.957 -21.532  0.00  0.00    +0.001 C 
ATOM     12  H   UNL     1      32.606 -12.620 -26.291  0.00  0.00    -0.079 HD
ENDROOT
BRANCH   2  13
ATOM     13  C   UNL     1      33.887 -14.662 -23.033  0.00  0.00    -0.020 C 
ATOM     14  C   UNL     1      34.347 -15.886 -23.518  0.00  0.00    -0.004 C 
ATOM     15  C   UNL     1      34.012 -14.357 -21.681  0.00  0.00    -0.004 C 
ATOM     16  C   UNL     1      34.938 -16.823 -22.655  0.00  0.00    -0.000 C 
ATOM     17  C   UNL     1      35.065 -16.512 -21.280  0.00  0.00    -0.000 C 
ATOM     18  C   UNL     1      34.597 -15.276 -20.809  0.00  0.00    -0.000 C 
ATOM     19  C   UNL     1      35.406 -18.060 -23.127  0.00  0.00    -0.000 C 
ATOM     20  C   UNL     1      35.656 -17.449 -20.416  0.00  0.00    -0.000 C 
ATOM     21  C   UNL     1      35.991 -18.979 -22.254  0.00  0.00    -0.000 C 
ATOM     22  C   UNL     1      36.116 -18.674 -20.902  0.00  0.00    -0.000 C 
ENDBRANCH   2  13
BRANCH  10  26
ATOM     23  N   UNL     1      31.352  -7.659 -22.448  0.00  0.00    -0.147 NA
ATOM     24  N   UNL     1      31.032  -6.424 -21.978  0.00  0.00    -0.133 NA
ATOM     25  N   UNL     1      31.091  -4.786 -20.245  0.00  0.00    -0.341 N 
ATOM     26  C   UNL     1      32.054  -8.502 -21.660  0.00  0.00    +0.103 C 
ATOM     27  C   UNL     1      32.467  -8.169 -20.385  0.00  0.00    +0.024 C 
ATOM     28  C   UNL     1      32.142  -6.912 -19.907  0.00  0.00    +0.037 C 
ATOM     29  C   UNL     1      31.424  -6.071 -20.734  0.00  0.00    +0.147 C 
ATOM     30  H   UNL     1      30.580  -4.162 -20.809  0.00  0.00    +0.144 HD
ATOM     31  H   UNL     1      31.372  -4.516 -19.341  0.00  0.00    +0.144 HD
ENDBRANCH  10  26
TORSDOF 2
ENDMDL
