MODEL 1
REMARK VINA RESULT:     -11.6      0.000      0.000
REMARK  Name = 12136798
REMARK  7 active torsions:
REMARK  status: ('A' for Active; 'I' for Inactive)
REMARK    1  A    between atoms: C_1  and  C_21
REMARK    2  A    between atoms: C_2  and  C_9
REMARK    3  A    between atoms: N_8  and  C_12
REMARK    4  A    between atoms: C_13  and  N_18
REMARK    5  A    between atoms: C_21  and  N_23
REMARK    6  A    between atoms: C_24  and  C_26
REMARK    7  A    between atoms: C_27  and  C_29
REMARK                            x       y       z     vdW  Elec       q    Type
REMARK                         _______ _______ _______ _____ _____    ______ ____
ROOT
ATOM      1  C   UNL     1      35.631 -19.823 -20.613  0.00  0.00    -0.003 C 
ATOM      2  C   UNL     1      34.451 -21.773 -19.022  0.00  0.00    +0.054 C 
ATOM      3  C   UNL     1      36.431 -20.666 -19.851  0.00  0.00    -0.002 C 
ATOM      4  C   UNL     1      34.247 -19.944 -20.587  0.00  0.00    -0.002 C 
ATOM      5  C   UNL     1      35.839 -21.645 -19.053  0.00  0.00    +0.004 C 
ATOM      6  C   UNL     1      33.654 -20.923 -19.789  0.00  0.00    +0.004 C 
ENDROOT
BRANCH   2   9
ATOM      7  O   UNL     1      33.612 -23.915 -18.672  0.00  0.00    -0.270 OA
ATOM      8  N   UNL     1      33.557 -22.417 -16.867  0.00  0.00    -0.279 N 
ATOM      9  C   UNL     1      33.833 -22.793 -18.189  0.00  0.00    +0.250 C 
ATOM     10  H   UNL     1      33.789 -21.490 -16.628  0.00  0.00    +0.155 HD
BRANCH   8  12
ATOM     11  F   UNL     1      31.403 -25.467 -12.792  0.00  0.00    -0.204 F 
ATOM     12  C   UNL     1      32.987 -23.195 -15.829  0.00  0.00    +0.064 C 
ATOM     13  C   UNL     1      31.612 -23.337 -15.735  0.00  0.00    +0.057 C 
ATOM     14  C   UNL     1      33.839 -23.802 -14.920  0.00  0.00    +0.018 C 
ATOM     15  C   UNL     1      31.075 -24.108 -14.704  0.00  0.00    +0.045 C 
ATOM     16  C   UNL     1      33.301 -24.573 -13.890  0.00  0.00    +0.031 C 
ATOM     17  C   UNL     1      31.919 -24.726 -13.781  0.00  0.00    +0.141 C 
BRANCH  13  18
ATOM     18  N   UNL     1      30.738 -22.721 -16.658  0.00  0.00    -0.356 N 
ATOM     19  H   UNL     1      29.806 -22.533 -16.402  0.00  0.00    +0.142 HD
ATOM     20  H   UNL     1      31.061 -22.479 -17.556  0.00  0.00    +0.142 HD
ENDBRANCH  13  18
ENDBRANCH   8  12
ENDBRANCH   2   9
BRANCH   1  21
ATOM     21  C   UNL     1      36.267 -18.769 -21.472  0.00  0.00    +0.117 C 
BRANCH  21  23
ATOM     22  O   UNL     1      35.315 -17.047 -23.599  0.00  0.00    -0.270 OA
ATOM     23  N   UNL     1      35.609 -17.489 -21.336  0.00  0.00    -0.297 N 
ATOM     24  C   UNL     1      35.188 -16.736 -22.419  0.00  0.00    +0.246 C 
ATOM     25  H   UNL     1      35.454 -17.136 -20.430  0.00  0.00    +0.150 HD
BRANCH  24  26
ATOM     26  C   UNL     1      34.543 -15.462 -21.991  0.00  0.00    +0.058 C 
ATOM     27  C   UNL     1      34.043 -14.624 -22.911  0.00  0.00    +0.006 C 
BRANCH  27  29
ATOM     28  N   UNL     1      33.034 -11.035 -23.147  0.00  0.00    -0.242 NA
ATOM     29  C   UNL     1      33.376 -13.346 -22.601  0.00  0.00    +0.019 C 
ATOM     30  C   UNL     1      32.509 -13.256 -21.533  0.00  0.00    +0.003 C 
ATOM     31  C   UNL     1      33.613 -12.236 -23.376  0.00  0.00    +0.099 C 
ATOM     32  C   UNL     1      31.894 -12.037 -21.266  0.00  0.00    +0.021 C 
ATOM     33  C   UNL     1      32.188 -10.968 -22.095  0.00  0.00    +0.099 C 
ENDBRANCH  27  29
ENDBRANCH  24  26
ENDBRANCH  21  23
ENDBRANCH   1  21
TORSDOF 7
ENDMDL
MODEL 2
REMARK VINA RESULT:     -11.6      0.554      1.541
REMARK  Name = 12136798
REMARK  7 active torsions:
REMARK  status: ('A' for Active; 'I' for Inactive)
REMARK    1  A    between atoms: C_1  and  C_21
REMARK    2  A    between atoms: C_2  and  C_9
REMARK    3  A    between atoms: N_8  and  C_12
REMARK    4  A    between atoms: C_13  and  N_18
REMARK    5  A    between atoms: C_21  and  N_23
REMARK    6  A    between atoms: C_24  and  C_26
REMARK    7  A    between atoms: C_27  and  C_29
REMARK                            x       y       z     vdW  Elec       q    Type
REMARK                         _______ _______ _______ _____ _____    ______ ____
ROOT
ATOM      1  C   UNL     1      35.583 -19.827 -20.618  0.00  0.00    -0.003 C 
ATOM      2  C   UNL     1      34.365 -21.781 -19.061  0.00  0.00    +0.054 C 
ATOM      3  C   UNL     1      34.198 -19.943 -20.619  0.00  0.00    -0.002 C 
ATOM      4  C   UNL     1      36.366 -20.678 -19.848  0.00  0.00    -0.002 C 
ATOM      5  C   UNL     1      33.586 -20.923 -19.836  0.00  0.00    +0.004 C 
ATOM      6  C   UNL     1      35.755 -21.659 -19.066  0.00  0.00    +0.004 C 
ENDROOT
BRANCH   2   9
ATOM      7  O   UNL     1      33.625 -23.956 -18.698  0.00  0.00    -0.270 OA
ATOM      8  N   UNL     1      33.299 -22.395 -16.977  0.00  0.00    -0.279 N 
ATOM      9  C   UNL     1      33.729 -22.805 -18.246  0.00  0.00    +0.250 C 
ATOM     10  H   UNL     1      33.450 -21.447 -16.759  0.00  0.00    +0.155 HD
BRANCH   8  12
ATOM     11  F   UNL     1      30.796 -25.399 -13.070  0.00  0.00    -0.204 F 
ATOM     12  C   UNL     1      32.674 -23.167 -15.966  0.00  0.00    +0.064 C 
ATOM     13  C   UNL     1      33.414 -23.660 -14.904  0.00  0.00    +0.057 C 
ATOM     14  C   UNL     1      31.314 -23.412 -16.073  0.00  0.00    +0.018 C 
ATOM     15  C   UNL     1      32.777 -24.418 -13.921  0.00  0.00    +0.045 C 
ATOM     16  C   UNL     1      30.678 -24.169 -15.090  0.00  0.00    +0.031 C 
ATOM     17  C   UNL     1      31.409 -24.673 -14.014  0.00  0.00    +0.141 C 
BRANCH  13  18
ATOM     18  N   UNL     1      34.800 -23.415 -14.789  0.00  0.00    -0.356 N 
ATOM     19  H   UNL     1      35.371 -23.433 -15.591  0.00  0.00    +0.142 HD
ATOM     20  H   UNL     1      35.196 -23.225 -13.908  0.00  0.00    +0.142 HD
ENDBRANCH  13  18
ENDBRANCH   8  12
ENDBRANCH   2   9
BRANCH   1  21
ATOM     21  C   UNL     1      36.241 -18.772 -21.460  0.00  0.00    +0.117 C 
BRANCH  21  23
ATOM     22  O   UNL     1      35.276 -17.049 -23.580  0.00  0.00    -0.270 OA
ATOM     23  N   UNL     1      35.595 -17.486 -21.319  0.00  0.00    -0.297 N 
ATOM     24  C   UNL     1      35.166 -16.733 -22.399  0.00  0.00    +0.246 C 
ATOM     25  H   UNL     1      35.453 -17.129 -20.412  0.00  0.00    +0.150 HD
BRANCH  24  26
ATOM     26  C   UNL     1      34.537 -15.453 -21.968  0.00  0.00    +0.058 C 
ATOM     27  C   UNL     1      34.010 -14.625 -22.882  0.00  0.00    +0.006 C 
BRANCH  27  29
ATOM     28  N   UNL     1      33.013 -11.033 -23.121  0.00  0.00    -0.242 NA
ATOM     29  C   UNL     1      33.355 -13.342 -22.568  0.00  0.00    +0.019 C 
ATOM     30  C   UNL     1      32.508 -13.242 -21.484  0.00  0.00    +0.003 C 
ATOM     31  C   UNL     1      33.582 -12.238 -23.353  0.00  0.00    +0.099 C 
ATOM     32  C   UNL     1      31.904 -12.019 -21.213  0.00  0.00    +0.021 C 
ATOM     33  C   UNL     1      32.187 -10.956 -22.054  0.00  0.00    +0.099 C 
ENDBRANCH  27  29
ENDBRANCH  24  26
ENDBRANCH  21  23
ENDBRANCH   1  21
TORSDOF 7
ENDMDL
MODEL 3
REMARK VINA RESULT:     -11.5      4.736     11.962
REMARK  Name = 12136798
REMARK  7 active torsions:
REMARK  status: ('A' for Active; 'I' for Inactive)
REMARK    1  A    between atoms: C_1  and  C_21
REMARK    2  A    between atoms: C_2  and  C_9
REMARK    3  A    between atoms: N_8  and  C_12
REMARK    4  A    between atoms: C_13  and  N_18
REMARK    5  A    between atoms: C_21  and  N_23
REMARK    6  A    between atoms: C_24  and  C_26
REMARK    7  A    between atoms: C_27  and  C_29
REMARK                            x       y       z     vdW  Elec       q    Type
REMARK                         _______ _______ _______ _____ _____    ______ ____
ROOT
ATOM      1  C   UNL     1      34.502 -16.153 -23.408  0.00  0.00    -0.003 C 
ATOM      2  C   UNL     1      33.537 -13.621 -22.787  0.00  0.00    +0.054 C 
ATOM      3  C   UNL     1      33.844 -15.410 -24.380  0.00  0.00    -0.002 C 
ATOM      4  C   UNL     1      34.682 -15.644 -22.127  0.00  0.00    -0.002 C 
ATOM      5  C   UNL     1      33.360 -14.139 -24.070  0.00  0.00    +0.004 C 
ATOM      6  C   UNL     1      34.198 -14.373 -21.816  0.00  0.00    +0.004 C 
ENDROOT
BRANCH   2   9
ATOM      7  O   UNL     1      32.305 -12.157 -21.465  0.00  0.00    -0.270 OA
ATOM      8  N   UNL     1      33.441 -11.260 -23.312  0.00  0.00    -0.279 N 
ATOM      9  C   UNL     1      33.031 -12.296 -22.462  0.00  0.00    +0.250 C 
ATOM     10  H   UNL     1      34.020 -11.526 -24.063  0.00  0.00    +0.155 HD
BRANCH   8  12
ATOM     11  F   UNL     1      32.164  -5.893 -22.977  0.00  0.00    -0.204 F 
ATOM     12  C   UNL     1      33.132  -9.880 -23.232  0.00  0.00    +0.064 C 
ATOM     13  C   UNL     1      34.091  -8.929 -23.539  0.00  0.00    +0.057 C 
ATOM     14  C   UNL     1      31.854  -9.515 -22.838  0.00  0.00    +0.018 C 
ATOM     15  C   UNL     1      33.762  -7.576 -23.453  0.00  0.00    +0.045 C 
ATOM     16  C   UNL     1      31.526  -8.162 -22.753  0.00  0.00    +0.031 C 
ATOM     17  C   UNL     1      32.480  -7.192 -23.059  0.00  0.00    +0.141 C 
BRANCH  13  18
ATOM     18  N   UNL     1      35.395  -9.293 -23.940  0.00  0.00    -0.356 N 
ATOM     19  H   UNL     1      36.173  -8.988 -23.420  0.00  0.00    +0.142 HD
ATOM     20  H   UNL     1      35.527  -9.854 -24.739  0.00  0.00    +0.142 HD
ENDBRANCH  13  18
ENDBRANCH   8  12
ENDBRANCH   2   9
BRANCH   1  21
ATOM     21  C   UNL     1      35.023 -17.521 -23.742  0.00  0.00    +0.117 C 
BRANCH  21  23
ATOM     22  O   UNL     1      37.281 -18.384 -22.145  0.00  0.00    -0.270 OA
ATOM     23  N   UNL     1      35.001 -18.404 -22.597  0.00  0.00    -0.297 N 
ATOM     24  C   UNL     1      36.140 -18.759 -21.895  0.00  0.00    +0.246 C 
ATOM     25  H   UNL     1      34.135 -18.769 -22.304  0.00  0.00    +0.150 HD
BRANCH  24  26
ATOM     26  C   UNL     1      35.829 -19.679 -20.764  0.00  0.00    +0.058 C 
ATOM     27  C   UNL     1      34.572 -20.109 -20.578  0.00  0.00    +0.006 C 
BRANCH  27  29
ATOM     28  N   UNL     1      32.370 -22.020 -18.244  0.00  0.00    -0.242 NA
ATOM     29  C   UNL     1      34.153 -21.026 -19.502  0.00  0.00    +0.019 C 
ATOM     30  C   UNL     1      35.097 -21.722 -18.776  0.00  0.00    +0.003 C 
ATOM     31  C   UNL     1      32.821 -21.194 -19.216  0.00  0.00    +0.099 C 
ATOM     32  C   UNL     1      34.673 -22.580 -17.768  0.00  0.00    +0.021 C 
ATOM     33  C   UNL     1      33.311 -22.693 -17.544  0.00  0.00    +0.099 C 
ENDBRANCH  27  29
ENDBRANCH  24  26
ENDBRANCH  21  23
ENDBRANCH   1  21
TORSDOF 7
ENDMDL
MODEL 4
REMARK VINA RESULT:     -11.4      5.025     12.377
REMARK  Name = 12136798
REMARK  7 active torsions:
REMARK  status: ('A' for Active; 'I' for Inactive)
REMARK    1  A    between atoms: C_1  and  C_21
REMARK    2  A    between atoms: C_2  and  C_9
REMARK    3  A    between atoms: N_8  and  C_12
REMARK    4  A    between atoms: C_13  and  N_18
REMARK    5  A    between atoms: C_21  and  N_23
REMARK    6  A    between atoms: C_24  and  C_26
REMARK    7  A    between atoms: C_27  and  C_29
REMARK                            x       y       z     vdW  Elec       q    Type
REMARK                         _______ _______ _______ _____ _____    ______ ____
ROOT
ATOM      1  C   UNL     1      34.155 -14.220 -22.737  0.00  0.00    -0.003 C 
ATOM      2  C   UNL     1      32.665 -11.965 -22.089  0.00  0.00    +0.054 C 
ATOM      3  C   UNL     1      33.512 -14.150 -21.507  0.00  0.00    -0.002 C 
ATOM      4  C   UNL     1      34.061 -13.173 -23.647  0.00  0.00    -0.002 C 
ATOM      5  C   UNL     1      32.764 -13.019 -21.182  0.00  0.00    +0.004 C 
ATOM      6  C   UNL     1      33.313 -12.041 -23.322  0.00  0.00    +0.004 C 
ENDROOT
BRANCH   2   9
ATOM      7  O   UNL     1      30.738 -10.927 -21.299  0.00  0.00    -0.270 OA
ATOM      8  N   UNL     1      32.528  -9.553 -21.943  0.00  0.00    -0.279 N 
ATOM      9  C   UNL     1      31.886 -10.783 -21.750  0.00  0.00    +0.250 C 
ATOM     10  H   UNL     1      33.441  -9.599 -22.308  0.00  0.00    +0.155 HD
BRANCH   8  12
ATOM     11  F   UNL     1      30.577  -4.469 -20.993  0.00  0.00    -0.204 F 
ATOM     12  C   UNL     1      32.035  -8.250 -21.681  0.00  0.00    +0.064 C 
ATOM     13  C   UNL     1      32.217  -7.670 -20.437  0.00  0.00    +0.057 C 
ATOM     14  C   UNL     1      31.371  -7.583 -22.698  0.00  0.00    +0.018 C 
ATOM     15  C   UNL     1      31.722  -6.386 -20.203  0.00  0.00    +0.045 C 
ATOM     16  C   UNL     1      30.877  -6.300 -22.464  0.00  0.00    +0.031 C 
ATOM     17  C   UNL     1      31.052  -5.702 -21.217  0.00  0.00    +0.141 C 
BRANCH  13  18
ATOM     18  N   UNL     1      32.892  -8.344 -19.396  0.00  0.00    -0.356 N 
ATOM     19  H   UNL     1      33.841  -8.585 -19.500  0.00  0.00    +0.142 HD
ATOM     20  H   UNL     1      32.415  -8.572 -18.565  0.00  0.00    +0.142 HD
ENDBRANCH  13  18
ENDBRANCH   8  12
ENDBRANCH   2   9
BRANCH   1  21
ATOM     21  C   UNL     1      34.959 -15.438 -23.088  0.00  0.00    +0.117 C 
BRANCH  21  23
ATOM     22  O   UNL     1      35.693 -18.232 -23.307  0.00  0.00    -0.270 OA
ATOM     23  N   UNL     1      34.900 -16.444 -22.051  0.00  0.00    -0.297 N 
ATOM     24  C   UNL     1      35.275 -17.761 -22.254  0.00  0.00    +0.246 C 
ATOM     25  H   UNL     1      34.578 -16.179 -21.159  0.00  0.00    +0.150 HD
BRANCH  24  26
ATOM     26  C   UNL     1      35.113 -18.579 -21.019  0.00  0.00    +0.058 C 
ATOM     27  C   UNL     1      34.745 -19.866 -21.112  0.00  0.00    +0.006 C 
BRANCH  27  29
ATOM     28  N   UNL     1      35.562 -22.137 -18.262  0.00  0.00    -0.242 NA
ATOM     29  C   UNL     1      34.565 -20.769 -19.962  0.00  0.00    +0.019 C 
ATOM     30  C   UNL     1      33.298 -21.084 -19.517  0.00  0.00    +0.003 C 
ATOM     31  C   UNL     1      35.658 -21.303 -19.323  0.00  0.00    +0.099 C 
ATOM     32  C   UNL     1      33.159 -21.939 -18.429  0.00  0.00    +0.021 C 
ATOM     33  C   UNL     1      34.312 -22.433 -17.842  0.00  0.00    +0.099 C 
ENDBRANCH  27  29
ENDBRANCH  24  26
ENDBRANCH  21  23
ENDBRANCH   1  21
TORSDOF 7
ENDMDL
MODEL 5
REMARK VINA RESULT:     -11.4      4.266     11.420
REMARK  Name = 12136798
REMARK  7 active torsions:
REMARK  status: ('A' for Active; 'I' for Inactive)
REMARK    1  A    between atoms: C_1  and  C_21
REMARK    2  A    between atoms: C_2  and  C_9
REMARK    3  A    between atoms: N_8  and  C_12
REMARK    4  A    between atoms: C_13  and  N_18
REMARK    5  A    between atoms: C_21  and  N_23
REMARK    6  A    between atoms: C_24  and  C_26
REMARK    7  A    between atoms: C_27  and  C_29
REMARK                            x       y       z     vdW  Elec       q    Type
REMARK                         _______ _______ _______ _____ _____    ______ ____
ROOT
ATOM      1  C   UNL     1      35.017 -17.474 -23.250  0.00  0.00    -0.003 C 
ATOM      2  C   UNL     1      34.023 -14.927 -23.751  0.00  0.00    +0.054 C 
ATOM      3  C   UNL     1      35.152 -16.481 -22.287  0.00  0.00    -0.002 C 
ATOM      4  C   UNL     1      34.392 -17.207 -24.462  0.00  0.00    -0.002 C 
ATOM      5  C   UNL     1      34.653 -15.203 -22.538  0.00  0.00    +0.004 C 
ATOM      6  C   UNL     1      33.892 -15.928 -24.713  0.00  0.00    +0.004 C 
ENDROOT
BRANCH   2   9
ATOM      7  O   UNL     1      33.055 -13.333 -25.142  0.00  0.00    -0.270 OA
ATOM      8  N   UNL     1      33.534 -12.702 -22.933  0.00  0.00    -0.279 N 
ATOM      9  C   UNL     1      33.504 -13.594 -24.014  0.00  0.00    +0.250 C 
ATOM     10  H   UNL     1      33.921 -13.054 -22.099  0.00  0.00    +0.155 HD
BRANCH   8  12
ATOM     11  F   UNL     1      31.824  -7.449 -22.786  0.00  0.00    -0.204 F 
ATOM     12  C   UNL     1      33.081 -11.361 -22.883  0.00  0.00    +0.064 C 
ATOM     13  C   UNL     1      31.964 -11.027 -22.136  0.00  0.00    +0.057 C 
ATOM     14  C   UNL     1      33.783 -10.404 -23.599  0.00  0.00    +0.018 C 
ATOM     15  C   UNL     1      31.537  -9.699 -22.102  0.00  0.00    +0.045 C 
ATOM     16  C   UNL     1      33.356  -9.077 -23.565  0.00  0.00    +0.031 C 
ATOM     17  C   UNL     1      32.233  -8.724 -22.818  0.00  0.00    +0.141 C 
BRANCH  13  18
ATOM     18  N   UNL     1      31.244 -11.996 -21.404  0.00  0.00    -0.356 N 
ATOM     19  H   UNL     1      30.688 -12.656 -21.877  0.00  0.00    +0.142 HD
ATOM     20  H   UNL     1      31.300 -12.014 -20.421  0.00  0.00    +0.142 HD
ENDBRANCH  13  18
ENDBRANCH   8  12
ENDBRANCH   2   9
BRANCH   1  21
ATOM     21  C   UNL     1      35.554 -18.850 -22.980  0.00  0.00    +0.117 C 
BRANCH  21  23
ATOM     22  O   UNL     1      36.654 -19.763 -20.460  0.00  0.00    -0.270 OA
ATOM     23  N   UNL     1      34.849 -19.505 -21.901  0.00  0.00    -0.297 N 
ATOM     24  C   UNL     1      35.466 -19.905 -20.728  0.00  0.00    +0.246 C 
ATOM     25  H   UNL     1      33.884 -19.673 -22.006  0.00  0.00    +0.150 HD
BRANCH  24  26
ATOM     26  C   UNL     1      34.505 -20.553 -19.791  0.00  0.00    +0.058 C 
ATOM     27  C   UNL     1      34.930 -21.512 -18.954  0.00  0.00    +0.006 C 
BRANCH  27  29
ATOM     28  N   UNL     1      31.863 -22.790 -17.249  0.00  0.00    -0.242 NA
ATOM     29  C   UNL     1      34.073 -22.211 -17.980  0.00  0.00    +0.019 C 
ATOM     30  C   UNL     1      34.637 -22.912 -16.936  0.00  0.00    +0.003 C 
ATOM     31  C   UNL     1      32.705 -22.171 -18.107  0.00  0.00    +0.099 C 
ATOM     32  C   UNL     1      33.803 -23.562 -16.032  0.00  0.00    +0.021 C 
ATOM     33  C   UNL     1      32.436 -23.471 -16.232  0.00  0.00    +0.099 C 
ENDBRANCH  27  29
ENDBRANCH  24  26
ENDBRANCH  21  23
ENDBRANCH   1  21
TORSDOF 7
ENDMDL
MODEL 6
REMARK VINA RESULT:     -11.3      1.803      2.647
REMARK  Name = 12136798
REMARK  7 active torsions:
REMARK  status: ('A' for Active; 'I' for Inactive)
REMARK    1  A    between atoms: C_1  and  C_21
REMARK    2  A    between atoms: C_2  and  C_9
REMARK    3  A    between atoms: N_8  and  C_12
REMARK    4  A    between atoms: C_13  and  N_18
REMARK    5  A    between atoms: C_21  and  N_23
REMARK    6  A    between atoms: C_24  and  C_26
REMARK    7  A    between atoms: C_27  and  C_29
REMARK                            x       y       z     vdW  Elec       q    Type
REMARK                         _______ _______ _______ _____ _____    ______ ____
ROOT
ATOM      1  C   UNL     1      35.712 -19.332 -21.229  0.00  0.00    -0.003 C 
ATOM      2  C   UNL     1      35.247 -21.220 -19.243  0.00  0.00    +0.054 C 
ATOM      3  C   UNL     1      34.421 -19.796 -21.010  0.00  0.00    -0.002 C 
ATOM      4  C   UNL     1      36.774 -19.803 -20.465  0.00  0.00    -0.002 C 
ATOM      5  C   UNL     1      34.187 -20.743 -20.013  0.00  0.00    +0.004 C 
ATOM      6  C   UNL     1      36.540 -20.750 -19.468  0.00  0.00    +0.004 C 
ENDROOT
BRANCH   2   9
ATOM      7  O   UNL     1      34.191 -23.123 -18.420  0.00  0.00    -0.270 OA
ATOM      8  N   UNL     1      35.748 -22.054 -17.027  0.00  0.00    -0.279 N 
ATOM      9  C   UNL     1      35.003 -22.210 -18.204  0.00  0.00    +0.250 C 
ATOM     10  H   UNL     1      36.354 -21.279 -17.002  0.00  0.00    +0.155 HD
BRANCH   8  12
ATOM     11  F   UNL     1      35.647 -25.222 -12.498  0.00  0.00    -0.204 F 
ATOM     12  C   UNL     1      35.742 -22.867 -15.866  0.00  0.00    +0.064 C 
ATOM     13  C   UNL     1      36.931 -23.327 -15.327  0.00  0.00    +0.057 C 
ATOM     14  C   UNL     1      34.520 -23.186 -15.294  0.00  0.00    +0.018 C 
ATOM     15  C   UNL     1      36.900 -24.126 -14.184  0.00  0.00    +0.045 C 
ATOM     16  C   UNL     1      34.489 -23.984 -14.151  0.00  0.00    +0.031 C 
ATOM     17  C   UNL     1      35.678 -24.455 -13.596  0.00  0.00    +0.141 C 
BRANCH  13  18
ATOM     18  N   UNL     1      38.180 -23.007 -15.905  0.00  0.00    -0.356 N 
ATOM     19  H   UNL     1      38.805 -22.415 -15.427  0.00  0.00    +0.142 HD
ATOM     20  H   UNL     1      38.425 -23.375 -16.784  0.00  0.00    +0.142 HD
ENDBRANCH  13  18
ENDBRANCH   8  12
ENDBRANCH   2   9
BRANCH   1  21
ATOM     21  C   UNL     1      35.965 -18.312 -22.301  0.00  0.00    +0.117 C 
BRANCH  21  23
ATOM     22  O   UNL     1      35.075 -16.277 -24.161  0.00  0.00    -0.270 OA
ATOM     23  N   UNL     1      35.370 -17.033 -21.983  0.00  0.00    -0.297 N 
ATOM     24  C   UNL     1      34.975 -16.123 -22.949  0.00  0.00    +0.246 C 
ATOM     25  H   UNL     1      35.240 -16.799 -21.035  0.00  0.00    +0.150 HD
BRANCH  24  26
ATOM     26  C   UNL     1      34.396 -14.890 -22.343  0.00  0.00    +0.058 C 
ATOM     27  C   UNL     1      33.606 -14.092 -23.076  0.00  0.00    +0.006 C 
BRANCH  27  29
ATOM     28  N   UNL     1      32.641 -10.493 -22.811  0.00  0.00    -0.242 NA
ATOM     29  C   UNL     1      32.972 -12.858 -22.579  0.00  0.00    +0.019 C 
ATOM     30  C   UNL     1      32.152 -12.896 -21.470  0.00  0.00    +0.003 C 
ATOM     31  C   UNL     1      33.192 -11.661 -23.216  0.00  0.00    +0.099 C 
ATOM     32  C   UNL     1      31.568 -11.716 -21.023  0.00  0.00    +0.021 C 
ATOM     33  C   UNL     1      31.842 -10.552 -21.723  0.00  0.00    +0.099 C 
ENDBRANCH  27  29
ENDBRANCH  24  26
ENDBRANCH  21  23
ENDBRANCH   1  21
TORSDOF 7
ENDMDL
MODEL 7
REMARK VINA RESULT:     -11.2      4.254     11.435
REMARK  Name = 12136798
REMARK  7 active torsions:
REMARK  status: ('A' for Active; 'I' for Inactive)
REMARK    1  A    between atoms: C_1  and  C_21
REMARK    2  A    between atoms: C_2  and  C_9
REMARK    3  A    between atoms: N_8  and  C_12
REMARK    4  A    between atoms: C_13  and  N_18
REMARK    5  A    between atoms: C_21  and  N_23
REMARK    6  A    between atoms: C_24  and  C_26
REMARK    7  A    between atoms: C_27  and  C_29
REMARK                            x       y       z     vdW  Elec       q    Type
REMARK                         _______ _______ _______ _____ _____    ______ ____
ROOT
ATOM      1  C   UNL     1      35.084 -17.621 -23.206  0.00  0.00    -0.003 C 
ATOM      2  C   UNL     1      34.024 -15.092 -23.661  0.00  0.00    +0.054 C 
ATOM      3  C   UNL     1      35.258 -16.622 -22.257  0.00  0.00    -0.002 C 
ATOM      4  C   UNL     1      34.387 -17.370 -24.381  0.00  0.00    -0.002 C 
ATOM      5  C   UNL     1      34.726 -15.353 -22.484  0.00  0.00    +0.004 C 
ATOM      6  C   UNL     1      33.854 -16.101 -24.609  0.00  0.00    +0.004 C 
ENDROOT
BRANCH   2   9
ATOM      7  O   UNL     1      33.086 -13.473 -25.042  0.00  0.00    -0.270 OA
ATOM      8  N   UNL     1      33.393 -12.928 -22.780  0.00  0.00    -0.279 N 
ATOM      9  C   UNL     1      33.470 -13.768 -23.899  0.00  0.00    +0.250 C 
ATOM     10  H   UNL     1      33.738 -13.304 -21.938  0.00  0.00    +0.155 HD
BRANCH   8  12
ATOM     11  F   UNL     1      31.354  -7.803 -22.426  0.00  0.00    -0.204 F 
ATOM     12  C   UNL     1      32.884 -11.608 -22.702  0.00  0.00    +0.064 C 
ATOM     13  C   UNL     1      33.475 -10.586 -23.426  0.00  0.00    +0.057 C 
ATOM     14  C   UNL     1      31.789 -11.374 -21.886  0.00  0.00    +0.018 C 
ATOM     15  C   UNL     1      32.956  -9.294 -23.333  0.00  0.00    +0.045 C 
ATOM     16  C   UNL     1      31.270 -10.083 -21.793  0.00  0.00    +0.031 C 
ATOM     17  C   UNL     1      31.854  -9.043 -22.515  0.00  0.00    +0.141 C 
BRANCH  13  18
ATOM     18  N   UNL     1      34.591 -10.817 -24.259  0.00  0.00    -0.356 N 
ATOM     19  H   UNL     1      34.468 -11.237 -25.141  0.00  0.00    +0.142 HD
ATOM     20  H   UNL     1      35.493 -10.557 -23.960  0.00  0.00    +0.142 HD
ENDBRANCH  13  18
ENDBRANCH   8  12
ENDBRANCH   2   9
BRANCH   1  21
ATOM     21  C   UNL     1      35.657 -18.988 -22.962  0.00  0.00    +0.117 C 
BRANCH  21  23
ATOM     22  O   UNL     1      36.881 -19.725 -20.442  0.00  0.00    -0.270 OA
ATOM     23  N   UNL     1      35.026 -19.647 -21.840  0.00  0.00    -0.297 N 
ATOM     24  C   UNL     1      35.699 -19.958 -20.671  0.00  0.00    +0.246 C 
ATOM     25  H   UNL     1      34.073 -19.884 -21.911  0.00  0.00    +0.150 HD
BRANCH  24  26
ATOM     26  C   UNL     1      34.810 -20.633 -19.683  0.00  0.00    +0.058 C 
ATOM     27  C   UNL     1      35.309 -21.571 -18.864  0.00  0.00    +0.006 C 
BRANCH  27  29
ATOM     28  N   UNL     1      34.496 -23.535 -15.793  0.00  0.00    -0.242 NA
ATOM     29  C   UNL     1      34.527 -22.293 -17.845  0.00  0.00    +0.019 C 
ATOM     30  C   UNL     1      33.158 -22.403 -17.969  0.00  0.00    +0.003 C 
ATOM     31  C   UNL     1      35.155 -22.860 -16.763  0.00  0.00    +0.099 C 
ATOM     32  C   UNL     1      32.446 -23.090 -16.992  0.00  0.00    +0.021 C 
ATOM     33  C   UNL     1      33.156 -23.632 -15.934  0.00  0.00    +0.099 C 
ENDBRANCH  27  29
ENDBRANCH  24  26
ENDBRANCH  21  23
ENDBRANCH   1  21
TORSDOF 7
ENDMDL
MODEL 8
REMARK VINA RESULT:     -11.0      1.011      1.668
REMARK  Name = 12136798
REMARK  7 active torsions:
REMARK  status: ('A' for Active; 'I' for Inactive)
REMARK    1  A    between atoms: C_1  and  C_21
REMARK    2  A    between atoms: C_2  and  C_9
REMARK    3  A    between atoms: N_8  and  C_12
REMARK    4  A    between atoms: C_13  and  N_18
REMARK    5  A    between atoms: C_21  and  N_23
REMARK    6  A    between atoms: C_24  and  C_26
REMARK    7  A    between atoms: C_27  and  C_29
REMARK                            x       y       z     vdW  Elec       q    Type
REMARK                         _______ _______ _______ _____ _____    ______ ____
ROOT
ATOM      1  C   UNL     1      36.023 -20.257 -19.884  0.00  0.00    -0.003 C 
ATOM      2  C   UNL     1      34.494 -22.098 -18.469  0.00  0.00    +0.054 C 
ATOM      3  C   UNL     1      34.663 -20.370 -20.149  0.00  0.00    -0.002 C 
ATOM      4  C   UNL     1      36.626 -21.055 -18.920  0.00  0.00    -0.002 C 
ATOM      5  C   UNL     1      33.896 -21.294 -19.439  0.00  0.00    +0.004 C 
ATOM      6  C   UNL     1      35.859 -21.978 -18.209  0.00  0.00    +0.004 C 
ENDROOT
BRANCH   2   9
ATOM      7  O   UNL     1      33.453 -24.166 -18.244  0.00  0.00    -0.270 OA
ATOM      8  N   UNL     1      33.277 -22.659 -16.454  0.00  0.00    -0.279 N 
ATOM      9  C   UNL     1      33.695 -23.062 -17.730  0.00  0.00    +0.250 C 
ATOM     10  H   UNL     1      33.546 -21.752 -16.182  0.00  0.00    +0.155 HD
BRANCH   8  12
ATOM     11  F   UNL     1      30.374 -25.513 -12.715  0.00  0.00    -0.204 F 
ATOM     12  C   UNL     1      32.516 -23.385 -15.505  0.00  0.00    +0.064 C 
ATOM     13  C   UNL     1      31.134 -23.413 -15.588  0.00  0.00    +0.057 C 
ATOM     14  C   UNL     1      33.191 -24.059 -14.499  0.00  0.00    +0.018 C 
ATOM     15  C   UNL     1      30.407 -24.135 -14.642  0.00  0.00    +0.045 C 
ATOM     16  C   UNL     1      32.464 -24.781 -13.554  0.00  0.00    +0.031 C 
ATOM     17  C   UNL     1      31.072 -24.819 -13.624  0.00  0.00    +0.141 C 
BRANCH  13  18
ATOM     18  N   UNL     1      30.439 -22.729 -16.610  0.00  0.00    -0.356 N 
ATOM     19  H   UNL     1      30.649 -22.911 -17.555  0.00  0.00    +0.142 HD
ATOM     20  H   UNL     1      29.744 -22.071 -16.379  0.00  0.00    +0.142 HD
ENDBRANCH  13  18
ENDBRANCH   8  12
ENDBRANCH   2   9
BRANCH   1  21
ATOM     21  C   UNL     1      36.849 -19.263 -20.648  0.00  0.00    +0.117 C 
BRANCH  21  23
ATOM     22  O   UNL     1      36.032 -18.847 -23.396  0.00  0.00    -0.270 OA
ATOM     23  N   UNL     1      36.047 -18.179 -21.170  0.00  0.00    -0.297 N 
ATOM     24  C   UNL     1      35.707 -18.066 -22.507  0.00  0.00    +0.246 C 
ATOM     25  H   UNL     1      35.728 -17.488 -20.544  0.00  0.00    +0.150 HD
BRANCH  24  26
ATOM     26  C   UNL     1      34.877 -16.856 -22.767  0.00  0.00    +0.058 C 
ATOM     27  C   UNL     1      34.910 -15.825 -21.910  0.00  0.00    +0.006 C 
BRANCH  27  29
ATOM     28  N   UNL     1      32.669 -12.945 -21.113  0.00  0.00    -0.242 NA
ATOM     29  C   UNL     1      34.141 -14.578 -22.072  0.00  0.00    +0.019 C 
ATOM     30  C   UNL     1      34.166 -13.898 -23.272  0.00  0.00    +0.003 C 
ATOM     31  C   UNL     1      33.395 -14.083 -21.030  0.00  0.00    +0.099 C 
ATOM     32  C   UNL     1      33.431 -12.724 -23.397  0.00  0.00    +0.021 C 
ATOM     33  C   UNL     1      32.706 -12.294 -22.298  0.00  0.00    +0.099 C 
ENDBRANCH  27  29
ENDBRANCH  24  26
ENDBRANCH  21  23
ENDBRANCH   1  21
TORSDOF 7
ENDMDL
MODEL 9
REMARK VINA RESULT:     -10.7      3.851     10.941
REMARK  Name = 12136798
REMARK  7 active torsions:
REMARK  status: ('A' for Active; 'I' for Inactive)
REMARK    1  A    between atoms: C_1  and  C_21
REMARK    2  A    between atoms: C_2  and  C_9
REMARK    3  A    between atoms: N_8  and  C_12
REMARK    4  A    between atoms: C_13  and  N_18
REMARK    5  A    between atoms: C_21  and  N_23
REMARK    6  A    between atoms: C_24  and  C_26
REMARK    7  A    between atoms: C_27  and  C_29
REMARK                            x       y       z     vdW  Elec       q    Type
REMARK                         _______ _______ _______ _____ _____    ______ ____
ROOT
ATOM      1  C   UNL     1      35.842 -20.377 -20.319  0.00  0.00    -0.003 C 
ATOM      2  C   UNL     1      35.231 -18.355 -22.127  0.00  0.00    +0.054 C 
ATOM      3  C   UNL     1      34.643 -20.421 -21.021  0.00  0.00    -0.002 C 
ATOM      4  C   UNL     1      36.738 -19.332 -20.510  0.00  0.00    -0.002 C 
ATOM      5  C   UNL     1      34.337 -19.407 -21.929  0.00  0.00    +0.004 C 
ATOM      6  C   UNL     1      36.432 -18.318 -21.418  0.00  0.00    +0.004 C 
ENDROOT
BRANCH   2   9
ATOM      7  O   UNL     1      34.930 -17.547 -24.287  0.00  0.00    -0.270 OA
ATOM      8  N   UNL     1      34.576 -16.057 -22.510  0.00  0.00    -0.279 N 
ATOM      9  C   UNL     1      34.911 -17.296 -23.072  0.00  0.00    +0.250 C 
ATOM     10  H   UNL     1      34.605 -16.011 -21.527  0.00  0.00    +0.155 HD
BRANCH   8  12
ATOM     11  F   UNL     1      33.096 -11.434 -25.153  0.00  0.00    -0.204 F 
ATOM     12  C   UNL     1      34.200 -14.862 -23.171  0.00  0.00    +0.064 C 
ATOM     13  C   UNL     1      34.211 -13.654 -22.494  0.00  0.00    +0.057 C 
ATOM     14  C   UNL     1      33.822 -14.939 -24.503  0.00  0.00    +0.018 C 
ATOM     15  C   UNL     1      33.837 -12.490 -23.167  0.00  0.00    +0.045 C 
ATOM     16  C   UNL     1      33.449 -13.776 -25.175  0.00  0.00    +0.031 C 
ATOM     17  C   UNL     1      33.455 -12.551 -24.507  0.00  0.00    +0.141 C 
BRANCH  13  18
ATOM     18  N   UNL     1      34.594 -13.568 -21.137  0.00  0.00    -0.356 N 
ATOM     19  H   UNL     1      34.132 -12.941 -20.535  0.00  0.00    +0.142 HD
ATOM     20  H   UNL     1      35.321 -14.136 -20.793  0.00  0.00    +0.142 HD
ENDBRANCH  13  18
ENDBRANCH   8  12
ENDBRANCH   2   9
BRANCH   1  21
ATOM     21  C   UNL     1      36.172 -21.468 -19.342  0.00  0.00    +0.117 C 
BRANCH  21  23
ATOM     22  O   UNL     1      34.204 -23.592 -19.424  0.00  0.00    -0.270 OA
ATOM     23  N   UNL     1      35.095 -21.702 -18.406  0.00  0.00    -0.297 N 
ATOM     24  C   UNL     1      34.201 -22.751 -18.531  0.00  0.00    +0.246 C 
ATOM     25  H   UNL     1      34.994 -21.086 -17.644  0.00  0.00    +0.150 HD
BRANCH  24  26
ATOM     26  C   UNL     1      33.195 -22.755 -17.431  0.00  0.00    +0.058 C 
ATOM     27  C   UNL     1      33.460 -23.397 -16.284  0.00  0.00    +0.006 C 
BRANCH  27  29
ATOM     28  N   UNL     1      32.230 -23.914 -12.795  0.00  0.00    -0.242 NA
ATOM     29  C   UNL     1      32.546 -23.457 -15.129  0.00  0.00    +0.019 C 
ATOM     30  C   UNL     1      31.215 -23.129 -15.278  0.00  0.00    +0.003 C 
ATOM     31  C   UNL     1      33.014 -23.839 -13.895  0.00  0.00    +0.099 C 
ATOM     32  C   UNL     1      30.377 -23.194 -14.171  0.00  0.00    +0.021 C 
ATOM     33  C   UNL     1      30.928 -23.589 -12.963  0.00  0.00    +0.099 C 
ENDBRANCH  27  29
ENDBRANCH  24  26
ENDBRANCH  21  23
ENDBRANCH   1  21
TORSDOF 7
ENDMDL
