MODEL 1
REMARK VINA RESULT:     -12.3      0.000      0.000
REMARK  Name = 44141871
REMARK  6 active torsions:
REMARK  status: ('A' for Active; 'I' for Inactive)
REMARK    1  A    between atoms: C_1  and  C_10
REMARK    2  A    between atoms: C_4  and  O_20
REMARK    3  A    between atoms: C_9  and  C_13
REMARK    4  A    between atoms: C_13  and  C_15
REMARK    5  A    between atoms: O_20  and  C_21
REMARK    6  A    between atoms: C_21  and  C_23
REMARK                            x       y       z     vdW  Elec       q    Type
REMARK                         _______ _______ _______ _____ _____    ______ ____
ROOT
ATOM      1  C   UNL     1      33.151 -13.323 -22.454  0.00  0.00    +0.015 C 
ATOM      2  C   UNL     1      33.897 -14.012 -21.497  0.00  0.00    +0.004 C 
ATOM      3  C   UNL     1      33.147 -13.759 -23.779  0.00  0.00    +0.004 C 
ATOM      4  C   UNL     1      34.633 -15.571 -23.190  0.00  0.00    +0.139 C 
ATOM      5  C   UNL     1      34.637 -15.136 -21.865  0.00  0.00    +0.037 C 
ATOM      6  C   UNL     1      33.887 -14.882 -24.147  0.00  0.00    +0.037 C 
ENDROOT
BRANCH   1  10
ATOM      7  N   UNL     1      31.465 -12.187 -21.068  0.00  0.00    -0.236 N 
ATOM      8  N   UNL     1      30.853 -11.007 -20.863  0.00  0.00    -0.180 NA
ATOM      9  C   UNL     1      32.377 -10.878 -22.560  0.00  0.00    +0.018 C 
ATOM     10  C   UNL     1      32.386 -12.162 -22.073  0.00  0.00    +0.063 C 
ATOM     11  C   UNL     1      31.415 -10.211 -21.777  0.00  0.00    +0.115 C 
ATOM     12  H   UNL     1      31.266 -12.994 -20.540  0.00  0.00    +0.174 HD
BRANCH   9  13
ATOM     13  C   UNL     1      33.186 -10.313 -23.654  0.00  0.00    +0.056 C 
BRANCH  13  15
ATOM     14  N   UNL     1      33.954  -6.077 -23.311  0.00  0.00    -0.242 NA
ATOM     15  C   UNL     1      33.457  -8.819 -23.533  0.00  0.00    -0.015 C 
ATOM     16  C   UNL     1      34.744  -8.363 -23.268  0.00  0.00    +0.017 C 
ATOM     17  C   UNL     1      32.419  -7.906 -23.687  0.00  0.00    +0.017 C 
ATOM     18  C   UNL     1      34.937  -6.994 -23.167  0.00  0.00    +0.099 C 
ATOM     19  C   UNL     1      32.718  -6.558 -23.568  0.00  0.00    +0.099 C 
ENDBRANCH  13  15
ENDBRANCH   9  13
ENDBRANCH   1  10
BRANCH   4  20
ATOM     20  O   UNL     1      35.357 -16.676 -23.551  0.00  0.00    -0.468 OA
BRANCH  20  21
ATOM     21  C   UNL     1      34.686 -17.928 -23.493  0.00  0.00    +0.264 C 
BRANCH  21  23
ATOM     22  N   UNL     1      34.301 -19.491 -21.685  0.00  0.00    -0.406 NA
ATOM     23  C   UNL     1      35.198 -18.711 -22.330  0.00  0.00    +0.152 C 
ATOM     24  C   UNL     1      36.065 -20.171 -20.192  0.00  0.00    +0.026 C 
ATOM     25  C   UNL     1      34.726 -20.212 -20.630  0.00  0.00    +0.113 C 
ATOM     26  C   UNL     1      36.527 -18.605 -21.975  0.00  0.00    +0.031 C 
ATOM     27  C   UNL     1      36.962 -19.349 -20.888  0.00  0.00    +0.005 C 
ATOM     28  C   UNL     1      36.474 -20.938 -19.087  0.00  0.00    +0.002 C 
ATOM     29  C   UNL     1      33.835 -21.029 -19.938  0.00  0.00    +0.085 C 
ATOM     30  C   UNL     1      35.562 -21.745 -18.413  0.00  0.00    -0.004 C 
ATOM     31  C   UNL     1      34.241 -21.791 -18.840  0.00  0.00    -0.019 C 
ENDBRANCH  21  23
ENDBRANCH  20  21
ENDBRANCH   4  20
TORSDOF 6
ENDMDL
MODEL 2
REMARK VINA RESULT:     -12.2      3.235      6.494
REMARK  Name = 44141871
REMARK  6 active torsions:
REMARK  status: ('A' for Active; 'I' for Inactive)
REMARK    1  A    between atoms: C_1  and  C_10
REMARK    2  A    between atoms: C_4  and  O_20
REMARK    3  A    between atoms: C_9  and  C_13
REMARK    4  A    between atoms: C_13  and  C_15
REMARK    5  A    between atoms: O_20  and  C_21
REMARK    6  A    between atoms: C_21  and  C_23
REMARK                            x       y       z     vdW  Elec       q    Type
REMARK                         _______ _______ _______ _____ _____    ______ ____
ROOT
ATOM      1  C   UNL     1      34.981 -18.768 -21.845  0.00  0.00    +0.015 C 
ATOM      2  C   UNL     1      36.189 -18.941 -21.169  0.00  0.00    +0.004 C 
ATOM      3  C   UNL     1      33.877 -19.551 -21.509  0.00  0.00    +0.004 C 
ATOM      4  C   UNL     1      35.188 -20.679 -19.821  0.00  0.00    +0.139 C 
ATOM      5  C   UNL     1      36.292 -19.896 -20.158  0.00  0.00    +0.037 C 
ATOM      6  C   UNL     1      33.980 -20.506 -20.497  0.00  0.00    +0.037 C 
ENDROOT
BRANCH   1  10
ATOM      7  N   UNL     1      34.756 -18.115 -24.207  0.00  0.00    -0.236 N 
ATOM      8  N   UNL     1      34.671 -17.055 -25.031  0.00  0.00    -0.180 NA
ATOM      9  C   UNL     1      34.869 -16.408 -22.848  0.00  0.00    +0.018 C 
ATOM     10  C   UNL     1      34.875 -17.781 -22.891  0.00  0.00    +0.063 C 
ATOM     11  C   UNL     1      34.740 -16.015 -24.195  0.00  0.00    +0.115 C 
ATOM     12  H   UNL     1      34.733 -19.046 -24.526  0.00  0.00    +0.174 HD
BRANCH   9  13
ATOM     13  C   UNL     1      34.972 -15.532 -21.669  0.00  0.00    +0.056 C 
BRANCH  13  15
ATOM     14  N   UNL     1      32.263 -12.169 -21.691  0.00  0.00    -0.242 NA
ATOM     15  C   UNL     1      34.016 -14.346 -21.677  0.00  0.00    -0.015 C 
ATOM     16  C   UNL     1      33.994 -13.475 -22.761  0.00  0.00    +0.017 C 
ATOM     17  C   UNL     1      33.163 -14.129 -20.601  0.00  0.00    +0.017 C 
ATOM     18  C   UNL     1      33.107 -12.411 -22.719  0.00  0.00    +0.099 C 
ATOM     19  C   UNL     1      32.313 -13.037 -20.656  0.00  0.00    +0.099 C 
ENDBRANCH  13  15
ENDBRANCH   9  13
ENDBRANCH   1  10
BRANCH   4  20
ATOM     20  O   UNL     1      35.288 -21.614 -18.826  0.00  0.00    -0.468 OA
BRANCH  20  21
ATOM     21  C   UNL     1      34.363 -22.693 -18.865  0.00  0.00    +0.264 C 
BRANCH  21  23
ATOM     22  N   UNL     1      32.409 -22.843 -17.444  0.00  0.00    -0.406 NA
ATOM     23  C   UNL     1      33.759 -22.878 -17.512  0.00  0.00    +0.152 C 
ATOM     24  C   UNL     1      32.587 -23.209 -15.069  0.00  0.00    +0.026 C 
ATOM     25  C   UNL     1      31.828 -23.006 -16.240  0.00  0.00    +0.113 C 
ATOM     26  C   UNL     1      34.585 -23.069 -16.423  0.00  0.00    +0.031 C 
ATOM     27  C   UNL     1      33.983 -23.237 -15.184  0.00  0.00    +0.005 C 
ATOM     28  C   UNL     1      31.947 -23.376 -13.829  0.00  0.00    +0.002 C 
ATOM     29  C   UNL     1      30.441 -22.978 -16.125  0.00  0.00    +0.085 C 
ATOM     30  C   UNL     1      30.558 -23.342 -13.743  0.00  0.00    -0.004 C 
ATOM     31  C   UNL     1      29.804 -23.144 -14.892  0.00  0.00    -0.019 C 
ENDBRANCH  21  23
ENDBRANCH  20  21
ENDBRANCH   4  20
TORSDOF 6
ENDMDL
MODEL 3
REMARK VINA RESULT:     -12.2      3.130      6.162
REMARK  Name = 44141871
REMARK  6 active torsions:
REMARK  status: ('A' for Active; 'I' for Inactive)
REMARK    1  A    between atoms: C_1  and  C_10
REMARK    2  A    between atoms: C_4  and  O_20
REMARK    3  A    between atoms: C_9  and  C_13
REMARK    4  A    between atoms: C_13  and  C_15
REMARK    5  A    between atoms: O_20  and  C_21
REMARK    6  A    between atoms: C_21  and  C_23
REMARK                            x       y       z     vdW  Elec       q    Type
REMARK                         _______ _______ _______ _____ _____    ______ ____
ROOT
ATOM      1  C   UNL     1      35.286 -18.325 -22.019  0.00  0.00    +0.015 C 
ATOM      2  C   UNL     1      34.400 -19.272 -21.506  0.00  0.00    +0.004 C 
ATOM      3  C   UNL     1      36.599 -18.273 -21.549  0.00  0.00    +0.004 C 
ATOM      4  C   UNL     1      36.138 -20.115 -20.055  0.00  0.00    +0.139 C 
ATOM      5  C   UNL     1      34.826 -20.167 -20.525  0.00  0.00    +0.037 C 
ATOM      6  C   UNL     1      37.025 -19.168 -20.568  0.00  0.00    +0.037 C 
ENDROOT
BRANCH   1  10
ATOM      7  N   UNL     1      34.507 -17.798 -24.293  0.00  0.00    -0.236 N 
ATOM      8  N   UNL     1      34.123 -16.790 -25.096  0.00  0.00    -0.180 NA
ATOM      9  C   UNL     1      34.672 -16.037 -23.010  0.00  0.00    +0.018 C 
ATOM     10  C   UNL     1      34.846 -17.400 -23.034  0.00  0.00    +0.063 C 
ATOM     11  C   UNL     1      34.226 -15.717 -24.307  0.00  0.00    +0.115 C 
ATOM     12  H   UNL     1      34.540 -18.737 -24.588  0.00  0.00    +0.174 HD
BRANCH   9  13
ATOM     13  C   UNL     1      34.899 -15.109 -21.889  0.00  0.00    +0.056 C 
BRANCH  13  15
ATOM     14  N   UNL     1      31.994 -11.928 -21.581  0.00  0.00    -0.242 NA
ATOM     15  C   UNL     1      33.874 -13.987 -21.780  0.00  0.00    -0.015 C 
ATOM     16  C   UNL     1      33.776 -13.033 -22.787  0.00  0.00    +0.017 C 
ATOM     17  C   UNL     1      33.035 -13.913 -20.675  0.00  0.00    +0.017 C 
ATOM     18  C   UNL     1      32.828 -12.033 -22.640  0.00  0.00    +0.099 C 
ATOM     19  C   UNL     1      32.120 -12.874 -20.623  0.00  0.00    +0.099 C 
ENDBRANCH  13  15
ENDBRANCH   9  13
ENDBRANCH   1  10
BRANCH   4  20
ATOM     20  O   UNL     1      36.558 -20.996 -19.094  0.00  0.00    -0.468 OA
BRANCH  20  21
ATOM     21  C   UNL     1      35.601 -21.938 -18.627  0.00  0.00    +0.264 C 
BRANCH  21  23
ATOM     22  N   UNL     1      34.934 -22.942 -16.528  0.00  0.00    -0.406 NA
ATOM     23  C   UNL     1      35.904 -22.290 -17.208  0.00  0.00    +0.152 C 
ATOM     24  C   UNL     1      36.389 -22.966 -14.608  0.00  0.00    +0.026 C 
ATOM     25  C   UNL     1      35.170 -23.276 -15.245  0.00  0.00    +0.113 C 
ATOM     26  C   UNL     1      37.126 -21.943 -16.671  0.00  0.00    +0.031 C 
ATOM     27  C   UNL     1      37.367 -22.289 -15.349  0.00  0.00    +0.005 C 
ATOM     28  C   UNL     1      36.602 -23.330 -13.268  0.00  0.00    +0.002 C 
ATOM     29  C   UNL     1      34.198 -23.948 -14.508  0.00  0.00    +0.085 C 
ATOM     30  C   UNL     1      35.613 -24.001 -12.554  0.00  0.00    -0.004 C 
ATOM     31  C   UNL     1      34.410 -24.311 -13.176  0.00  0.00    -0.019 C 
ENDBRANCH  21  23
ENDBRANCH  20  21
ENDBRANCH   4  20
TORSDOF 6
ENDMDL
MODEL 4
REMARK VINA RESULT:     -12.1      3.883     12.086
REMARK  Name = 44141871
REMARK  6 active torsions:
REMARK  status: ('A' for Active; 'I' for Inactive)
REMARK    1  A    between atoms: C_1  and  C_10
REMARK    2  A    between atoms: C_4  and  O_20
REMARK    3  A    between atoms: C_9  and  C_13
REMARK    4  A    between atoms: C_13  and  C_15
REMARK    5  A    between atoms: O_20  and  C_21
REMARK    6  A    between atoms: C_21  and  C_23
REMARK                            x       y       z     vdW  Elec       q    Type
REMARK                         _______ _______ _______ _____ _____    ______ ____
ROOT
ATOM      1  C   UNL     1      33.944 -21.869 -18.402  0.00  0.00    +0.015 C 
ATOM      2  C   UNL     1      33.066 -21.171 -19.231  0.00  0.00    +0.004 C 
ATOM      3  C   UNL     1      35.316 -21.829 -18.649  0.00  0.00    +0.004 C 
ATOM      4  C   UNL     1      34.933 -20.391 -20.552  0.00  0.00    +0.139 C 
ATOM      5  C   UNL     1      33.561 -20.431 -20.305  0.00  0.00    +0.037 C 
ATOM      6  C   UNL     1      35.811 -21.089 -19.723  0.00  0.00    +0.037 C 
ENDROOT
BRANCH   1  10
ATOM      7  N   UNL     1      32.123 -23.002 -17.194  0.00  0.00    -0.236 N 
ATOM      8  N   UNL     1      31.839 -23.709 -16.086  0.00  0.00    -0.180 NA
ATOM      9  C   UNL     1      34.048 -23.132 -16.169  0.00  0.00    +0.018 C 
ATOM     10  C   UNL     1      33.432 -22.633 -17.291  0.00  0.00    +0.063 C 
ATOM     11  C   UNL     1      33.018 -23.785 -15.464  0.00  0.00    +0.115 C 
ATOM     12  H   UNL     1      31.448 -22.773 -17.873  0.00  0.00    +0.174 HD
BRANCH   9  13
ATOM     13  C   UNL     1      35.464 -23.017 -15.779  0.00  0.00    +0.056 C 
BRANCH  13  15
ATOM     14  N   UNL     1      36.612 -25.503 -12.439  0.00  0.00    -0.242 NA
ATOM     15  C   UNL     1      35.869 -23.894 -14.601  0.00  0.00    -0.015 C 
ATOM     16  C   UNL     1      35.814 -23.390 -13.306  0.00  0.00    +0.017 C 
ATOM     17  C   UNL     1      36.294 -25.200 -14.816  0.00  0.00    +0.017 C 
ATOM     18  C   UNL     1      36.193 -24.228 -12.269  0.00  0.00    +0.099 C 
ATOM     19  C   UNL     1      36.651 -25.956 -13.712  0.00  0.00    +0.099 C 
ENDBRANCH  13  15
ENDBRANCH   9  13
ENDBRANCH   1  10
BRANCH   4  20
ATOM     20  O   UNL     1      35.419 -19.662 -21.604  0.00  0.00    -0.468 OA
BRANCH  20  21
ATOM     21  C   UNL     1      35.915 -18.362 -21.310  0.00  0.00    +0.264 C 
BRANCH  21  23
ATOM     22  N   UNL     1      35.099 -16.127 -21.754  0.00  0.00    -0.406 NA
ATOM     23  C   UNL     1      35.298 -17.373 -22.242  0.00  0.00    +0.152 C 
ATOM     24  C   UNL     1      34.172 -15.512 -23.891  0.00  0.00    +0.026 C 
ATOM     25  C   UNL     1      34.544 -15.207 -22.566  0.00  0.00    +0.113 C 
ATOM     26  C   UNL     1      34.966 -17.765 -23.522  0.00  0.00    +0.031 C 
ATOM     27  C   UNL     1      34.394 -16.815 -24.356  0.00  0.00    +0.005 C 
ATOM     28  C   UNL     1      33.595 -14.526 -24.711  0.00  0.00    +0.002 C 
ATOM     29  C   UNL     1      34.322 -13.912 -22.104  0.00  0.00    +0.085 C 
ATOM     30  C   UNL     1      33.384 -13.240 -24.223  0.00  0.00    -0.004 C 
ATOM     31  C   UNL     1      33.749 -12.932 -22.919  0.00  0.00    -0.019 C 
ENDBRANCH  21  23
ENDBRANCH  20  21
ENDBRANCH   4  20
TORSDOF 6
ENDMDL
MODEL 5
REMARK VINA RESULT:     -11.9      4.488     12.176
REMARK  Name = 44141871
REMARK  6 active torsions:
REMARK  status: ('A' for Active; 'I' for Inactive)
REMARK    1  A    between atoms: C_1  and  C_10
REMARK    2  A    between atoms: C_4  and  O_20
REMARK    3  A    between atoms: C_9  and  C_13
REMARK    4  A    between atoms: C_13  and  C_15
REMARK    5  A    between atoms: O_20  and  C_21
REMARK    6  A    between atoms: C_21  and  C_23
REMARK                            x       y       z     vdW  Elec       q    Type
REMARK                         _______ _______ _______ _____ _____    ______ ____
ROOT
ATOM      1  C   UNL     1      34.596 -22.944 -16.731  0.00  0.00    +0.015 C 
ATOM      2  C   UNL     1      35.835 -22.388 -17.049  0.00  0.00    +0.004 C 
ATOM      3  C   UNL     1      33.510 -22.763 -17.587  0.00  0.00    +0.004 C 
ATOM      4  C   UNL     1      34.902 -21.470 -19.080  0.00  0.00    +0.139 C 
ATOM      5  C   UNL     1      35.988 -21.652 -18.224  0.00  0.00    +0.037 C 
ATOM      6  C   UNL     1      33.663 -22.026 -18.762  0.00  0.00    +0.037 C 
ENDROOT
BRANCH   1  10
ATOM      7  N   UNL     1      35.307 -24.691 -15.149  0.00  0.00    -0.236 N 
ATOM      8  N   UNL     1      34.991 -25.287 -13.986  0.00  0.00    -0.180 NA
ATOM      9  C   UNL     1      33.487 -23.654 -14.527  0.00  0.00    +0.018 C 
ATOM     10  C   UNL     1      34.438 -23.706 -15.516  0.00  0.00    +0.063 C 
ATOM     11  C   UNL     1      33.879 -24.650 -13.610  0.00  0.00    +0.115 C 
ATOM     12  H   UNL     1      36.094 -24.942 -15.685  0.00  0.00    +0.174 HD
BRANCH   9  13
ATOM     13  C   UNL     1      32.317 -22.764 -14.432  0.00  0.00    +0.056 C 
BRANCH  13  15
ATOM     14  N   UNL     1      28.560 -24.625 -15.466  0.00  0.00    -0.242 NA
ATOM     15  C   UNL     1      30.992 -23.421 -14.797  0.00  0.00    -0.015 C 
ATOM     16  C   UNL     1      30.266 -22.965 -15.892  0.00  0.00    +0.017 C 
ATOM     17  C   UNL     1      30.504 -24.477 -14.037  0.00  0.00    +0.017 C 
ATOM     18  C   UNL     1      29.067 -23.595 -16.182  0.00  0.00    +0.099 C 
ATOM     19  C   UNL     1      29.294 -25.040 -14.410  0.00  0.00    +0.099 C 
ENDBRANCH  13  15
ENDBRANCH   9  13
ENDBRANCH   1  10
BRANCH   4  20
ATOM     20  O   UNL     1      35.053 -20.750 -20.235  0.00  0.00    -0.468 OA
BRANCH  20  21
ATOM     21  C   UNL     1      36.135 -19.828 -20.279  0.00  0.00    +0.264 C 
BRANCH  21  23
ATOM     22  N   UNL     1      35.380 -17.531 -20.391  0.00  0.00    -0.406 NA
ATOM     23  C   UNL     1      35.738 -18.636 -21.084  0.00  0.00    +0.152 C 
ATOM     24  C   UNL     1      35.000 -16.418 -22.493  0.00  0.00    +0.026 C 
ATOM     25  C   UNL     1      35.015 -16.436 -21.084  0.00  0.00    +0.113 C 
ATOM     26  C   UNL     1      35.754 -18.714 -22.462  0.00  0.00    +0.031 C 
ATOM     27  C   UNL     1      35.378 -17.584 -23.173  0.00  0.00    +0.005 C 
ATOM     28  C   UNL     1      34.614 -15.256 -23.184  0.00  0.00    +0.002 C 
ATOM     29  C   UNL     1      34.640 -15.277 -20.409  0.00  0.00    +0.085 C 
ATOM     30  C   UNL     1      34.243 -14.111 -22.485  0.00  0.00    -0.004 C 
ATOM     31  C   UNL     1      34.256 -14.122 -21.095  0.00  0.00    -0.019 C 
ENDBRANCH  21  23
ENDBRANCH  20  21
ENDBRANCH   4  20
TORSDOF 6
ENDMDL
MODEL 6
REMARK VINA RESULT:     -11.8      1.690      2.884
REMARK  Name = 44141871
REMARK  6 active torsions:
REMARK  status: ('A' for Active; 'I' for Inactive)
REMARK    1  A    between atoms: C_1  and  C_10
REMARK    2  A    between atoms: C_4  and  O_20
REMARK    3  A    between atoms: C_9  and  C_13
REMARK    4  A    between atoms: C_13  and  C_15
REMARK    5  A    between atoms: O_20  and  C_21
REMARK    6  A    between atoms: C_21  and  C_23
REMARK                            x       y       z     vdW  Elec       q    Type
REMARK                         _______ _______ _______ _____ _____    ______ ____
ROOT
ATOM      1  C   UNL     1      33.948 -12.572 -23.738  0.00  0.00    +0.015 C 
ATOM      2  C   UNL     1      33.563 -13.337 -24.838  0.00  0.00    +0.004 C 
ATOM      3  C   UNL     1      34.307 -13.199 -22.544  0.00  0.00    +0.004 C 
ATOM      4  C   UNL     1      33.895 -15.356 -23.552  0.00  0.00    +0.139 C 
ATOM      5  C   UNL     1      33.537 -14.728 -24.746  0.00  0.00    +0.037 C 
ATOM      6  C   UNL     1      34.281 -14.590 -22.452  0.00  0.00    +0.037 C 
ENDROOT
BRANCH   1  10
ATOM      7  N   UNL     1      34.974 -10.458 -24.472  0.00  0.00    -0.236 N 
ATOM      8  N   UNL     1      34.824  -9.122 -24.454  0.00  0.00    -0.180 NA
ATOM      9  C   UNL     1      33.112 -10.173 -23.365  0.00  0.00    +0.018 C 
ATOM     10  C   UNL     1      33.975 -11.133 -23.834  0.00  0.00    +0.063 C 
ATOM     11  C   UNL     1      33.685  -8.954 -23.777  0.00  0.00    +0.115 C 
ATOM     12  H   UNL     1      35.734 -10.908 -24.907  0.00  0.00    +0.174 HD
BRANCH   9  13
ATOM     13  C   UNL     1      31.866 -10.362 -22.602  0.00  0.00    +0.056 C 
BRANCH  13  15
ATOM     14  N   UNL     1      31.969  -8.790 -18.581  0.00  0.00    -0.242 NA
ATOM     15  C   UNL     1      31.902  -9.808 -21.184  0.00  0.00    -0.015 C 
ATOM     16  C   UNL     1      32.266  -8.484 -20.962  0.00  0.00    +0.017 C 
ATOM     17  C   UNL     1      31.573 -10.623 -20.107  0.00  0.00    +0.017 C 
ATOM     18  C   UNL     1      32.284  -8.028 -19.654  0.00  0.00    +0.099 C 
ATOM     19  C   UNL     1      31.621 -10.071 -18.837  0.00  0.00    +0.099 C 
ENDBRANCH  13  15
ENDBRANCH   9  13
ENDBRANCH   1  10
BRANCH   4  20
ATOM     20  O   UNL     1      33.873 -16.722 -23.462  0.00  0.00    -0.468 OA
BRANCH  20  21
ATOM     21  C   UNL     1      35.094 -17.401 -23.724  0.00  0.00    +0.264 C 
BRANCH  21  23
ATOM     22  N   UNL     1      34.370 -18.977 -22.034  0.00  0.00    -0.406 NA
ATOM     23  C   UNL     1      35.411 -18.309 -22.582  0.00  0.00    +0.152 C 
ATOM     24  C   UNL     1      35.918 -19.985 -20.488  0.00  0.00    +0.026 C 
ATOM     25  C   UNL     1      34.617 -19.804 -21.002  0.00  0.00    +0.113 C 
ATOM     26  C   UNL     1      36.716 -18.420 -22.148  0.00  0.00    +0.031 C 
ATOM     27  C   UNL     1      36.968 -19.274 -21.084  0.00  0.00    +0.005 C 
ATOM     28  C   UNL     1      36.139 -20.858 -19.409  0.00  0.00    +0.002 C 
ATOM     29  C   UNL     1      33.574 -20.512 -20.409  0.00  0.00    +0.085 C 
ATOM     30  C   UNL     1      35.078 -21.553 -18.835  0.00  0.00    -0.004 C 
ATOM     31  C   UNL     1      33.794 -21.380 -19.336  0.00  0.00    -0.019 C 
ENDBRANCH  21  23
ENDBRANCH  20  21
ENDBRANCH   4  20
TORSDOF 6
ENDMDL
MODEL 7
REMARK VINA RESULT:     -11.8      1.977     10.528
REMARK  Name = 44141871
REMARK  6 active torsions:
REMARK  status: ('A' for Active; 'I' for Inactive)
REMARK    1  A    between atoms: C_1  and  C_10
REMARK    2  A    between atoms: C_4  and  O_20
REMARK    3  A    between atoms: C_9  and  C_13
REMARK    4  A    between atoms: C_13  and  C_15
REMARK    5  A    between atoms: O_20  and  C_21
REMARK    6  A    between atoms: C_21  and  C_23
REMARK                            x       y       z     vdW  Elec       q    Type
REMARK                         _______ _______ _______ _____ _____    ______ ____
ROOT
ATOM      1  C   UNL     1      35.198 -16.682 -22.444  0.00  0.00    +0.015 C 
ATOM      2  C   UNL     1      34.777 -16.706 -23.773  0.00  0.00    +0.004 C 
ATOM      3  C   UNL     1      34.856 -15.605 -21.624  0.00  0.00    +0.004 C 
ATOM      4  C   UNL     1      33.673 -14.579 -23.463  0.00  0.00    +0.139 C 
ATOM      5  C   UNL     1      34.014 -15.655 -24.283  0.00  0.00    +0.037 C 
ATOM      6  C   UNL     1      34.094 -14.555 -22.134  0.00  0.00    +0.037 C 
ENDROOT
BRANCH   1  10
ATOM      7  N   UNL     1      37.349 -17.749 -21.904  0.00  0.00    -0.236 N 
ATOM      8  N   UNL     1      37.903 -18.854 -21.374  0.00  0.00    -0.180 NA
ATOM      9  C   UNL     1      35.621 -18.969 -21.358  0.00  0.00    +0.018 C 
ATOM     10  C   UNL     1      35.985 -17.769 -21.917  0.00  0.00    +0.063 C 
ATOM     11  C   UNL     1      36.842 -19.596 -21.043  0.00  0.00    +0.115 C 
ATOM     12  H   UNL     1      37.879 -16.995 -22.250  0.00  0.00    +0.174 HD
BRANCH   9  13
ATOM     13  C   UNL     1      34.263 -19.495 -21.134  0.00  0.00    +0.056 C 
BRANCH  13  15
ATOM     14  N   UNL     1      33.984 -22.464 -18.009  0.00  0.00    -0.242 NA
ATOM     15  C   UNL     1      34.165 -20.542 -20.032  0.00  0.00    -0.015 C 
ATOM     16  C   UNL     1      32.921 -20.924 -19.542  0.00  0.00    +0.017 C 
ATOM     17  C   UNL     1      35.318 -21.120 -19.512  0.00  0.00    +0.017 C 
ATOM     18  C   UNL     1      32.886 -21.880 -18.539  0.00  0.00    +0.099 C 
ATOM     19  C   UNL     1      35.175 -22.067 -18.511  0.00  0.00    +0.099 C 
ENDBRANCH  13  15
ENDBRANCH   9  13
ENDBRANCH   1  10
BRANCH   4  20
ATOM     20  O   UNL     1      32.922 -13.548 -23.963  0.00  0.00    -0.468 OA
BRANCH  20  21
ATOM     21  C   UNL     1      33.457 -12.846 -25.077  0.00  0.00    +0.264 C 
BRANCH  21  23
ATOM     22  N   UNL     1      33.121 -10.923 -23.647  0.00  0.00    -0.406 NA
ATOM     23  C   UNL     1      33.837 -11.465 -24.658  0.00  0.00    +0.152 C 
ATOM     24  C   UNL     1      34.477  -8.941 -23.840  0.00  0.00    +0.026 C 
ATOM     25  C   UNL     1      33.434  -9.678 -23.241  0.00  0.00    +0.113 C 
ATOM     26  C   UNL     1      34.872 -10.822 -25.305  0.00  0.00    +0.031 C 
ATOM     27  C   UNL     1      35.193  -9.540 -24.885  0.00  0.00    +0.005 C 
ATOM     28  C   UNL     1      34.777  -7.643 -23.390  0.00  0.00    +0.002 C 
ATOM     29  C   UNL     1      32.723  -9.082 -22.203  0.00  0.00    +0.085 C 
ATOM     30  C   UNL     1      34.049  -7.072 -22.350  0.00  0.00    -0.004 C 
ATOM     31  C   UNL     1      33.021  -7.793 -21.755  0.00  0.00    -0.019 C 
ENDBRANCH  21  23
ENDBRANCH  20  21
ENDBRANCH   4  20
TORSDOF 6
ENDMDL
MODEL 8
REMARK VINA RESULT:     -11.7      1.878     10.858
REMARK  Name = 44141871
REMARK  6 active torsions:
REMARK  status: ('A' for Active; 'I' for Inactive)
REMARK    1  A    between atoms: C_1  and  C_10
REMARK    2  A    between atoms: C_4  and  O_20
REMARK    3  A    between atoms: C_9  and  C_13
REMARK    4  A    between atoms: C_13  and  C_15
REMARK    5  A    between atoms: O_20  and  C_21
REMARK    6  A    between atoms: C_21  and  C_23
REMARK                            x       y       z     vdW  Elec       q    Type
REMARK                         _______ _______ _______ _____ _____    ______ ____
ROOT
ATOM      1  C   UNL     1      34.309 -16.205 -23.456  0.00  0.00    +0.015 C 
ATOM      2  C   UNL     1      33.771 -15.446 -24.496  0.00  0.00    +0.004 C 
ATOM      3  C   UNL     1      34.682 -15.586 -22.263  0.00  0.00    +0.004 C 
ATOM      4  C   UNL     1      33.980 -13.451 -23.149  0.00  0.00    +0.139 C 
ATOM      5  C   UNL     1      33.606 -14.070 -24.342  0.00  0.00    +0.037 C 
ATOM      6  C   UNL     1      34.517 -14.210 -22.109  0.00  0.00    +0.037 C 
ENDROOT
BRANCH   1  10
ATOM      7  N   UNL     1      34.090 -18.293 -24.740  0.00  0.00    -0.236 N 
ATOM      8  N   UNL     1      34.330 -19.616 -24.699  0.00  0.00    -0.180 NA
ATOM      9  C   UNL     1      35.009 -18.580 -22.779  0.00  0.00    +0.018 C 
ATOM     10  C   UNL     1      34.479 -17.628 -23.615  0.00  0.00    +0.063 C 
ATOM     11  C   UNL     1      34.892 -19.785 -23.499  0.00  0.00    +0.115 C 
ATOM     12  H   UNL     1      33.673 -17.846 -25.512  0.00  0.00    +0.174 HD
BRANCH   9  13
ATOM     13  C   UNL     1      35.576 -18.397 -21.432  0.00  0.00    +0.056 C 
BRANCH  13  15
ATOM     14  N   UNL     1      35.192 -21.831 -18.842  0.00  0.00    -0.242 NA
ATOM     15  C   UNL     1      35.441 -19.608 -20.519  0.00  0.00    -0.015 C 
ATOM     16  C   UNL     1      34.185 -20.144 -20.252  0.00  0.00    +0.017 C 
ATOM     17  C   UNL     1      36.571 -20.183 -19.949  0.00  0.00    +0.017 C 
ATOM     18  C   UNL     1      34.116 -21.245 -19.414  0.00  0.00    +0.099 C 
ATOM     19  C   UNL     1      36.395 -21.283 -19.125  0.00  0.00    +0.099 C 
ENDBRANCH  13  15
ENDBRANCH   9  13
ENDBRANCH   1  10
BRANCH   4  20
ATOM     20  O   UNL     1      33.815 -12.100 -22.997  0.00  0.00    -0.468 OA
BRANCH  20  21
ATOM     21  C   UNL     1      33.906 -11.307 -24.173  0.00  0.00    +0.264 C 
BRANCH  21  23
ATOM     22  N   UNL     1      32.581  -9.402 -23.482  0.00  0.00    -0.406 NA
ATOM     23  C   UNL     1      33.811  -9.863 -23.806  0.00  0.00    +0.152 C 
ATOM     24  C   UNL     1      33.563  -7.231 -23.125  0.00  0.00    +0.026 C 
ATOM     25  C   UNL     1      32.456  -8.104 -23.146  0.00  0.00    +0.113 C 
ATOM     26  C   UNL     1      34.951  -9.086 -23.815  0.00  0.00    +0.031 C 
ATOM     27  C   UNL     1      34.819  -7.749 -23.468  0.00  0.00    +0.005 C 
ATOM     28  C   UNL     1      33.396  -5.882 -22.768  0.00  0.00    +0.002 C 
ATOM     29  C   UNL     1      31.209  -7.588 -22.805  0.00  0.00    +0.085 C 
ATOM     30  C   UNL     1      32.137  -5.393 -22.432  0.00  0.00    -0.004 C 
ATOM     31  C   UNL     1      31.042  -6.247 -22.450  0.00  0.00    -0.019 C 
ENDBRANCH  21  23
ENDBRANCH  20  21
ENDBRANCH   4  20
TORSDOF 6
ENDMDL
MODEL 9
REMARK VINA RESULT:     -11.7      3.174      6.498
REMARK  Name = 44141871
REMARK  6 active torsions:
REMARK  status: ('A' for Active; 'I' for Inactive)
REMARK    1  A    between atoms: C_1  and  C_10
REMARK    2  A    between atoms: C_4  and  O_20
REMARK    3  A    between atoms: C_9  and  C_13
REMARK    4  A    between atoms: C_13  and  C_15
REMARK    5  A    between atoms: O_20  and  C_21
REMARK    6  A    between atoms: C_21  and  C_23
REMARK                            x       y       z     vdW  Elec       q    Type
REMARK                         _______ _______ _______ _____ _____    ______ ____
ROOT
ATOM      1  C   UNL     1      35.024 -18.695 -21.922  0.00  0.00    +0.015 C 
ATOM      2  C   UNL     1      36.266 -18.790 -21.294  0.00  0.00    +0.004 C 
ATOM      3  C   UNL     1      33.984 -19.543 -21.541  0.00  0.00    +0.004 C 
ATOM      4  C   UNL     1      35.427 -20.581 -19.905  0.00  0.00    +0.139 C 
ATOM      5  C   UNL     1      36.467 -19.733 -20.286  0.00  0.00    +0.037 C 
ATOM      6  C   UNL     1      34.185 -20.485 -20.532  0.00  0.00    +0.037 C 
ENDROOT
BRANCH   1  10
ATOM      7  N   UNL     1      34.592 -18.069 -24.263  0.00  0.00    -0.236 N 
ATOM      8  N   UNL     1      34.423 -17.020 -25.086  0.00  0.00    -0.180 NA
ATOM      9  C   UNL     1      34.792 -16.347 -22.934  0.00  0.00    +0.018 C 
ATOM     10  C   UNL     1      34.816 -17.720 -22.964  0.00  0.00    +0.063 C 
ATOM     11  C   UNL     1      34.546 -15.970 -24.269  0.00  0.00    +0.115 C 
ATOM     12  H   UNL     1      34.558 -19.004 -24.570  0.00  0.00    +0.174 HD
BRANCH   9  13
ATOM     13  C   UNL     1      34.979 -15.457 -21.775  0.00  0.00    +0.056 C 
BRANCH  13  15
ATOM     14  N   UNL     1      32.188 -12.168 -21.570  0.00  0.00    -0.242 NA
ATOM     15  C   UNL     1      33.995 -14.297 -21.703  0.00  0.00    -0.015 C 
ATOM     16  C   UNL     1      33.166 -14.154 -20.596  0.00  0.00    +0.017 C 
ATOM     17  C   UNL     1      33.921 -13.378 -22.743  0.00  0.00    +0.017 C 
ATOM     18  C   UNL     1      32.288 -13.082 -20.578  0.00  0.00    +0.099 C 
ATOM     19  C   UNL     1      33.009 -12.341 -22.629  0.00  0.00    +0.099 C 
ENDBRANCH  13  15
ENDBRANCH   9  13
ENDBRANCH   1  10
BRANCH   4  20
ATOM     20  O   UNL     1      35.624 -21.504 -18.913  0.00  0.00    -0.468 OA
BRANCH  20  21
ATOM     21  C   UNL     1      34.552 -22.399 -18.648  0.00  0.00    +0.264 C 
BRANCH  21  23
ATOM     22  N   UNL     1      35.768 -22.698 -16.577  0.00  0.00    -0.406 NA
ATOM     23  C   UNL     1      34.575 -22.789 -17.208  0.00  0.00    +0.152 C 
ATOM     24  C   UNL     1      34.692 -23.488 -14.572  0.00  0.00    +0.026 C 
ATOM     25  C   UNL     1      35.828 -23.042 -15.277  0.00  0.00    +0.113 C 
ATOM     26  C   UNL     1      33.410 -23.214 -16.603  0.00  0.00    +0.031 C 
ATOM     27  C   UNL     1      33.475 -23.568 -15.263  0.00  0.00    +0.005 C 
ATOM     28  C   UNL     1      34.791 -23.838 -13.214  0.00  0.00    +0.002 C 
ATOM     29  C   UNL     1      37.037 -22.963 -14.589  0.00  0.00    +0.085 C 
ATOM     30  C   UNL     1      36.012 -23.750 -12.551  0.00  0.00    -0.004 C 
ATOM     31  C   UNL     1      37.136 -23.311 -13.240  0.00  0.00    -0.019 C 
ENDBRANCH  21  23
ENDBRANCH  20  21
ENDBRANCH   4  20
TORSDOF 6
ENDMDL
