MODEL 1
REMARK VINA RESULT:     -13.2      0.000      0.000
REMARK  Name = 119057475
REMARK  5 active torsions:
REMARK  status: ('A' for Active; 'I' for Inactive)
REMARK    1  A    between atoms: N_1  and  C_22
REMARK    2  A    between atoms: C_2  and  N_8
REMARK    3  A    between atoms: N_8  and  C_11
REMARK    4  A    between atoms: C_11  and  C_16
REMARK    5  A    between atoms: C_22  and  C_26
REMARK                            x       y       z     vdW  Elec       q    Type
REMARK                         _______ _______ _______ _____ _____    ______ ____
ROOT
ATOM      1  N   UNL     1      34.943 -21.928 -18.651  0.00  0.00    +0.387 N 
ATOM      2  C   UNL     1      34.628 -19.927 -20.762  0.00  0.00    -0.066 C 
ATOM      3  C   UNL     1      36.075 -21.078 -19.045  0.00  0.00    -0.079 C 
ATOM      4  C   UNL     1      33.664 -21.226 -18.826  0.00  0.00    -0.079 C 
ATOM      5  C   UNL     1      35.956 -20.644 -20.509  0.00  0.00    -0.044 C 
ATOM      6  C   UNL     1      33.463 -20.798 -20.282  0.00  0.00    -0.044 C 
ATOM      7  H   UNL     1      34.939 -22.746 -19.260  0.00  0.00    -0.080 HD
ENDROOT
BRANCH   2   8
ATOM      8  N   UNL     1      34.490 -19.605 -22.181  0.00  0.00    +0.389 N 
ATOM      9  H   UNL     1      33.580 -19.169 -22.336  0.00  0.00    -0.084 HD
ATOM     10  H   UNL     1      34.567 -20.466 -22.722  0.00  0.00    -0.084 HD
BRANCH   8  11
ATOM     11  C   UNL     1      35.537 -18.690 -22.608  0.00  0.00    -0.032 C 
BRANCH  11  16
ATOM     12  O   UNL     1      34.363 -13.982 -22.369  0.00  0.00    -0.467 OA
ATOM     13  O   UNL     1      33.364 -14.199 -25.059  0.00  0.00    -0.453 OA
ATOM     14  N   UNL     1      34.531 -17.514 -24.490  0.00  0.00    -0.151 NA
ATOM     15  N   UNL     1      34.005 -16.408 -25.083  0.00  0.00    -0.107 NA
ATOM     16  C   UNL     1      34.971 -17.435 -23.217  0.00  0.00    +0.062 C 
ATOM     17  C   UNL     1      34.924 -16.269 -22.479  0.00  0.00    +0.056 C 
ATOM     18  C   UNL     1      34.399 -15.142 -23.090  0.00  0.00    +0.194 C 
ATOM     19  C   UNL     1      33.932 -15.253 -24.388  0.00  0.00    +0.278 C 
ATOM     20  C   UNL     1      34.100 -12.846 -23.199  0.00  0.00    +0.253 C 
ATOM     21  C   UNL     1      32.975 -13.151 -24.168  0.00  0.00    +0.254 C 
ENDBRANCH  11  16
ENDBRANCH   8  11
ENDBRANCH   2   8
BRANCH   1  22
ATOM     22  C   UNL     1      35.097 -22.375 -17.267  0.00  0.00    -0.071 C 
BRANCH  22  26
ATOM     23  F   UNL     1      36.249 -24.387 -14.941  0.00  0.00    -0.204 F 
ATOM     24  O   UNL     1      29.747 -22.565 -16.701  0.00  0.00    -0.270 OA
ATOM     25  N   UNL     1      31.877 -23.179 -16.040  0.00  0.00    -0.255 N 
ATOM     26  C   UNL     1      34.111 -23.488 -16.939  0.00  0.00    +0.025 C 
ATOM     27  C   UNL     1      32.646 -23.091 -17.289  0.00  0.00    +0.101 C 
ATOM     28  C   UNL     1      34.021 -23.772 -15.465  0.00  0.00    +0.018 C 
ATOM     29  C   UNL     1      32.725 -23.583 -15.018  0.00  0.00    +0.052 C 
ATOM     30  C   UNL     1      32.308 -23.762 -13.715  0.00  0.00    +0.014 C 
ATOM     31  C   UNL     1      34.982 -24.179 -14.560  0.00  0.00    +0.137 C 
ATOM     32  C   UNL     1      30.540 -22.923 -15.834  0.00  0.00    +0.253 C 
ATOM     33  C   UNL     1      33.271 -24.169 -12.797  0.00  0.00    +0.004 C 
ATOM     34  C   UNL     1      34.601 -24.376 -13.221  0.00  0.00    +0.029 C 
ATOM     35  C   UNL     1      30.898 -23.508 -13.434  0.00  0.00    +0.006 C 
ATOM     36  C   UNL     1      30.071 -23.117 -14.418  0.00  0.00    +0.058 C 
ENDBRANCH  22  26
ENDBRANCH   1  22
TORSDOF 5
ENDMDL
MODEL 2
REMARK VINA RESULT:     -12.9      2.098      2.878
REMARK  Name = 119057475
REMARK  5 active torsions:
REMARK  status: ('A' for Active; 'I' for Inactive)
REMARK    1  A    between atoms: N_1  and  C_22
REMARK    2  A    between atoms: C_2  and  N_8
REMARK    3  A    between atoms: N_8  and  C_11
REMARK    4  A    between atoms: C_11  and  C_16
REMARK    5  A    between atoms: C_22  and  C_26
REMARK                            x       y       z     vdW  Elec       q    Type
REMARK                         _______ _______ _______ _____ _____    ______ ____
ROOT
ATOM      1  N   UNL     1      35.015 -22.114 -19.228  0.00  0.00    +0.387 N 
ATOM      2  C   UNL     1      35.739 -19.490 -20.301  0.00  0.00    -0.066 C 
ATOM      3  C   UNL     1      36.280 -21.475 -18.841  0.00  0.00    -0.079 C 
ATOM      4  C   UNL     1      33.977 -21.112 -19.508  0.00  0.00    -0.079 C 
ATOM      5  C   UNL     1      36.789 -20.544 -19.945  0.00  0.00    -0.044 C 
ATOM      6  C   UNL     1      34.408 -20.169 -20.635  0.00  0.00    -0.044 C 
ATOM      7  H   UNL     1      35.180 -22.643 -20.084  0.00  0.00    -0.080 HD
ENDROOT
BRANCH   2   8
ATOM      8  N   UNL     1      36.203 -18.671 -21.419  0.00  0.00    +0.389 N 
ATOM      9  H   UNL     1      37.184 -18.885 -21.605  0.00  0.00    -0.084 HD
ATOM     10  H   UNL     1      36.095 -17.688 -21.171  0.00  0.00    -0.084 HD
BRANCH   8  11
ATOM     11  C   UNL     1      35.421 -18.939 -22.617  0.00  0.00    -0.032 C 
BRANCH  11  16
ATOM     12  O   UNL     1      34.461 -14.181 -22.444  0.00  0.00    -0.467 OA
ATOM     13  O   UNL     1      33.368 -14.408 -25.096  0.00  0.00    -0.453 OA
ATOM     14  N   UNL     1      34.407 -17.759 -24.491  0.00  0.00    -0.151 NA
ATOM     15  N   UNL     1      33.911 -16.643 -25.091  0.00  0.00    -0.107 NA
ATOM     16  C   UNL     1      34.891 -17.673 -23.235  0.00  0.00    +0.062 C 
ATOM     17  C   UNL     1      34.918 -16.491 -22.521  0.00  0.00    +0.056 C 
ATOM     18  C   UNL     1      34.424 -15.355 -23.139  0.00  0.00    +0.194 C 
ATOM     19  C   UNL     1      33.911 -15.472 -24.419  0.00  0.00    +0.278 C 
ATOM     20  C   UNL     1      34.221 -13.051 -23.289  0.00  0.00    +0.253 C 
ATOM     21  C   UNL     1      33.053 -13.326 -24.216  0.00  0.00    +0.254 C 
ENDBRANCH  11  16
ENDBRANCH   8  11
ENDBRANCH   2   8
BRANCH   1  22
ATOM     22  C   UNL     1      34.567 -23.037 -18.186  0.00  0.00    -0.071 C 
BRANCH  22  26
ATOM     23  F   UNL     1      31.583 -22.715 -16.855  0.00  0.00    -0.204 F 
ATOM     24  O   UNL     1      37.891 -23.499 -13.977  0.00  0.00    -0.270 OA
ATOM     25  N   UNL     1      35.767 -23.278 -14.867  0.00  0.00    -0.255 N 
ATOM     26  C   UNL     1      34.625 -22.383 -16.813  0.00  0.00    +0.025 C 
ATOM     27  C   UNL     1      36.014 -22.576 -16.133  0.00  0.00    +0.101 C 
ATOM     28  C   UNL     1      33.693 -23.022 -15.821  0.00  0.00    +0.018 C 
ATOM     29  C   UNL     1      34.404 -23.506 -14.738  0.00  0.00    +0.052 C 
ATOM     30  C   UNL     1      33.844 -24.147 -13.651  0.00  0.00    +0.014 C 
ATOM     31  C   UNL     1      32.320 -23.173 -15.836  0.00  0.00    +0.137 C 
ATOM     32  C   UNL     1      36.677 -23.676 -13.913  0.00  0.00    +0.253 C 
ATOM     33  C   UNL     1      32.461 -24.306 -13.660  0.00  0.00    +0.004 C 
ATOM     34  C   UNL     1      31.706 -23.820 -14.749  0.00  0.00    +0.029 C 
ATOM     35  C   UNL     1      34.759 -24.592 -12.605  0.00  0.00    +0.006 C 
ATOM     36  C   UNL     1      36.080 -24.375 -12.723  0.00  0.00    +0.058 C 
ENDBRANCH  22  26
ENDBRANCH   1  22
TORSDOF 5
ENDMDL
MODEL 3
REMARK VINA RESULT:     -12.7      0.928      1.249
REMARK  Name = 119057475
REMARK  5 active torsions:
REMARK  status: ('A' for Active; 'I' for Inactive)
REMARK    1  A    between atoms: N_1  and  C_22
REMARK    2  A    between atoms: C_2  and  N_8
REMARK    3  A    between atoms: N_8  and  C_11
REMARK    4  A    between atoms: C_11  and  C_16
REMARK    5  A    between atoms: C_22  and  C_26
REMARK                            x       y       z     vdW  Elec       q    Type
REMARK                         _______ _______ _______ _____ _____    ______ ____
ROOT
ATOM      1  N   UNL     1      34.859 -21.804 -18.825  0.00  0.00    +0.387 N 
ATOM      2  C   UNL     1      34.602 -19.805 -20.946  0.00  0.00    -0.066 C 
ATOM      3  C   UNL     1      36.022 -21.009 -19.243  0.00  0.00    -0.079 C 
ATOM      4  C   UNL     1      33.610 -21.046 -18.986  0.00  0.00    -0.079 C 
ATOM      5  C   UNL     1      35.899 -20.580 -20.708  0.00  0.00    -0.044 C 
ATOM      6  C   UNL     1      33.406 -20.618 -20.441  0.00  0.00    -0.044 C 
ATOM      7  H   UNL     1      34.807 -22.625 -19.428  0.00  0.00    -0.080 HD
ENDROOT
BRANCH   2   8
ATOM      8  N   UNL     1      34.456 -19.486 -22.365  0.00  0.00    +0.389 N 
ATOM      9  H   UNL     1      33.557 -19.025 -22.512  0.00  0.00    -0.084 HD
ATOM     10  H   UNL     1      34.502 -20.352 -22.902  0.00  0.00    -0.084 HD
BRANCH   8  11
ATOM     11  C   UNL     1      35.524 -18.603 -22.809  0.00  0.00    -0.032 C 
BRANCH  11  16
ATOM     12  O   UNL     1      33.742 -14.899 -25.398  0.00  0.00    -0.467 OA
ATOM     13  O   UNL     1      33.897 -13.293 -23.016  0.00  0.00    -0.453 OA
ATOM     14  N   UNL     1      35.094 -16.422 -21.813  0.00  0.00    -0.151 NA
ATOM     15  N   UNL     1      34.689 -15.124 -21.872  0.00  0.00    -0.107 NA
ATOM     16  C   UNL     1      35.059 -17.177 -22.931  0.00  0.00    +0.062 C 
ATOM     17  C   UNL     1      34.616 -16.695 -24.146  0.00  0.00    +0.056 C 
ATOM     18  C   UNL     1      34.194 -15.378 -24.201  0.00  0.00    +0.194 C 
ATOM     19  C   UNL     1      34.261 -14.616 -23.047  0.00  0.00    +0.278 C 
ATOM     20  C   UNL     1      33.054 -13.653 -25.250  0.00  0.00    +0.253 C 
ATOM     21  C   UNL     1      33.828 -12.731 -24.328  0.00  0.00    +0.254 C 
ENDBRANCH  11  16
ENDBRANCH   8  11
ENDBRANCH   2   8
BRANCH   1  22
ATOM     22  C   UNL     1      35.014 -22.248 -17.440  0.00  0.00    -0.071 C 
BRANCH  22  26
ATOM     23  F   UNL     1      36.282 -24.359 -15.268  0.00  0.00    -0.204 F 
ATOM     24  O   UNL     1      29.697 -22.494 -16.631  0.00  0.00    -0.270 OA
ATOM     25  N   UNL     1      31.859 -23.126 -16.101  0.00  0.00    -0.255 N 
ATOM     26  C   UNL     1      34.048 -23.381 -17.118  0.00  0.00    +0.025 C 
ATOM     27  C   UNL     1      32.567 -22.976 -17.379  0.00  0.00    +0.101 C 
ATOM     28  C   UNL     1      34.030 -23.733 -15.656  0.00  0.00    +0.018 C 
ATOM     29  C   UNL     1      32.756 -23.572 -15.141  0.00  0.00    +0.052 C 
ATOM     30  C   UNL     1      32.401 -23.814 -13.829  0.00  0.00    +0.014 C 
ATOM     31  C   UNL     1      35.035 -24.176 -14.818  0.00  0.00    +0.137 C 
ATOM     32  C   UNL     1      30.532 -22.888 -15.820  0.00  0.00    +0.253 C 
ATOM     33  C   UNL     1      33.409 -24.257 -12.977  0.00  0.00    +0.004 C 
ATOM     34  C   UNL     1      34.718 -24.436 -13.473  0.00  0.00    +0.029 C 
ATOM     35  C   UNL     1      31.006 -23.581 -13.470  0.00  0.00    +0.006 C 
ATOM     36  C   UNL     1      30.131 -23.149 -14.394  0.00  0.00    +0.058 C 
ENDBRANCH  22  26
ENDBRANCH   1  22
TORSDOF 5
ENDMDL
MODEL 4
REMARK VINA RESULT:     -12.6      2.425      3.546
REMARK  Name = 119057475
REMARK  5 active torsions:
REMARK  status: ('A' for Active; 'I' for Inactive)
REMARK    1  A    between atoms: N_1  and  C_22
REMARK    2  A    between atoms: C_2  and  N_8
REMARK    3  A    between atoms: N_8  and  C_11
REMARK    4  A    between atoms: C_11  and  C_16
REMARK    5  A    between atoms: C_22  and  C_26
REMARK                            x       y       z     vdW  Elec       q    Type
REMARK                         _______ _______ _______ _____ _____    ______ ____
ROOT
ATOM      1  N   UNL     1      35.423 -21.396 -18.373  0.00  0.00    +0.387 N 
ATOM      2  C   UNL     1      35.867 -19.928 -20.865  0.00  0.00    -0.066 C 
ATOM      3  C   UNL     1      34.394 -21.383 -19.422  0.00  0.00    -0.079 C 
ATOM      4  C   UNL     1      36.771 -21.298 -18.949  0.00  0.00    -0.079 C 
ATOM      5  C   UNL     1      34.474 -20.102 -20.257  0.00  0.00    -0.044 C 
ATOM      6  C   UNL     1      36.931 -20.014 -19.767  0.00  0.00    -0.044 C 
ATOM      7  H   UNL     1      35.275 -20.580 -17.779  0.00  0.00    -0.080 HD
ENDROOT
BRANCH   2   8
ATOM      8  N   UNL     1      35.953 -18.656 -21.579  0.00  0.00    +0.389 N 
ATOM      9  H   UNL     1      36.931 -18.367 -21.627  0.00  0.00    -0.084 HD
ATOM     10  H   UNL     1      35.401 -17.961 -21.077  0.00  0.00    -0.084 HD
BRANCH   8  11
ATOM     11  C   UNL     1      35.427 -18.784 -22.929  0.00  0.00    -0.032 C 
BRANCH  11  16
ATOM     12  O   UNL     1      34.468 -14.052 -22.402  0.00  0.00    -0.467 OA
ATOM     13  O   UNL     1      33.245 -14.113 -25.006  0.00  0.00    -0.453 OA
ATOM     14  N   UNL     1      34.319 -17.491 -24.671  0.00  0.00    -0.151 NA
ATOM     15  N   UNL     1      33.792 -16.341 -25.173  0.00  0.00    -0.107 NA
ATOM     16  C   UNL     1      34.865 -17.484 -23.437  0.00  0.00    +0.062 C 
ATOM     17  C   UNL     1      34.925 -16.351 -22.651  0.00  0.00    +0.056 C 
ATOM     18  C   UNL     1      34.399 -15.179 -23.169  0.00  0.00    +0.194 C 
ATOM     19  C   UNL     1      33.823 -15.216 -24.427  0.00  0.00    +0.278 C 
ATOM     20  C   UNL     1      34.185 -12.871 -23.160  0.00  0.00    +0.253 C 
ATOM     21  C   UNL     1      32.973 -13.092 -24.043  0.00  0.00    +0.254 C 
ENDBRANCH  11  16
ENDBRANCH   8  11
ENDBRANCH   2   8
BRANCH   1  22
ATOM     22  C   UNL     1      35.302 -22.601 -17.553  0.00  0.00    -0.071 C 
BRANCH  22  26
ATOM     23  F   UNL     1      32.807 -22.506 -15.420  0.00  0.00    -0.204 F 
ATOM     24  O   UNL     1      39.496 -24.342 -14.661  0.00  0.00    -0.270 OA
ATOM     25  N   UNL     1      37.258 -23.786 -14.854  0.00  0.00    -0.255 N 
ATOM     26  C   UNL     1      35.780 -22.345 -16.130  0.00  0.00    +0.025 C 
ATOM     27  C   UNL     1      37.261 -22.781 -15.925  0.00  0.00    +0.101 C 
ATOM     28  C   UNL     1      35.057 -23.182 -15.112  0.00  0.00    +0.018 C 
ATOM     29  C   UNL     1      35.955 -23.975 -14.418  0.00  0.00    +0.052 C 
ATOM     30  C   UNL     1      35.612 -24.857 -13.414  0.00  0.00    +0.014 C 
ATOM     31  C   UNL     1      33.716 -23.257 -14.787  0.00  0.00    +0.137 C 
ATOM     32  C   UNL     1      38.325 -24.471 -14.314  0.00  0.00    +0.253 C 
ATOM     33  C   UNL     1      34.263 -24.941 -13.084  0.00  0.00    +0.004 C 
ATOM     34  C   UNL     1      33.322 -24.143 -13.769  0.00  0.00    +0.029 C 
ATOM     35  C   UNL     1      36.701 -25.612 -12.800  0.00  0.00    +0.006 C 
ATOM     36  C   UNL     1      37.966 -25.435 -13.217  0.00  0.00    +0.058 C 
ENDBRANCH  22  26
ENDBRANCH   1  22
TORSDOF 5
ENDMDL
MODEL 5
REMARK VINA RESULT:     -12.6      2.341      3.146
REMARK  Name = 119057475
REMARK  5 active torsions:
REMARK  status: ('A' for Active; 'I' for Inactive)
REMARK    1  A    between atoms: N_1  and  C_22
REMARK    2  A    between atoms: C_2  and  N_8
REMARK    3  A    between atoms: N_8  and  C_11
REMARK    4  A    between atoms: C_11  and  C_16
REMARK    5  A    between atoms: C_22  and  C_26
REMARK                            x       y       z     vdW  Elec       q    Type
REMARK                         _______ _______ _______ _____ _____    ______ ____
ROOT
ATOM      1  N   UNL     1      34.116 -22.576 -18.950  0.00  0.00    +0.387 N 
ATOM      2  C   UNL     1      34.681 -20.007 -20.233  0.00  0.00    -0.066 C 
ATOM      3  C   UNL     1      35.469 -22.004 -18.908  0.00  0.00    -0.079 C 
ATOM      4  C   UNL     1      33.093 -21.520 -18.985  0.00  0.00    -0.079 C 
ATOM      5  C   UNL     1      35.731 -21.114 -20.126  0.00  0.00    -0.044 C 
ATOM      6  C   UNL     1      33.275 -20.614 -20.205  0.00  0.00    -0.044 C 
ATOM      7  H   UNL     1      34.033 -23.121 -19.808  0.00  0.00    -0.080 HD
ENDROOT
BRANCH   2   8
ATOM      8  N   UNL     1      34.890 -19.226 -21.450  0.00  0.00    +0.389 N 
ATOM      9  H   UNL     1      33.998 -18.830 -21.750  0.00  0.00    -0.084 HD
ATOM     10  H   UNL     1      35.266 -19.840 -22.172  0.00  0.00    -0.084 HD
BRANCH   8  11
ATOM     11  C   UNL     1      35.837 -18.147 -21.216  0.00  0.00    -0.032 C 
BRANCH  11  16
ATOM     12  O   UNL     1      34.117 -14.881 -24.374  0.00  0.00    -0.467 OA
ATOM     13  O   UNL     1      33.688 -13.106 -22.150  0.00  0.00    -0.453 OA
ATOM     14  N   UNL     1      35.005 -15.972 -20.499  0.00  0.00    -0.151 NA
ATOM     15  N   UNL     1      34.474 -14.742 -20.737  0.00  0.00    -0.107 NA
ATOM     16  C   UNL     1      35.243 -16.801 -21.536  0.00  0.00    +0.062 C 
ATOM     17  C   UNL     1      34.961 -16.463 -22.845  0.00  0.00    +0.056 C 
ATOM     18  C   UNL     1      34.410 -15.216 -23.083  0.00  0.00    +0.194 C 
ATOM     19  C   UNL     1      34.197 -14.373 -22.006  0.00  0.00    +0.278 C 
ATOM     20  C   UNL     1      33.279 -13.723 -24.449  0.00  0.00    +0.253 C 
ATOM     21  C   UNL     1      33.779 -12.650 -23.502  0.00  0.00    +0.254 C 
ENDBRANCH  11  16
ENDBRANCH   8  11
ENDBRANCH   2   8
BRANCH   1  22
ATOM     22  C   UNL     1      33.898 -23.462 -17.808  0.00  0.00    -0.071 C 
BRANCH  22  26
ATOM     23  F   UNL     1      30.991 -23.322 -16.286  0.00  0.00    -0.204 F 
ATOM     24  O   UNL     1      37.525 -23.252 -13.835  0.00  0.00    -0.270 OA
ATOM     25  N   UNL     1      35.334 -23.312 -14.578  0.00  0.00    -0.255 N 
ATOM     26  C   UNL     1      33.980 -22.694 -16.496  0.00  0.00    +0.025 C 
ATOM     27  C   UNL     1      35.423 -22.695 -15.909  0.00  0.00    +0.101 C 
ATOM     28  C   UNL     1      33.186 -23.338 -15.392  0.00  0.00    +0.018 C 
ATOM     29  C   UNL     1      34.014 -23.660 -14.331  0.00  0.00    +0.052 C 
ATOM     30  C   UNL     1      33.596 -24.261 -13.161  0.00  0.00    +0.014 C 
ATOM     31  C   UNL     1      31.838 -23.622 -15.293  0.00  0.00    +0.137 C 
ATOM     32  C   UNL     1      36.342 -23.540 -13.668  0.00  0.00    +0.253 C 
ATOM     33  C   UNL     1      32.239 -24.553 -13.055  0.00  0.00    +0.004 C 
ATOM     34  C   UNL     1      31.368 -24.233 -14.118  0.00  0.00    +0.029 C 
ATOM     35  C   UNL     1      34.620 -24.527 -12.155  0.00  0.00    +0.006 C 
ATOM     36  C   UNL     1      35.901 -24.193 -12.387  0.00  0.00    +0.058 C 
ENDBRANCH  22  26
ENDBRANCH   1  22
TORSDOF 5
ENDMDL
MODEL 6
REMARK VINA RESULT:     -12.5      2.419      3.331
REMARK  Name = 119057475
REMARK  5 active torsions:
REMARK  status: ('A' for Active; 'I' for Inactive)
REMARK    1  A    between atoms: N_1  and  C_22
REMARK    2  A    between atoms: C_2  and  N_8
REMARK    3  A    between atoms: N_8  and  C_11
REMARK    4  A    between atoms: C_11  and  C_16
REMARK    5  A    between atoms: C_22  and  C_26
REMARK                            x       y       z     vdW  Elec       q    Type
REMARK                         _______ _______ _______ _____ _____    ______ ____
ROOT
ATOM      1  N   UNL     1      35.964 -21.161 -20.302  0.00  0.00    +0.387 N 
ATOM      2  C   UNL     1      35.628 -18.400 -21.210  0.00  0.00    -0.066 C 
ATOM      3  C   UNL     1      36.790 -20.086 -19.736  0.00  0.00    -0.079 C 
ATOM      4  C   UNL     1      34.638 -20.663 -20.695  0.00  0.00    -0.079 C 
ATOM      5  C   UNL     1      36.978 -18.947 -20.742  0.00  0.00    -0.044 C 
ATOM      6  C   UNL     1      34.753 -19.543 -21.732  0.00  0.00    -0.044 C 
ATOM      7  H   UNL     1      36.430 -21.507 -21.141  0.00  0.00    -0.080 HD
ENDROOT
BRANCH   2   8
ATOM      8  N   UNL     1      35.823 -17.379 -22.237  0.00  0.00    +0.389 N 
ATOM      9  H   UNL     1      36.752 -17.492 -22.646  0.00  0.00    -0.084 HD
ATOM     10  H   UNL     1      35.735 -16.459 -21.806  0.00  0.00    -0.084 HD
BRANCH   8  11
ATOM     11  C   UNL     1      34.822 -17.501 -23.285  0.00  0.00    -0.032 C 
BRANCH  11  16
ATOM     12  O   UNL     1      34.171 -12.708 -22.845  0.00  0.00    -0.467 OA
ATOM     13  O   UNL     1      33.312 -12.675 -25.591  0.00  0.00    -0.453 OA
ATOM     14  N   UNL     1      34.064 -16.126 -25.148  0.00  0.00    -0.151 NA
ATOM     15  N   UNL     1      33.701 -14.938 -25.705  0.00  0.00    -0.107 NA
ATOM     16  C   UNL     1      34.436 -16.161 -23.852  0.00  0.00    +0.062 C 
ATOM     17  C   UNL     1      34.478 -15.036 -23.053  0.00  0.00    +0.056 C 
ATOM     18  C   UNL     1      34.119 -13.827 -23.626  0.00  0.00    +0.194 C 
ATOM     19  C   UNL     1      33.718 -13.819 -24.951  0.00  0.00    +0.278 C 
ATOM     20  C   UNL     1      34.086 -11.510 -23.622  0.00  0.00    +0.253 C 
ATOM     21  C   UNL     1      32.992 -11.635 -24.664  0.00  0.00    +0.254 C 
ENDBRANCH  11  16
ENDBRANCH   8  11
ENDBRANCH   2   8
BRANCH   1  22
ATOM     22  C   UNL     1      35.835 -22.264 -19.350  0.00  0.00    -0.071 C 
BRANCH  22  26
ATOM     23  F   UNL     1      32.655 -21.800 -18.676  0.00  0.00    -0.204 F 
ATOM     24  O   UNL     1      38.083 -23.395 -14.591  0.00  0.00    -0.270 OA
ATOM     25  N   UNL     1      36.234 -22.908 -15.895  0.00  0.00    -0.255 N 
ATOM     26  C   UNL     1      35.624 -21.743 -17.936  0.00  0.00    +0.025 C 
ATOM     27  C   UNL     1      36.807 -22.119 -16.993  0.00  0.00    +0.101 C 
ATOM     28  C   UNL     1      34.452 -22.385 -17.246  0.00  0.00    +0.018 C 
ATOM     29  C   UNL     1      34.866 -23.025 -16.092  0.00  0.00    +0.052 C 
ATOM     30  C   UNL     1      34.033 -23.710 -15.230  0.00  0.00    +0.014 C 
ATOM     31  C   UNL     1      33.110 -22.412 -17.576  0.00  0.00    +0.137 C 
ATOM     32  C   UNL     1      36.877 -23.469 -14.814  0.00  0.00    +0.253 C 
ATOM     33  C   UNL     1      32.681 -23.745 -15.557  0.00  0.00    +0.004 C 
ATOM     34  C   UNL     1      32.226 -23.097 -16.726  0.00  0.00    +0.029 C 
ATOM     35  C   UNL     1      34.656 -24.326 -14.062  0.00  0.00    +0.006 C 
ATOM     36  C   UNL     1      35.981 -24.217 -13.865  0.00  0.00    +0.058 C 
ENDBRANCH  22  26
ENDBRANCH   1  22
TORSDOF 5
ENDMDL
MODEL 7
REMARK VINA RESULT:     -12.4      7.327     14.952
REMARK  Name = 119057475
REMARK  5 active torsions:
REMARK  status: ('A' for Active; 'I' for Inactive)
REMARK    1  A    between atoms: N_1  and  C_22
REMARK    2  A    between atoms: C_2  and  N_8
REMARK    3  A    between atoms: N_8  and  C_11
REMARK    4  A    between atoms: C_11  and  C_16
REMARK    5  A    between atoms: C_22  and  C_26
REMARK                            x       y       z     vdW  Elec       q    Type
REMARK                         _______ _______ _______ _____ _____    ______ ____
ROOT
ATOM      1  N   UNL     1      32.225  -9.201 -22.557  0.00  0.00    +0.387 N 
ATOM      2  C   UNL     1      32.534 -12.110 -22.459  0.00  0.00    -0.066 C 
ATOM      3  C   UNL     1      32.736  -9.935 -23.723  0.00  0.00    -0.079 C 
ATOM      4  C   UNL     1      31.287 -10.024 -21.780  0.00  0.00    -0.079 C 
ATOM      5  C   UNL     1      33.453 -11.219 -23.297  0.00  0.00    -0.044 C 
ATOM      6  C   UNL     1      31.956 -11.310 -21.288  0.00  0.00    -0.044 C 
ATOM      7  H   UNL     1      33.018  -8.977 -21.956  0.00  0.00    -0.080 HD
ENDROOT
BRANCH   2   8
ATOM      8  N   UNL     1      33.262 -13.284 -21.983  0.00  0.00    +0.389 N 
ATOM      9  H   UNL     1      32.622 -14.077 -21.937  0.00  0.00    -0.084 HD
ATOM     10  H   UNL     1      33.642 -13.080 -21.059  0.00  0.00    -0.084 HD
BRANCH   8  11
ATOM     11  C   UNL     1      34.362 -13.609 -22.878  0.00  0.00    -0.032 C 
BRANCH  11  16
ATOM     12  O   UNL     1      35.287 -18.337 -22.262  0.00  0.00    -0.467 OA
ATOM     13  O   UNL     1      34.060 -18.807 -24.822  0.00  0.00    -0.453 OA
ATOM     14  N   UNL     1      33.700 -15.277 -24.525  0.00  0.00    -0.151 NA
ATOM     15  N   UNL     1      33.627 -16.555 -24.990  0.00  0.00    -0.107 NA
ATOM     16  C   UNL     1      34.303 -15.040 -23.342  0.00  0.00    +0.062 C 
ATOM     17  C   UNL     1      34.848 -16.041 -22.564  0.00  0.00    +0.056 C 
ATOM     18  C   UNL     1      34.761 -17.340 -23.034  0.00  0.00    +0.194 C 
ATOM     19  C   UNL     1      34.159 -17.558 -24.261  0.00  0.00    +0.278 C 
ATOM     20  C   UNL     1      34.860 -19.632 -22.698  0.00  0.00    +0.253 C 
ATOM     21  C   UNL     1      34.955 -19.736 -24.208  0.00  0.00    +0.254 C 
ENDBRANCH  11  16
ENDBRANCH   8  11
ENDBRANCH   2   8
BRANCH   1  22
ATOM     22  C   UNL     1      31.587  -7.954 -22.975  0.00  0.00    -0.071 C 
BRANCH  22  26
ATOM     23  F   UNL     1      34.564  -7.804 -24.354  0.00  0.00    -0.204 F 
ATOM     24  O   UNL     1      30.301  -2.827 -21.955  0.00  0.00    -0.270 OA
ATOM     25  N   UNL     1      31.743  -4.424 -22.805  0.00  0.00    -0.255 N 
ATOM     26  C   UNL     1      32.377  -6.746 -22.491  0.00  0.00    +0.025 C 
ATOM     27  C   UNL     1      31.446  -5.605 -21.984  0.00  0.00    +0.101 C 
ATOM     28  C   UNL     1      33.140  -6.067 -23.595  0.00  0.00    +0.018 C 
ATOM     29  C   UNL     1      32.736  -4.750 -23.717  0.00  0.00    +0.052 C 
ATOM     30  C   UNL     1      33.244  -3.853 -24.636  0.00  0.00    +0.014 C 
ATOM     31  C   UNL     1      34.129  -6.540 -24.436  0.00  0.00    +0.137 C 
ATOM     32  C   UNL     1      31.180  -3.169 -22.741  0.00  0.00    +0.253 C 
ATOM     33  C   UNL     1      34.237  -4.324 -25.490  0.00  0.00    +0.004 C 
ATOM     34  C   UNL     1      34.675  -5.661 -25.387  0.00  0.00    +0.029 C 
ATOM     35  C   UNL     1      32.687  -2.504 -24.617  0.00  0.00    +0.006 C 
ATOM     36  C   UNL     1      31.725  -2.181 -23.736  0.00  0.00    +0.058 C 
ENDBRANCH  22  26
ENDBRANCH   1  22
TORSDOF 5
ENDMDL
MODEL 8
REMARK VINA RESULT:     -12.2      3.856     11.157
REMARK  Name = 119057475
REMARK  5 active torsions:
REMARK  status: ('A' for Active; 'I' for Inactive)
REMARK    1  A    between atoms: N_1  and  C_22
REMARK    2  A    between atoms: C_2  and  N_8
REMARK    3  A    between atoms: N_8  and  C_11
REMARK    4  A    between atoms: C_11  and  C_16
REMARK    5  A    between atoms: C_22  and  C_26
REMARK                            x       y       z     vdW  Elec       q    Type
REMARK                         _______ _______ _______ _____ _____    ______ ____
ROOT
ATOM      1  N   UNL     1      33.886 -15.790 -23.689  0.00  0.00    +0.387 N 
ATOM      2  C   UNL     1      35.182 -18.382 -23.282  0.00  0.00    -0.066 C 
ATOM      3  C   UNL     1      35.112 -15.892 -22.885  0.00  0.00    -0.079 C 
ATOM      4  C   UNL     1      33.858 -16.811 -24.746  0.00  0.00    -0.079 C 
ATOM      5  C   UNL     1      35.231 -17.271 -22.231  0.00  0.00    -0.044 C 
ATOM      6  C   UNL     1      33.935 -18.221 -24.156  0.00  0.00    -0.044 C 
ATOM      7  H   UNL     1      33.092 -15.956 -23.072  0.00  0.00    -0.080 HD
ENDROOT
BRANCH   2   8
ATOM      8  N   UNL     1      35.202 -19.693 -22.635  0.00  0.00    +0.389 N 
ATOM      9  H   UNL     1      35.816 -20.315 -23.162  0.00  0.00    -0.084 HD
ATOM     10  H   UNL     1      34.252 -20.063 -22.617  0.00  0.00    -0.084 HD
BRANCH   8  11
ATOM     11  C   UNL     1      35.689 -19.587 -21.268  0.00  0.00    -0.032 C 
BRANCH  11  16
ATOM     12  O   UNL     1      35.215 -22.676 -17.550  0.00  0.00    -0.467 OA
ATOM     13  O   UNL     1      32.364 -22.468 -17.872  0.00  0.00    -0.453 OA
ATOM     14  N   UNL     1      33.506 -20.270 -20.429  0.00  0.00    -0.151 NA
ATOM     15  N   UNL     1      32.700 -20.976 -19.589  0.00  0.00    -0.107 NA
ATOM     16  C   UNL     1      34.845 -20.385 -20.310  0.00  0.00    +0.062 C 
ATOM     17  C   UNL     1      35.448 -21.185 -19.361  0.00  0.00    +0.056 C 
ATOM     18  C   UNL     1      34.625 -21.893 -18.500  0.00  0.00    +0.194 C 
ATOM     19  C   UNL     1      33.254 -21.778 -18.655  0.00  0.00    +0.278 C 
ATOM     20  C   UNL     1      34.283 -23.093 -16.547  0.00  0.00    +0.253 C 
ATOM     21  C   UNL     1      32.991 -23.557 -17.190  0.00  0.00    +0.254 C 
ENDBRANCH  11  16
ENDBRANCH   8  11
ENDBRANCH   2   8
BRANCH   1  22
ATOM     22  C   UNL     1      33.761 -14.452 -24.265  0.00  0.00    -0.071 C 
BRANCH  22  26
ATOM     23  F   UNL     1      34.637 -11.664 -25.761  0.00  0.00    -0.204 F 
ATOM     24  O   UNL     1      31.933 -12.894 -19.447  0.00  0.00    -0.270 OA
ATOM     25  N   UNL     1      32.792 -12.414 -21.541  0.00  0.00    -0.255 N 
ATOM     26  C   UNL     1      34.193 -13.385 -23.270  0.00  0.00    +0.025 C 
ATOM     27  C   UNL     1      33.572 -13.617 -21.860  0.00  0.00    +0.101 C 
ATOM     28  C   UNL     1      33.680 -12.016 -23.622  0.00  0.00    +0.018 C 
ATOM     29  C   UNL     1      32.895 -11.519 -22.597  0.00  0.00    +0.052 C 
ATOM     30  C   UNL     1      32.276 -10.286 -22.607  0.00  0.00    +0.014 C 
ATOM     31  C   UNL     1      33.879 -11.235 -24.745  0.00  0.00    +0.137 C 
ATOM     32  C   UNL     1      32.058 -12.140 -20.409  0.00  0.00    +0.253 C 
ATOM     33  C   UNL     1      32.469  -9.495 -23.736  0.00  0.00    +0.004 C 
ATOM     34  C   UNL     1      33.268  -9.971 -24.797  0.00  0.00    +0.029 C 
ATOM     35  C   UNL     1      31.483  -9.937 -21.432  0.00  0.00    +0.006 C 
ATOM     36  C   UNL     1      31.378 -10.798 -20.405  0.00  0.00    +0.058 C 
ENDBRANCH  22  26
ENDBRANCH   1  22
TORSDOF 5
ENDMDL
MODEL 9
REMARK VINA RESULT:     -12.2      7.207     15.081
REMARK  Name = 119057475
REMARK  5 active torsions:
REMARK  status: ('A' for Active; 'I' for Inactive)
REMARK    1  A    between atoms: N_1  and  C_22
REMARK    2  A    between atoms: C_2  and  N_8
REMARK    3  A    between atoms: N_8  and  C_11
REMARK    4  A    between atoms: C_11  and  C_16
REMARK    5  A    between atoms: C_22  and  C_26
REMARK                            x       y       z     vdW  Elec       q    Type
REMARK                         _______ _______ _______ _____ _____    ______ ____
ROOT
ATOM      1  N   UNL     1      34.404  -8.784 -23.405  0.00  0.00    +0.387 N 
ATOM      2  C   UNL     1      33.790 -11.169 -24.985  0.00  0.00    -0.066 C 
ATOM      3  C   UNL     1      34.953  -8.941 -24.759  0.00  0.00    -0.079 C 
ATOM      4  C   UNL     1      33.096  -9.442 -23.282  0.00  0.00    -0.079 C 
ATOM      5  C   UNL     1      35.118 -10.420 -25.120  0.00  0.00    -0.044 C 
ATOM      6  C   UNL     1      33.197 -10.937 -23.592  0.00  0.00    -0.044 C 
ATOM      7  H   UNL     1      35.045  -9.235 -22.753  0.00  0.00    -0.080 HD
ENDROOT
BRANCH   2   8
ATOM      8  N   UNL     1      33.984 -12.594 -25.241  0.00  0.00    +0.389 N 
ATOM      9  H   UNL     1      34.966 -12.829 -25.090  0.00  0.00    -0.084 HD
ATOM     10  H   UNL     1      33.716 -12.793 -26.205  0.00  0.00    -0.084 HD
BRANCH   8  11
ATOM     11  C   UNL     1      33.159 -13.397 -24.352  0.00  0.00    -0.032 C 
BRANCH  11  16
ATOM     12  O   UNL     1      35.303 -16.489 -21.281  0.00  0.00    -0.467 OA
ATOM     13  O   UNL     1      35.508 -18.354 -23.462  0.00  0.00    -0.453 OA
ATOM     14  N   UNL     1      33.868 -15.621 -25.047  0.00  0.00    -0.151 NA
ATOM     15  N   UNL     1      34.440 -16.835 -24.818  0.00  0.00    -0.107 NA
ATOM     16  C   UNL     1      33.796 -14.725 -24.041  0.00  0.00    +0.062 C 
ATOM     17  C   UNL     1      34.272 -14.983 -22.772  0.00  0.00    +0.056 C 
ATOM     18  C   UNL     1      34.843 -16.223 -22.539  0.00  0.00    +0.194 C 
ATOM     19  C   UNL     1      34.927 -17.118 -23.591  0.00  0.00    +0.278 C 
ATOM     20  C   UNL     1      35.572 -17.883 -21.095  0.00  0.00    +0.253 C 
ATOM     21  C   UNL     1      36.322 -18.438 -22.290  0.00  0.00    +0.254 C 
ENDBRANCH  11  16
ENDBRANCH   8  11
ENDBRANCH   2   8
BRANCH   1  22
ATOM     22  C   UNL     1      34.300  -7.367 -23.056  0.00  0.00    -0.071 C 
BRANCH  22  26
ATOM     23  F   UNL     1      31.535  -7.493 -21.289  0.00  0.00    -0.204 F 
ATOM     24  O   UNL     1      33.800  -2.920 -26.048  0.00  0.00    -0.270 OA
ATOM     25  N   UNL     1      33.008  -4.375 -24.433  0.00  0.00    -0.255 N 
ATOM     26  C   UNL     1      33.133  -6.710 -23.780  0.00  0.00    +0.025 C 
ATOM     27  C   UNL     1      33.612  -5.657 -24.823  0.00  0.00    +0.101 C 
ATOM     28  C   UNL     1      32.270  -5.884 -22.866  0.00  0.00    +0.018 C 
ATOM     29  C   UNL     1      32.238  -4.569 -23.295  0.00  0.00    +0.052 C 
ATOM     30  C   UNL     1      31.535  -3.556 -22.676  0.00  0.00    +0.014 C 
ATOM     31  C   UNL     1      31.547  -6.234 -21.742  0.00  0.00    +0.137 C 
ATOM     32  C   UNL     1      33.134  -3.146 -25.041  0.00  0.00    +0.253 C 
ATOM     33  C   UNL     1      30.806  -3.900 -21.541  0.00  0.00    +0.004 C 
ATOM     34  C   UNL     1      30.814  -5.233 -21.079  0.00  0.00    +0.029 C 
ATOM     35  C   UNL     1      31.627  -2.228 -23.276  0.00  0.00    +0.006 C 
ATOM     36  C   UNL     1      32.371  -2.032 -24.378  0.00  0.00    +0.058 C 
ENDBRANCH  22  26
ENDBRANCH   1  22
TORSDOF 5
ENDMDL
