MODEL 1
REMARK VINA RESULT:     -12.0      0.000      0.000
REMARK  Name = 10297043
REMARK  6 active torsions:
REMARK  status: ('A' for Active; 'I' for Inactive)
REMARK    1  A    between atoms: N_2  and  C_30
REMARK    2  A    between atoms: C_5  and  C_16
REMARK    3  A    between atoms: C_13  and  C_19
REMARK    4  A    between atoms: C_19  and  N_20
REMARK    5  A    between atoms: N_21  and  C_28
REMARK    6  A    between atoms: C_30  and  C_32
REMARK                            x       y       z     vdW  Elec       q    Type
REMARK                         _______ _______ _______ _____ _____    ______ ____
ROOT
ATOM      1  N   UNL     1      32.385 -22.048 -18.135  0.00  0.00    -0.301 N 
ATOM      2  N   UNL     1      34.946 -24.167 -14.861  0.00  0.00    -0.319 N 
ATOM      3  N   UNL     1      31.137 -23.232 -16.445  0.00  0.00    -0.233 NA
ATOM      4  N   UNL     1      32.563 -24.301 -14.786  0.00  0.00    -0.233 NA
ATOM      5  C   UNL     1      33.706 -21.813 -18.416  0.00  0.00    +0.046 C 
ATOM      6  C   UNL     1      33.573 -23.075 -16.551  0.00  0.00    +0.131 C 
ATOM      7  C   UNL     1      34.466 -22.438 -17.450  0.00  0.00    +0.003 C 
ATOM      8  C   UNL     1      32.286 -22.815 -17.005  0.00  0.00    +0.117 C 
ATOM      9  C   UNL     1      33.684 -23.850 -15.397  0.00  0.00    +0.113 C 
ATOM     10  C   UNL     1      31.375 -23.969 -15.341  0.00  0.00    +0.252 C 
ATOM     11  H   UNL     1      31.624 -21.717 -18.665  0.00  0.00    +0.153 HD
ATOM     12  H   UNL     1      35.749 -23.829 -15.321  0.00  0.00    +0.148 HD
ENDROOT
BRANCH   5  16
ATOM     13  C   UNL     1      34.910 -19.529 -21.757  0.00  0.00    -0.043 C 
ATOM     14  C   UNL     1      33.558 -19.769 -21.539  0.00  0.00    -0.006 C 
ATOM     15  C   UNL     1      35.870 -20.034 -20.888  0.00  0.00    -0.006 C 
ATOM     16  C   UNL     1      34.118 -21.033 -19.557  0.00  0.00    +0.013 C 
ATOM     17  C   UNL     1      33.161 -20.523 -20.434  0.00  0.00    +0.001 C 
ATOM     18  C   UNL     1      35.472 -20.788 -19.784  0.00  0.00    +0.001 C 
BRANCH  13  19
ATOM     19  C   UNL     1      35.338 -18.718 -22.946  0.00  0.00    -0.050 C 
BRANCH  19  20
ATOM     20  N   UNL     1      34.641 -17.435 -23.011  0.00  0.00    +0.387 N 
ATOM     21  N   UNL     1      34.530 -14.587 -23.492  0.00  0.00    +0.384 N 
ATOM     22  C   UNL     1      35.221 -16.478 -22.060  0.00  0.00    -0.100 C 
ATOM     23  C   UNL     1      34.678 -16.890 -24.374  0.00  0.00    -0.100 C 
ATOM     24  C   UNL     1      34.494 -15.131 -22.129  0.00  0.00    -0.101 C 
ATOM     25  C   UNL     1      33.950 -15.543 -24.441  0.00  0.00    -0.101 C 
ATOM     26  H   UNL     1      33.666 -17.593 -22.754  0.00  0.00    -0.079 HD
ATOM     27  H   UNL     1      35.505 -14.430 -23.749  0.00  0.00    -0.080 HD
BRANCH  21  28
ATOM     28  C   UNL     1      33.835 -13.303 -23.557  0.00  0.00    -0.078 C 
ATOM     29  C   UNL     1      32.872 -13.140 -22.394  0.00  0.00    -0.025 C 
ENDBRANCH  21  28
ENDBRANCH  19  20
ENDBRANCH  13  19
ENDBRANCH   5  16
BRANCH   2  30
ATOM     30  C   UNL     1      35.117 -24.958 -13.681  0.00  0.00    +0.093 C 
ATOM     31  C   UNL     1      34.615 -24.171 -12.472  0.00  0.00    +0.026 C 
BRANCH  30  32
ATOM     32  C   UNL     1      36.559 -25.396 -13.547  0.00  0.00    -0.005 C 
ATOM     33  C   UNL     1      37.290 -24.987 -12.444  0.00  0.00    -0.003 C 
ATOM     34  C   UNL     1      37.118 -26.196 -14.529  0.00  0.00    -0.003 C 
ATOM     35  C   UNL     1      38.619 -25.389 -12.320  0.00  0.00    -0.000 C 
ATOM     36  C   UNL     1      38.447 -26.598 -14.405  0.00  0.00    -0.000 C 
ATOM     37  C   UNL     1      39.198 -26.195 -13.301  0.00  0.00    -0.000 C 
ENDBRANCH  30  32
ENDBRANCH   2  30
TORSDOF 6
ENDMDL
MODEL 2
REMARK VINA RESULT:     -11.7      3.136     12.824
REMARK  Name = 10297043
REMARK  6 active torsions:
REMARK  status: ('A' for Active; 'I' for Inactive)
REMARK    1  A    between atoms: N_2  and  C_30
REMARK    2  A    between atoms: C_5  and  C_16
REMARK    3  A    between atoms: C_13  and  C_19
REMARK    4  A    between atoms: C_19  and  N_20
REMARK    5  A    between atoms: N_21  and  C_28
REMARK    6  A    between atoms: C_30  and  C_32
REMARK                            x       y       z     vdW  Elec       q    Type
REMARK                         _______ _______ _______ _____ _____    ______ ____
ROOT
ATOM      1  N   UNL     1      34.128 -15.356 -24.654  0.00  0.00    -0.301 N 
ATOM      2  N   UNL     1      33.648 -11.000 -23.054  0.00  0.00    -0.319 N 
ATOM      3  N   UNL     1      33.339 -13.741 -26.260  0.00  0.00    -0.233 NA
ATOM      4  N   UNL     1      33.123 -11.502 -25.328  0.00  0.00    -0.233 NA
ATOM      5  C   UNL     1      34.493 -15.350 -23.332  0.00  0.00    +0.046 C 
ATOM      6  C   UNL     1      33.885 -13.260 -23.928  0.00  0.00    +0.131 C 
ATOM      7  C   UNL     1      34.353 -14.064 -22.856  0.00  0.00    +0.003 C 
ATOM      8  C   UNL     1      33.754 -14.094 -25.032  0.00  0.00    +0.117 C 
ATOM      9  C   UNL     1      33.549 -11.920 -24.113  0.00  0.00    +0.113 C 
ATOM     10  C   UNL     1      33.045 -12.425 -26.313  0.00  0.00    +0.252 C 
ATOM     11  H   UNL     1      34.132 -16.147 -25.240  0.00  0.00    +0.153 HD
ATOM     12  H   UNL     1      33.960 -11.325 -22.178  0.00  0.00    +0.148 HD
ENDROOT
BRANCH   5  16
ATOM     13  C   UNL     1      35.777 -18.849 -21.349  0.00  0.00    -0.043 C 
ATOM     14  C   UNL     1      35.639 -17.665 -20.634  0.00  0.00    -0.006 C 
ATOM     15  C   UNL     1      35.498 -18.894 -22.709  0.00  0.00    -0.006 C 
ATOM     16  C   UNL     1      34.932 -16.546 -22.655  0.00  0.00    +0.013 C 
ATOM     17  C   UNL     1      35.214 -16.509 -21.290  0.00  0.00    +0.001 C 
ATOM     18  C   UNL     1      35.073 -17.738 -23.365  0.00  0.00    +0.001 C 
BRANCH  13  19
ATOM     19  C   UNL     1      36.235 -20.093 -20.643  0.00  0.00    -0.050 C 
BRANCH  19  20
ATOM     20  N   UNL     1      35.301 -20.503 -19.597  0.00  0.00    +0.387 N 
ATOM     21  N   UNL     1      33.479 -22.378 -18.363  0.00  0.00    +0.384 N 
ATOM     22  C   UNL     1      33.967 -20.753 -20.159  0.00  0.00    -0.100 C 
ATOM     23  C   UNL     1      35.793 -21.695 -18.895  0.00  0.00    -0.100 C 
ATOM     24  C   UNL     1      32.986 -21.186 -19.065  0.00  0.00    -0.101 C 
ATOM     25  C   UNL     1      34.810 -22.127 -17.801  0.00  0.00    -0.101 C 
ATOM     26  H   UNL     1      35.227 -19.740 -18.924  0.00  0.00    -0.079 HD
ATOM     27  H   UNL     1      33.553 -23.140 -19.037  0.00  0.00    -0.080 HD
BRANCH  21  28
ATOM     28  C   UNL     1      32.543 -22.789 -17.318  0.00  0.00    -0.078 C 
ATOM     29  C   UNL     1      33.277 -23.365 -16.119  0.00  0.00    -0.025 C 
ENDBRANCH  21  28
ENDBRANCH  19  20
ENDBRANCH  13  19
ENDBRANCH   5  16
BRANCH   2  30
ATOM     30  C   UNL     1      33.316  -9.614 -23.189  0.00  0.00    +0.093 C 
ATOM     31  C   UNL     1      34.517  -8.864 -23.761  0.00  0.00    +0.026 C 
BRANCH  30  32
ATOM     32  C   UNL     1      32.844  -9.056 -21.864  0.00  0.00    -0.005 C 
ATOM     33  C   UNL     1      32.124  -9.870 -21.006  0.00  0.00    -0.003 C 
ATOM     34  C   UNL     1      33.140  -7.744 -21.538  0.00  0.00    -0.003 C 
ATOM     35  C   UNL     1      31.688  -9.356 -19.786  0.00  0.00    -0.000 C 
ATOM     36  C   UNL     1      32.704  -7.230 -20.318  0.00  0.00    -0.000 C 
ATOM     37  C   UNL     1      31.978  -8.036 -19.441  0.00  0.00    -0.000 C 
ENDBRANCH  30  32
ENDBRANCH   2  30
TORSDOF 6
ENDMDL
MODEL 3
REMARK VINA RESULT:     -11.4      5.085      9.803
REMARK  Name = 10297043
REMARK  6 active torsions:
REMARK  status: ('A' for Active; 'I' for Inactive)
REMARK    1  A    between atoms: N_2  and  C_30
REMARK    2  A    between atoms: C_5  and  C_16
REMARK    3  A    between atoms: C_13  and  C_19
REMARK    4  A    between atoms: C_19  and  N_20
REMARK    5  A    between atoms: N_21  and  C_28
REMARK    6  A    between atoms: C_30  and  C_32
REMARK                            x       y       z     vdW  Elec       q    Type
REMARK                         _______ _______ _______ _____ _____    ______ ____
ROOT
ATOM      1  N   UNL     1      33.377 -14.640 -24.112  0.00  0.00    -0.301 N 
ATOM      2  N   UNL     1      35.867 -17.375 -21.269  0.00  0.00    -0.319 N 
ATOM      3  N   UNL     1      33.925 -16.819 -24.985  0.00  0.00    -0.233 NA
ATOM      4  N   UNL     1      35.223 -18.167 -23.427  0.00  0.00    -0.233 NA
ATOM      5  C   UNL     1      33.606 -13.944 -22.953  0.00  0.00    +0.046 C 
ATOM      6  C   UNL     1      34.567 -15.979 -22.782  0.00  0.00    +0.131 C 
ATOM      7  C   UNL     1      34.342 -14.751 -22.110  0.00  0.00    +0.003 C 
ATOM      8  C   UNL     1      33.955 -15.878 -24.026  0.00  0.00    +0.117 C 
ATOM      9  C   UNL     1      35.218 -17.180 -22.502  0.00  0.00    +0.113 C 
ATOM     10  C   UNL     1      34.585 -17.929 -24.596  0.00  0.00    +0.252 C 
ATOM     11  H   UNL     1      32.875 -14.300 -24.888  0.00  0.00    +0.153 HD
ATOM     12  H   UNL     1      35.852 -16.644 -20.610  0.00  0.00    +0.148 HD
ENDROOT
BRANCH   5  16
ATOM     13  C   UNL     1      32.171 -10.016 -22.378  0.00  0.00    -0.043 C 
ATOM     14  C   UNL     1      31.721 -11.040 -21.553  0.00  0.00    -0.006 C 
ATOM     15  C   UNL     1      33.088 -10.271 -23.391  0.00  0.00    -0.006 C 
ATOM     16  C   UNL     1      33.116 -12.602 -22.757  0.00  0.00    +0.013 C 
ATOM     17  C   UNL     1      32.197 -12.338 -21.742  0.00  0.00    +0.001 C 
ATOM     18  C   UNL     1      33.562 -11.569 -23.581  0.00  0.00    +0.001 C 
BRANCH  13  19
ATOM     19  C   UNL     1      31.660  -8.618 -22.175  0.00  0.00    -0.050 C 
BRANCH  19  20
ATOM     20  N   UNL     1      32.237  -7.680 -23.135  0.00  0.00    +0.387 N 
ATOM     21  N   UNL     1      32.888  -5.021 -24.064  0.00  0.00    +0.384 N 
ATOM     22  C   UNL     1      31.204  -6.787 -23.676  0.00  0.00    -0.100 C 
ATOM     23  C   UNL     1      33.318  -6.901 -22.519  0.00  0.00    -0.100 C 
ATOM     24  C   UNL     1      31.807  -5.800 -24.680  0.00  0.00    -0.101 C 
ATOM     25  C   UNL     1      33.920  -5.915 -23.525  0.00  0.00    -0.101 C 
ATOM     26  H   UNL     1      32.629  -8.221 -23.906  0.00  0.00    -0.079 HD
ATOM     27  H   UNL     1      32.496  -4.481 -23.291  0.00  0.00    -0.080 HD
BRANCH  21  28
ATOM     28  C   UNL     1      33.464  -4.081 -25.023  0.00  0.00    -0.078 C 
ATOM     29  C   UNL     1      34.675  -4.680 -25.719  0.00  0.00    -0.025 C 
ENDBRANCH  21  28
ENDBRANCH  19  20
ENDBRANCH  13  19
ENDBRANCH   5  16
BRANCH   2  30
ATOM     30  C   UNL     1      36.550 -18.587 -20.930  0.00  0.00    +0.093 C 
ATOM     31  C   UNL     1      37.333 -19.078 -22.145  0.00  0.00    +0.026 C 
BRANCH  30  32
ATOM     32  C   UNL     1      35.569 -19.612 -20.401  0.00  0.00    -0.005 C 
ATOM     33  C   UNL     1      36.043 -20.677 -19.654  0.00  0.00    -0.003 C 
ATOM     34  C   UNL     1      34.221 -19.463 -20.677  0.00  0.00    -0.003 C 
ATOM     35  C   UNL     1      35.140 -21.621 -19.167  0.00  0.00    -0.000 C 
ATOM     36  C   UNL     1      33.319 -20.408 -20.190  0.00  0.00    -0.000 C 
ATOM     37  C   UNL     1      33.778 -21.487 -19.436  0.00  0.00    -0.000 C 
ENDBRANCH  30  32
ENDBRANCH   2  30
TORSDOF 6
ENDMDL
MODEL 4
REMARK VINA RESULT:     -10.9      2.019      4.150
REMARK  Name = 10297043
REMARK  6 active torsions:
REMARK  status: ('A' for Active; 'I' for Inactive)
REMARK    1  A    between atoms: N_2  and  C_30
REMARK    2  A    between atoms: C_5  and  C_16
REMARK    3  A    between atoms: C_13  and  C_19
REMARK    4  A    between atoms: C_19  and  N_20
REMARK    5  A    between atoms: N_21  and  C_28
REMARK    6  A    between atoms: C_30  and  C_32
REMARK                            x       y       z     vdW  Elec       q    Type
REMARK                         _______ _______ _______ _____ _____    ______ ____
ROOT
ATOM      1  N   UNL     1      37.169 -21.005 -18.422  0.00  0.00    -0.301 N 
ATOM      2  N   UNL     1      34.184 -23.318 -15.683  0.00  0.00    -0.319 N 
ATOM      3  N   UNL     1      38.142 -22.065 -16.487  0.00  0.00    -0.233 NA
ATOM      4  N   UNL     1      36.504 -23.244 -15.125  0.00  0.00    -0.233 NA
ATOM      5  C   UNL     1      35.917 -20.887 -18.969  0.00  0.00    +0.046 C 
ATOM      6  C   UNL     1      35.774 -22.122 -17.086  0.00  0.00    +0.131 C 
ATOM      7  C   UNL     1      35.032 -21.570 -18.162  0.00  0.00    +0.003 C 
ATOM      8  C   UNL     1      37.100 -21.752 -17.276  0.00  0.00    +0.117 C 
ATOM      9  C   UNL     1      35.496 -22.896 -15.960  0.00  0.00    +0.113 C 
ATOM     10  C   UNL     1      37.747 -22.812 -15.436  0.00  0.00    +0.252 C 
ATOM     11  H   UNL     1      37.991 -20.612 -18.795  0.00  0.00    +0.153 HD
ATOM     12  H   UNL     1      33.465 -23.054 -16.302  0.00  0.00    +0.148 HD
ENDROOT
BRANCH   5  16
ATOM     13  C   UNL     1      35.226 -18.721 -22.526  0.00  0.00    -0.043 C 
ATOM     14  C   UNL     1      36.482 -18.684 -21.931  0.00  0.00    -0.006 C 
ATOM     15  C   UNL     1      34.196 -19.464 -21.963  0.00  0.00    -0.006 C 
ATOM     16  C   UNL     1      35.681 -20.148 -20.184  0.00  0.00    +0.013 C 
ATOM     17  C   UNL     1      36.710 -19.400 -20.756  0.00  0.00    +0.001 C 
ATOM     18  C   UNL     1      34.424 -20.179 -20.788  0.00  0.00    +0.001 C 
BRANCH  13  19
ATOM     19  C   UNL     1      34.980 -17.950 -23.792  0.00  0.00    -0.050 C 
BRANCH  19  20
ATOM     20  N   UNL     1      34.304 -16.681 -23.534  0.00  0.00    +0.387 N 
ATOM     21  N   UNL     1      34.192 -13.793 -23.452  0.00  0.00    +0.384 N 
ATOM     22  C   UNL     1      35.002 -15.920 -22.490  0.00  0.00    -0.100 C 
ATOM     23  C   UNL     1      34.200 -15.886 -24.764  0.00  0.00    -0.100 C 
ATOM     24  C   UNL     1      34.297 -14.587 -22.221  0.00  0.00    -0.101 C 
ATOM     25  C   UNL     1      33.493 -14.553 -24.494  0.00  0.00    -0.101 C 
ATOM     26  H   UNL     1      33.361 -16.888 -23.204  0.00  0.00    -0.079 HD
ATOM     27  H   UNL     1      35.136 -13.587 -23.782  0.00  0.00    -0.080 HD
BRANCH  21  28
ATOM     28  C   UNL     1      33.518 -12.523 -23.195  0.00  0.00    -0.078 C 
ATOM     29  C   UNL     1      33.893 -11.481 -24.235  0.00  0.00    -0.025 C 
ENDBRANCH  21  28
ENDBRANCH  19  20
ENDBRANCH  13  19
ENDBRANCH   5  16
BRANCH   2  30
ATOM     30  C   UNL     1      33.843 -24.113 -14.541  0.00  0.00    +0.093 C 
ATOM     31  C   UNL     1      34.585 -25.446 -14.619  0.00  0.00    +0.026 C 
BRANCH  30  32
ATOM     32  C   UNL     1      32.342 -24.274 -14.443  0.00  0.00    -0.005 C 
ATOM     33  C   UNL     1      31.813 -25.089 -13.457  0.00  0.00    -0.003 C 
ATOM     34  C   UNL     1      31.529 -23.604 -15.341  0.00  0.00    -0.003 C 
ATOM     35  C   UNL     1      30.429 -25.237 -13.365  0.00  0.00    -0.000 C 
ATOM     36  C   UNL     1      30.146 -23.752 -15.250  0.00  0.00    -0.000 C 
ATOM     37  C   UNL     1      29.596 -24.569 -14.263  0.00  0.00    -0.000 C 
ENDBRANCH  30  32
ENDBRANCH   2  30
TORSDOF 6
ENDMDL
MODEL 5
REMARK VINA RESULT:     -10.2      2.321     12.130
REMARK  Name = 10297043
REMARK  6 active torsions:
REMARK  status: ('A' for Active; 'I' for Inactive)
REMARK    1  A    between atoms: N_2  and  C_30
REMARK    2  A    between atoms: C_5  and  C_16
REMARK    3  A    between atoms: C_13  and  C_19
REMARK    4  A    between atoms: C_19  and  N_20
REMARK    5  A    between atoms: N_21  and  C_28
REMARK    6  A    between atoms: C_30  and  C_32
REMARK                            x       y       z     vdW  Elec       q    Type
REMARK                         _______ _______ _______ _____ _____    ______ ____
ROOT
ATOM      1  N   UNL     1      34.752 -16.944 -23.806  0.00  0.00    -0.301 N 
ATOM      2  N   UNL     1      33.400 -12.672 -22.505  0.00  0.00    -0.319 N 
ATOM      3  N   UNL     1      33.974 -15.513 -25.585  0.00  0.00    -0.233 NA
ATOM      4  N   UNL     1      33.294 -13.310 -24.803  0.00  0.00    -0.233 NA
ATOM      5  C   UNL     1      34.915 -16.845 -22.448  0.00  0.00    +0.046 C 
ATOM      6  C   UNL     1      34.096 -14.891 -23.225  0.00  0.00    +0.131 C 
ATOM      7  C   UNL     1      34.517 -15.583 -22.060  0.00  0.00    +0.003 C 
ATOM      8  C   UNL     1      34.254 -15.764 -24.294  0.00  0.00    +0.117 C 
ATOM      9  C   UNL     1      33.595 -13.624 -23.521  0.00  0.00    +0.113 C 
ATOM     10  C   UNL     1      33.498 -14.261 -25.742  0.00  0.00    +0.252 C 
ATOM     11  H   UNL     1      34.959 -17.739 -24.347  0.00  0.00    +0.153 HD
ATOM     12  H   UNL     1      33.626 -12.920 -21.579  0.00  0.00    +0.148 HD
ENDROOT
BRANCH   5  16
ATOM     13  C   UNL     1      36.401 -20.049 -20.135  0.00  0.00    -0.043 C 
ATOM     14  C   UNL     1      35.071 -20.052 -20.540  0.00  0.00    -0.006 C 
ATOM     15  C   UNL     1      37.247 -19.003 -20.483  0.00  0.00    -0.006 C 
ATOM     16  C   UNL     1      35.423 -17.940 -21.658  0.00  0.00    +0.013 C 
ATOM     17  C   UNL     1      34.581 -18.993 -21.305  0.00  0.00    +0.001 C 
ATOM     18  C   UNL     1      36.756 -17.945 -21.248  0.00  0.00    +0.001 C 
BRANCH  13  19
ATOM     19  C   UNL     1      36.929 -21.189 -19.311  0.00  0.00    -0.050 C 
BRANCH  19  20
ATOM     20  N   UNL     1      36.103 -21.438 -18.132  0.00  0.00    +0.387 N 
ATOM     21  N   UNL     1      34.969 -23.153 -16.100  0.00  0.00    +0.384 N 
ATOM     22  C   UNL     1      35.018 -22.378 -18.445  0.00  0.00    -0.100 C 
ATOM     23  C   UNL     1      36.918 -21.948 -17.023  0.00  0.00    -0.100 C 
ATOM     24  C   UNL     1      34.153 -22.644 -17.209  0.00  0.00    -0.101 C 
ATOM     25  C   UNL     1      36.051 -22.213 -15.787  0.00  0.00    -0.101 C 
ATOM     26  H   UNL     1      35.687 -20.552 -17.845  0.00  0.00    -0.079 HD
ATOM     27  H   UNL     1      35.385 -24.039 -16.387  0.00  0.00    -0.080 HD
BRANCH  21  28
ATOM     28  C   UNL     1      34.143 -23.405 -14.920  0.00  0.00    -0.078 C 
ATOM     29  C   UNL     1      34.557 -24.691 -14.225  0.00  0.00    -0.025 C 
ENDBRANCH  21  28
ENDBRANCH  19  20
ENDBRANCH  13  19
ENDBRANCH   5  16
BRANCH   2  30
ATOM     30  C   UNL     1      32.889 -11.358 -22.754  0.00  0.00    +0.093 C 
ATOM     31  C   UNL     1      33.939 -10.545 -23.506  0.00  0.00    +0.026 C 
BRANCH  30  32
ATOM     32  C   UNL     1      32.453 -10.710 -21.457  0.00  0.00    -0.005 C 
ATOM     33  C   UNL     1      32.169 -11.511 -20.364  0.00  0.00    -0.003 C 
ATOM     34  C   UNL     1      32.347  -9.332 -21.391  0.00  0.00    -0.003 C 
ATOM     35  C   UNL     1      31.768 -10.915 -19.169  0.00  0.00    -0.000 C 
ATOM     36  C   UNL     1      31.946  -8.736 -20.197  0.00  0.00    -0.000 C 
ATOM     37  C   UNL     1      31.655  -9.527 -19.086  0.00  0.00    -0.000 C 
ENDBRANCH  30  32
ENDBRANCH   2  30
TORSDOF 6
ENDMDL
MODEL 6
REMARK VINA RESULT:     -10.2      5.488     15.471
REMARK  Name = 10297043
REMARK  6 active torsions:
REMARK  status: ('A' for Active; 'I' for Inactive)
REMARK    1  A    between atoms: N_2  and  C_30
REMARK    2  A    between atoms: C_5  and  C_16
REMARK    3  A    between atoms: C_13  and  C_19
REMARK    4  A    between atoms: C_19  and  N_20
REMARK    5  A    between atoms: N_21  and  C_28
REMARK    6  A    between atoms: C_30  and  C_32
REMARK                            x       y       z     vdW  Elec       q    Type
REMARK                         _______ _______ _______ _____ _____    ______ ____
ROOT
ATOM      1  N   UNL     1      32.563 -10.813 -21.659  0.00  0.00    -0.301 N 
ATOM      2  N   UNL     1      32.949  -6.883 -24.144  0.00  0.00    -0.319 N 
ATOM      3  N   UNL     1      31.847  -8.801 -20.539  0.00  0.00    -0.233 NA
ATOM      4  N   UNL     1      32.088  -6.809 -21.919  0.00  0.00    -0.233 NA
ATOM      5  C   UNL     1      33.079 -11.140 -22.887  0.00  0.00    +0.046 C 
ATOM      6  C   UNL     1      32.731  -8.911 -22.815  0.00  0.00    +0.131 C 
ATOM      7  C   UNL     1      33.194  -9.980 -23.624  0.00  0.00    +0.003 C 
ATOM      8  C   UNL     1      32.346  -9.461 -21.598  0.00  0.00    +0.117 C 
ATOM      9  C   UNL     1      32.586  -7.531 -22.950  0.00  0.00    +0.113 C 
ATOM     10  C   UNL     1      31.755  -7.479 -20.793  0.00  0.00    +0.252 C 
ATOM     11  H   UNL     1      32.377 -11.451 -20.933  0.00  0.00    +0.153 HD
ATOM     12  H   UNL     1      33.309  -7.427 -24.882  0.00  0.00    +0.148 HD
ENDROOT
BRANCH   5  16
ATOM     13  C   UNL     1      34.052 -15.116 -23.919  0.00  0.00    -0.043 C 
ATOM     14  C   UNL     1      33.628 -14.233 -24.906  0.00  0.00    -0.006 C 
ATOM     15  C   UNL     1      34.159 -14.704 -22.596  0.00  0.00    -0.006 C 
ATOM     16  C   UNL     1      33.412 -12.498 -23.239  0.00  0.00    +0.013 C 
ATOM     17  C   UNL     1      33.307 -12.919 -24.564  0.00  0.00    +0.001 C 
ATOM     18  C   UNL     1      33.838 -13.390 -22.255  0.00  0.00    +0.001 C 
BRANCH  13  19
ATOM     19  C   UNL     1      34.397 -16.531 -24.286  0.00  0.00    -0.050 C 
BRANCH  19  20
ATOM     20  N   UNL     1      34.433 -17.405 -23.116  0.00  0.00    +0.387 N 
ATOM     21  N   UNL     1      35.613 -19.485 -21.492  0.00  0.00    +0.384 N 
ATOM     22  C   UNL     1      34.367 -18.816 -23.518  0.00  0.00    -0.100 C 
ATOM     23  C   UNL     1      35.638 -17.156 -22.315  0.00  0.00    -0.100 C 
ATOM     24  C   UNL     1      34.409 -19.736 -22.293  0.00  0.00    -0.101 C 
ATOM     25  C   UNL     1      35.677 -18.076 -21.089  0.00  0.00    -0.101 C 
ATOM     26  H   UNL     1      33.615 -17.197 -22.542  0.00  0.00    -0.079 HD
ATOM     27  H   UNL     1      36.431 -19.693 -22.067  0.00  0.00    -0.080 HD
BRANCH  21  28
ATOM     28  C   UNL     1      35.651 -20.361 -20.323  0.00  0.00    -0.078 C 
ATOM     29  C   UNL     1      34.249 -20.708 -19.851  0.00  0.00    -0.025 C 
ENDBRANCH  21  28
ENDBRANCH  19  20
ENDBRANCH  13  19
ENDBRANCH   5  16
BRANCH   2  30
ATOM     30  C   UNL     1      32.820  -5.470 -24.337  0.00  0.00    +0.093 C 
ATOM     31  C   UNL     1      31.341  -5.114 -24.462  0.00  0.00    +0.026 C 
BRANCH  30  32
ATOM     32  C   UNL     1      33.641  -5.026 -25.528  0.00  0.00    -0.005 C 
ATOM     33  C   UNL     1      32.995  -4.513 -26.640  0.00  0.00    -0.003 C 
ATOM     34  C   UNL     1      35.019  -5.142 -25.481  0.00  0.00    -0.003 C 
ATOM     35  C   UNL     1      33.750  -4.104 -27.738  0.00  0.00    -0.000 C 
ATOM     36  C   UNL     1      35.775  -4.733 -26.580  0.00  0.00    -0.000 C 
ATOM     37  C   UNL     1      35.141  -4.215 -27.708  0.00  0.00    -0.000 C 
ENDBRANCH  30  32
ENDBRANCH   2  30
TORSDOF 6
ENDMDL
MODEL 7
REMARK VINA RESULT:     -10.1      2.276      5.355
REMARK  Name = 10297043
REMARK  6 active torsions:
REMARK  status: ('A' for Active; 'I' for Inactive)
REMARK    1  A    between atoms: N_2  and  C_30
REMARK    2  A    between atoms: C_5  and  C_16
REMARK    3  A    between atoms: C_13  and  C_19
REMARK    4  A    between atoms: C_19  and  N_20
REMARK    5  A    between atoms: N_21  and  C_28
REMARK    6  A    between atoms: C_30  and  C_32
REMARK                            x       y       z     vdW  Elec       q    Type
REMARK                         _______ _______ _______ _____ _____    ______ ____
ROOT
ATOM      1  N   UNL     1      35.087 -22.092 -18.114  0.00  0.00    -0.301 N 
ATOM      2  N   UNL     1      30.871 -23.088 -16.382  0.00  0.00    -0.319 N 
ATOM      3  N   UNL     1      35.067 -23.592 -16.226  0.00  0.00    -0.233 NA
ATOM      4  N   UNL     1      32.823 -24.048 -15.398  0.00  0.00    -0.233 NA
ATOM      5  C   UNL     1      34.155 -21.415 -18.858  0.00  0.00    +0.046 C 
ATOM      6  C   UNL     1      33.089 -22.594 -17.256  0.00  0.00    +0.131 C 
ATOM      7  C   UNL     1      32.907 -21.708 -18.349  0.00  0.00    +0.003 C 
ATOM      8  C   UNL     1      34.455 -22.813 -17.135  0.00  0.00    +0.117 C 
ATOM      9  C   UNL     1      32.267 -23.248 -16.339  0.00  0.00    +0.113 C 
ATOM     10  C   UNL     1      34.170 -24.168 -15.400  0.00  0.00    +0.252 C 
ATOM     11  H   UNL     1      36.059 -22.064 -18.260  0.00  0.00    +0.153 HD
ATOM     12  H   UNL     1      30.486 -22.502 -17.074  0.00  0.00    +0.148 HD
ENDROOT
BRANCH   5  16
ATOM     13  C   UNL     1      35.250 -18.930 -22.090  0.00  0.00    -0.043 C 
ATOM     14  C   UNL     1      36.189 -19.241 -21.113  0.00  0.00    -0.006 C 
ATOM     15  C   UNL     1      33.955 -19.428 -22.015  0.00  0.00    -0.006 C 
ATOM     16  C   UNL     1      34.528 -20.567 -19.963  0.00  0.00    +0.013 C 
ATOM     17  C   UNL     1      35.826 -20.063 -20.046  0.00  0.00    +0.001 C 
ATOM     18  C   UNL     1      33.593 -20.249 -20.947  0.00  0.00    +0.001 C 
BRANCH  13  19
ATOM     19  C   UNL     1      35.639 -18.045 -23.240  0.00  0.00    -0.050 C 
BRANCH  19  20
ATOM     20  N   UNL     1      34.738 -16.903 -23.379  0.00  0.00    +0.387 N 
ATOM     21  N   UNL     1      34.177 -14.115 -23.900  0.00  0.00    +0.384 N 
ATOM     22  C   UNL     1      35.059 -15.863 -22.393  0.00  0.00    -0.100 C 
ATOM     23  C   UNL     1      34.797 -16.355 -24.740  0.00  0.00    -0.100 C 
ATOM     24  C   UNL     1      34.118 -14.662 -22.539  0.00  0.00    -0.101 C 
ATOM     25  C   UNL     1      33.855 -15.155 -24.885  0.00  0.00    -0.101 C 
ATOM     26  H   UNL     1      33.787 -17.229 -23.204  0.00  0.00    -0.079 HD
ATOM     27  H   UNL     1      35.128 -13.790 -24.076  0.00  0.00    -0.080 HD
BRANCH  21  28
ATOM     28  C   UNL     1      33.278 -12.972 -24.040  0.00  0.00    -0.078 C 
ATOM     29  C   UNL     1      33.979 -11.674 -23.674  0.00  0.00    -0.025 C 
ENDBRANCH  21  28
ENDBRANCH  19  20
ENDBRANCH  13  19
ENDBRANCH   5  16
BRANCH   2  30
ATOM     30  C   UNL     1      29.981 -23.736 -15.465  0.00  0.00    +0.093 C 
ATOM     31  C   UNL     1      30.013 -25.242 -15.716  0.00  0.00    +0.026 C 
BRANCH  30  32
ATOM     32  C   UNL     1      28.593 -23.144 -15.574  0.00  0.00    -0.005 C 
ATOM     33  C   UNL     1      27.937 -22.743 -14.423  0.00  0.00    -0.003 C 
ATOM     34  C   UNL     1      28.008 -23.017 -16.822  0.00  0.00    -0.003 C 
ATOM     35  C   UNL     1      26.657 -22.199 -14.523  0.00  0.00    -0.000 C 
ATOM     36  C   UNL     1      26.728 -22.473 -16.922  0.00  0.00    -0.000 C 
ATOM     37  C   UNL     1      26.052 -22.064 -15.773  0.00  0.00    -0.000 C 
ENDBRANCH  30  32
ENDBRANCH   2  30
TORSDOF 6
ENDMDL
MODEL 8
REMARK VINA RESULT:     -10.1      1.254      2.194
REMARK  Name = 10297043
REMARK  6 active torsions:
REMARK  status: ('A' for Active; 'I' for Inactive)
REMARK    1  A    between atoms: N_2  and  C_30
REMARK    2  A    between atoms: C_5  and  C_16
REMARK    3  A    between atoms: C_13  and  C_19
REMARK    4  A    between atoms: C_19  and  N_20
REMARK    5  A    between atoms: N_21  and  C_28
REMARK    6  A    between atoms: C_30  and  C_32
REMARK                            x       y       z     vdW  Elec       q    Type
REMARK                         _______ _______ _______ _____ _____    ______ ____
ROOT
ATOM      1  N   UNL     1      33.748 -22.006 -17.873  0.00  0.00    -0.301 N 
ATOM      2  N   UNL     1      36.913 -24.265 -15.295  0.00  0.00    -0.319 N 
ATOM      3  N   UNL     1      32.860 -23.346 -16.076  0.00  0.00    -0.233 NA
ATOM      4  N   UNL     1      34.589 -24.481 -14.793  0.00  0.00    -0.233 NA
ATOM      5  C   UNL     1      34.989 -21.709 -18.374  0.00  0.00    +0.046 C 
ATOM      6  C   UNL     1      35.230 -23.103 -16.616  0.00  0.00    +0.131 C 
ATOM      7  C   UNL     1      35.928 -22.375 -17.614  0.00  0.00    +0.003 C 
ATOM      8  C   UNL     1      33.876 -22.854 -16.804  0.00  0.00    +0.117 C 
ATOM      9  C   UNL     1      35.568 -23.953 -15.564  0.00  0.00    +0.113 C 
ATOM     10  C   UNL     1      33.313 -24.150 -15.093  0.00  0.00    +0.252 C 
ATOM     11  H   UNL     1      32.896 -21.664 -18.228  0.00  0.00    +0.153 HD
ATOM     12  H   UNL     1      37.610 -23.870 -15.868  0.00  0.00    +0.148 HD
ENDROOT
BRANCH   5  16
ATOM     13  C   UNL     1      35.510 -19.158 -21.697  0.00  0.00    -0.043 C 
ATOM     14  C   UNL     1      36.605 -19.492 -20.909  0.00  0.00    -0.006 C 
ATOM     15  C   UNL     1      34.245 -19.654 -21.404  0.00  0.00    -0.006 C 
ATOM     16  C   UNL     1      35.167 -20.838 -19.510  0.00  0.00    +0.013 C 
ATOM     17  C   UNL     1      36.432 -20.335 -19.811  0.00  0.00    +0.001 C 
ATOM     18  C   UNL     1      34.074 -20.498 -20.306  0.00  0.00    +0.001 C 
BRANCH  13  19
ATOM     19  C   UNL     1      35.695 -18.249 -22.879  0.00  0.00    -0.050 C 
BRANCH  19  20
ATOM     20  N   UNL     1      34.808 -17.089 -22.820  0.00  0.00    +0.387 N 
ATOM     21  N   UNL     1      34.253 -14.260 -23.031  0.00  0.00    +0.384 N 
ATOM     22  C   UNL     1      35.254 -16.145 -21.786  0.00  0.00    -0.100 C 
ATOM     23  C   UNL     1      34.733 -16.422 -24.126  0.00  0.00    -0.100 C 
ATOM     24  C   UNL     1      34.328 -14.926 -21.725  0.00  0.00    -0.101 C 
ATOM     25  C   UNL     1      33.806 -15.203 -24.063  0.00  0.00    -0.101 C 
ATOM     26  H   UNL     1      33.875 -17.419 -22.573  0.00  0.00    -0.079 HD
ATOM     27  H   UNL     1      35.187 -13.931 -23.279  0.00  0.00    -0.080 HD
BRANCH  21  28
ATOM     28  C   UNL     1      33.369 -13.098 -22.972  0.00  0.00    -0.078 C 
ATOM     29  C   UNL     1      33.764 -12.054 -24.002  0.00  0.00    -0.025 C 
ENDBRANCH  21  28
ENDBRANCH  19  20
ENDBRANCH  13  19
ENDBRANCH   5  16
BRANCH   2  30
ATOM     30  C   UNL     1      37.316 -25.132 -14.229  0.00  0.00    +0.093 C 
ATOM     31  C   UNL     1      36.634 -26.487 -14.400  0.00  0.00    +0.026 C 
BRANCH  30  32
ATOM     32  C   UNL     1      37.027 -24.486 -12.891  0.00  0.00    -0.005 C 
ATOM     33  C   UNL     1      36.161 -25.113 -12.012  0.00  0.00    -0.003 C 
ATOM     34  C   UNL     1      37.635 -23.284 -12.575  0.00  0.00    -0.003 C 
ATOM     35  C   UNL     1      35.894 -24.519 -10.779  0.00  0.00    -0.000 C 
ATOM     36  C   UNL     1      37.368 -22.689 -11.342  0.00  0.00    -0.000 C 
ATOM     37  C   UNL     1      36.498 -23.306 -10.444  0.00  0.00    -0.000 C 
ENDBRANCH  30  32
ENDBRANCH   2  30
TORSDOF 6
ENDMDL
MODEL 9
REMARK VINA RESULT:      -9.7      4.091     13.728
REMARK  Name = 10297043
REMARK  6 active torsions:
REMARK  status: ('A' for Active; 'I' for Inactive)
REMARK    1  A    between atoms: N_2  and  C_30
REMARK    2  A    between atoms: C_5  and  C_16
REMARK    3  A    between atoms: C_13  and  C_19
REMARK    4  A    between atoms: C_19  and  N_20
REMARK    5  A    between atoms: N_21  and  C_28
REMARK    6  A    between atoms: C_30  and  C_32
REMARK                            x       y       z     vdW  Elec       q    Type
REMARK                         _______ _______ _______ _____ _____    ______ ____
ROOT
ATOM      1  N   UNL     1      32.180 -13.134 -21.613  0.00  0.00    -0.301 N 
ATOM      2  N   UNL     1      33.563  -9.074 -23.451  0.00  0.00    -0.319 N 
ATOM      3  N   UNL     1      30.607 -11.317 -21.420  0.00  0.00    -0.233 NA
ATOM      4  N   UNL     1      31.422  -9.246 -22.408  0.00  0.00    -0.233 NA
ATOM      5  C   UNL     1      33.433 -13.315 -22.140  0.00  0.00    +0.046 C 
ATOM      6  C   UNL     1      32.804 -11.174 -22.480  0.00  0.00    +0.131 C 
ATOM      7  C   UNL     1      33.845 -12.116 -22.684  0.00  0.00    +0.003 C 
ATOM      8  C   UNL     1      31.783 -11.838 -21.811  0.00  0.00    +0.117 C 
ATOM      9  C   UNL     1      32.587  -9.829 -22.776  0.00  0.00    +0.113 C 
ATOM     10  C   UNL     1      30.517 -10.015 -21.761  0.00  0.00    +0.252 C 
ATOM     11  H   UNL     1      31.648 -13.828 -21.162  0.00  0.00    +0.153 HD
ATOM     12  H   UNL     1      34.404  -9.517 -23.709  0.00  0.00    +0.148 HD
ENDROOT
BRANCH   5  16
ATOM     13  C   UNL     1      35.422 -17.034 -21.956  0.00  0.00    -0.043 C 
ATOM     14  C   UNL     1      35.088 -16.493 -23.192  0.00  0.00    -0.006 C 
ATOM     15  C   UNL     1      35.107 -16.365 -20.780  0.00  0.00    -0.006 C 
ATOM     16  C   UNL     1      34.113 -14.585 -22.077  0.00  0.00    +0.013 C 
ATOM     17  C   UNL     1      34.432 -15.264 -23.252  0.00  0.00    +0.001 C 
ATOM     18  C   UNL     1      34.451 -15.135 -20.841  0.00  0.00    +0.001 C 
BRANCH  13  19
ATOM     19  C   UNL     1      36.128 -18.358 -21.891  0.00  0.00    -0.050 C 
BRANCH  19  20
ATOM     20  N   UNL     1      35.705 -19.146 -20.735  0.00  0.00    +0.387 N 
ATOM     21  N   UNL     1      35.104 -21.639 -19.399  0.00  0.00    +0.384 N 
ATOM     22  C   UNL     1      34.480 -19.897 -21.037  0.00  0.00    -0.100 C 
ATOM     23  C   UNL     1      36.773 -20.058 -20.306  0.00  0.00    -0.100 C 
ATOM     24  C   UNL     1      34.036 -20.727 -19.828  0.00  0.00    -0.101 C 
ATOM     25  C   UNL     1      36.328 -20.887 -19.097  0.00  0.00    -0.101 C 
ATOM     26  H   UNL     1      35.506 -18.501 -19.970  0.00  0.00    -0.079 HD
ATOM     27  H   UNL     1      35.304 -22.283 -20.165  0.00  0.00    -0.080 HD
BRANCH  21  28
ATOM     28  C   UNL     1      34.681 -22.429 -18.245  0.00  0.00    -0.078 C 
ATOM     29  C   UNL     1      33.171 -22.402 -18.086  0.00  0.00    -0.025 C 
ENDBRANCH  21  28
ENDBRANCH  19  20
ENDBRANCH  13  19
ENDBRANCH   5  16
BRANCH   2  30
ATOM     30  C   UNL     1      33.392  -7.691 -23.778  0.00  0.00    +0.093 C 
ATOM     31  C   UNL     1      34.745  -7.097 -24.165  0.00  0.00    +0.026 C 
BRANCH  30  32
ATOM     32  C   UNL     1      32.727  -6.958 -22.633  0.00  0.00    -0.005 C 
ATOM     33  C   UNL     1      31.572  -6.235 -22.874  0.00  0.00    -0.003 C 
ATOM     34  C   UNL     1      33.288  -7.026 -21.370  0.00  0.00    -0.003 C 
ATOM     35  C   UNL     1      30.959  -5.559 -21.820  0.00  0.00    -0.000 C 
ATOM     36  C   UNL     1      32.675  -6.351 -20.315  0.00  0.00    -0.000 C 
ATOM     37  C   UNL     1      31.511  -5.617 -20.540  0.00  0.00    -0.000 C 
ENDBRANCH  30  32
ENDBRANCH   2  30
TORSDOF 6
ENDMDL
