MODEL 1
REMARK VINA RESULT:     -12.4      0.000      0.000
REMARK  Name = 24808489
REMARK  4 active torsions:
REMARK  status: ('A' for Active; 'I' for Inactive)
REMARK    1  A    between atoms: N_1  and  C_10
REMARK    2  A    between atoms: N_1  and  C_21
REMARK    3  A    between atoms: C_18  and  C_24
REMARK    4  A    between atoms: C_24  and  N_25
REMARK                            x       y       z     vdW  Elec       q    Type
REMARK                         _______ _______ _______ _____ _____    ______ ____
ROOT
ATOM      1  N   UNL     1      34.501 -22.704 -18.207  0.00  0.00    -0.311 N 
ATOM      2  H   UNL     1      35.152 -23.437 -18.131  0.00  0.00    +0.152 HD
ENDROOT
BRANCH   1  10
ATOM      3 BR   UNL     1      27.880 -22.883 -16.181  0.00  0.00    -0.049 Br
ATOM      4  O   UNL     1      35.644 -23.467 -16.072  0.00  0.00    -0.270 OA
ATOM      5  O   UNL     1      33.267 -24.502 -12.286  0.00  0.00    -0.270 OA
ATOM      6  N   UNL     1      34.418 -23.975 -14.202  0.00  0.00    -0.248 N 
ATOM      7  C   UNL     1      33.257 -23.254 -16.206  0.00  0.00    +0.068 C 
ATOM      8  C   UNL     1      31.974 -23.394 -15.483  0.00  0.00    +0.010 C 
ATOM      9  C   UNL     1      31.984 -23.820 -14.144  0.00  0.00    +0.054 C 
ATOM     10  C   UNL     1      33.369 -22.853 -17.485  0.00  0.00    +0.066 C 
ATOM     11  C   UNL     1      34.551 -23.564 -15.521  0.00  0.00    +0.253 C 
ATOM     12  C   UNL     1      30.727 -23.118 -16.071  0.00  0.00    +0.007 C 
ATOM     13  C   UNL     1      33.257 -24.130 -13.455  0.00  0.00    +0.252 C 
ATOM     14  C   UNL     1      30.787 -23.966 -13.424  0.00  0.00    +0.005 C 
ATOM     15  C   UNL     1      29.536 -23.263 -15.352  0.00  0.00    +0.035 C 
ATOM     16  C   UNL     1      29.567 -23.687 -14.030  0.00  0.00    +0.007 C 
ATOM     17  H   UNL     1      35.259 -24.185 -13.734  0.00  0.00    +0.158 HD
ENDBRANCH   1  10
BRANCH   1  21
ATOM     18  C   UNL     1      35.619 -19.536 -20.724  0.00  0.00    -0.043 C 
ATOM     19  C   UNL     1      36.595 -20.266 -20.046  0.00  0.00    -0.005 C 
ATOM     20  C   UNL     1      34.271 -19.859 -20.566  0.00  0.00    -0.005 C 
ATOM     21  C   UNL     1      34.876 -21.641 -19.051  0.00  0.00    +0.048 C 
ATOM     22  C   UNL     1      36.223 -21.318 -19.209  0.00  0.00    +0.014 C 
ATOM     23  C   UNL     1      33.899 -20.911 -19.729  0.00  0.00    +0.014 C 
BRANCH  18  24
ATOM     24  C   UNL     1      36.016 -18.411 -21.618  0.00  0.00    -0.050 C 
BRANCH  24  25
ATOM     25  N   UNL     1      34.946 -18.014 -22.521  0.00  0.00    +0.390 N 
ATOM     26  C   UNL     1      35.216 -16.738 -23.181  0.00  0.00    -0.077 C 
ATOM     27  C   UNL     1      34.751 -18.971 -23.610  0.00  0.00    -0.077 C 
ATOM     28  C   UNL     1      34.208 -16.722 -24.321  0.00  0.00    -0.025 C 
ATOM     29  C   UNL     1      33.900 -18.190 -24.601  0.00  0.00    -0.025 C 
ATOM     30  H   UNL     1      34.124 -17.958 -21.920  0.00  0.00    -0.079 HD
ENDBRANCH  24  25
ENDBRANCH  18  24
ENDBRANCH   1  21
TORSDOF 4
ENDMDL
MODEL 2
REMARK VINA RESULT:     -11.8      2.550      3.309
REMARK  Name = 24808489
REMARK  4 active torsions:
REMARK  status: ('A' for Active; 'I' for Inactive)
REMARK    1  A    between atoms: N_1  and  C_10
REMARK    2  A    between atoms: N_1  and  C_21
REMARK    3  A    between atoms: C_18  and  C_24
REMARK    4  A    between atoms: C_24  and  N_25
REMARK                            x       y       z     vdW  Elec       q    Type
REMARK                         _______ _______ _______ _____ _____    ______ ____
ROOT
ATOM      1  N   UNL     1      33.745 -22.788 -18.003  0.00  0.00    -0.311 N 
ATOM      2  H   UNL     1      32.926 -23.243 -18.303  0.00  0.00    +0.152 HD
ENDROOT
BRANCH   1  10
ATOM      3 BR   UNL     1      37.885 -24.851 -12.848  0.00  0.00    -0.049 Br
ATOM      4  O   UNL     1      31.517 -22.714 -16.787  0.00  0.00    -0.270 OA
ATOM      5  O   UNL     1      31.142 -23.810 -12.347  0.00  0.00    -0.270 OA
ATOM      6  N   UNL     1      31.374 -23.269 -14.567  0.00  0.00    -0.248 N 
ATOM      7  C   UNL     1      33.536 -23.361 -15.662  0.00  0.00    +0.068 C 
ATOM      8  C   UNL     1      34.137 -23.799 -14.383  0.00  0.00    +0.010 C 
ATOM      9  C   UNL     1      33.314 -23.950 -13.255  0.00  0.00    +0.054 C 
ATOM     10  C   UNL     1      34.225 -23.184 -16.804  0.00  0.00    +0.066 C 
ATOM     11  C   UNL     1      32.069 -23.081 -15.753  0.00  0.00    +0.253 C 
ATOM     12  C   UNL     1      35.508 -24.077 -14.234  0.00  0.00    +0.007 C 
ATOM     13  C   UNL     1      31.862 -23.677 -13.332  0.00  0.00    +0.252 C 
ATOM     14  C   UNL     1      33.847 -24.364 -12.022  0.00  0.00    +0.005 C 
ATOM     15  C   UNL     1      36.036 -24.488 -13.006  0.00  0.00    +0.035 C 
ATOM     16  C   UNL     1      35.207 -24.632 -11.902  0.00  0.00    +0.007 C 
ATOM     17  H   UNL     1      30.406 -23.089 -14.606  0.00  0.00    +0.158 HD
ENDBRANCH   1  10
BRANCH   1  21
ATOM     18  C   UNL     1      35.275 -19.884 -20.619  0.00  0.00    -0.043 C 
ATOM     19  C   UNL     1      36.146 -20.686 -19.881  0.00  0.00    -0.005 C 
ATOM     20  C   UNL     1      33.896 -20.046 -20.488  0.00  0.00    -0.005 C 
ATOM     21  C   UNL     1      34.258 -21.813 -18.880  0.00  0.00    +0.048 C 
ATOM     22  C   UNL     1      35.637 -21.650 -19.011  0.00  0.00    +0.014 C 
ATOM     23  C   UNL     1      33.387 -21.010 -19.618  0.00  0.00    +0.014 C 
BRANCH  18  24
ATOM     24  C   UNL     1      35.819 -18.852 -21.548  0.00  0.00    -0.050 C 
BRANCH  24  25
ATOM     25  N   UNL     1      34.817 -18.362 -22.483  0.00  0.00    +0.390 N 
ATOM     26  C   UNL     1      35.211 -17.104 -23.116  0.00  0.00    -0.077 C 
ATOM     27  C   UNL     1      34.585 -19.289 -23.590  0.00  0.00    -0.077 C 
ATOM     28  C   UNL     1      34.249 -16.996 -24.290  0.00  0.00    -0.025 C 
ATOM     29  C   UNL     1      33.835 -18.432 -24.599  0.00  0.00    -0.025 C 
ATOM     30  H   UNL     1      33.981 -18.246 -21.909  0.00  0.00    -0.079 HD
ENDBRANCH  24  25
ENDBRANCH  18  24
ENDBRANCH   1  21
TORSDOF 4
ENDMDL
MODEL 3
REMARK VINA RESULT:     -11.0      8.968     13.416
REMARK  Name = 24808489
REMARK  4 active torsions:
REMARK  status: ('A' for Active; 'I' for Inactive)
REMARK    1  A    between atoms: N_1  and  C_10
REMARK    2  A    between atoms: N_1  and  C_21
REMARK    3  A    between atoms: C_18  and  C_24
REMARK    4  A    between atoms: C_24  and  N_25
REMARK                            x       y       z     vdW  Elec       q    Type
REMARK                         _______ _______ _______ _____ _____    ______ ____
ROOT
ATOM      1  N   UNL     1      31.657 -11.518 -21.813  0.00  0.00    -0.311 N 
ATOM      2  H   UNL     1      30.844 -11.765 -21.316  0.00  0.00    +0.152 HD
ENDROOT
BRANCH   1  10
ATOM      3 BR   UNL     1      31.884  -5.546 -25.313  0.00  0.00    -0.049 Br
ATOM      4  O   UNL     1      32.051 -10.671 -19.452  0.00  0.00    -0.270 OA
ATOM      5  O   UNL     1      32.673  -6.214 -18.550  0.00  0.00    -0.270 OA
ATOM      6  N   UNL     1      32.357  -8.435 -19.045  0.00  0.00    -0.248 N 
ATOM      7  C   UNL     1      31.984  -9.171 -21.326  0.00  0.00    +0.068 C 
ATOM      8  C   UNL     1      32.086  -7.764 -21.770  0.00  0.00    +0.010 C 
ATOM      9  C   UNL     1      32.321  -6.759 -20.818  0.00  0.00    +0.054 C 
ATOM     10  C   UNL     1      31.762 -10.213 -22.147  0.00  0.00    +0.066 C 
ATOM     11  C   UNL     1      32.128  -9.520 -19.878  0.00  0.00    +0.253 C 
ATOM     12  C   UNL     1      31.959  -7.372 -23.115  0.00  0.00    +0.007 C 
ATOM     13  C   UNL     1      32.467  -7.091 -19.383  0.00  0.00    +0.252 C 
ATOM     14  C   UNL     1      32.424  -5.411 -21.199  0.00  0.00    +0.005 C 
ATOM     15  C   UNL     1      32.061  -6.030 -23.494  0.00  0.00    +0.035 C 
ATOM     16  C   UNL     1      32.294  -5.051 -22.537  0.00  0.00    +0.007 C 
ATOM     17  H   UNL     1      32.454  -8.644 -18.087  0.00  0.00    +0.158 HD
ENDBRANCH   1  10
BRANCH   1  21
ATOM     18  C   UNL     1      34.330 -14.657 -22.604  0.00  0.00    -0.043 C 
ATOM     19  C   UNL     1      33.931 -13.803 -23.633  0.00  0.00    -0.005 C 
ATOM     20  C   UNL     1      33.840 -14.467 -21.312  0.00  0.00    -0.005 C 
ATOM     21  C   UNL     1      32.553 -12.572 -22.078  0.00  0.00    +0.048 C 
ATOM     22  C   UNL     1      33.043 -12.761 -23.370  0.00  0.00    +0.014 C 
ATOM     23  C   UNL     1      32.952 -13.425 -21.049  0.00  0.00    +0.014 C 
BRANCH  18  24
ATOM     24  C   UNL     1      35.279 -15.772 -22.886  0.00  0.00    -0.050 C 
BRANCH  24  25
ATOM     25  N   UNL     1      34.607 -17.058 -22.998  0.00  0.00    +0.390 N 
ATOM     26  C   UNL     1      34.281 -17.399 -24.382  0.00  0.00    -0.077 C 
ATOM     27  C   UNL     1      35.435 -18.164 -22.519  0.00  0.00    -0.077 C 
ATOM     28  C   UNL     1      33.967 -18.886 -24.303  0.00  0.00    -0.025 C 
ATOM     29  C   UNL     1      34.723 -19.388 -23.077  0.00  0.00    -0.025 C 
ATOM     30  H   UNL     1      33.766 -16.947 -22.431  0.00  0.00    -0.079 HD
ENDBRANCH  24  25
ENDBRANCH  18  24
ENDBRANCH   1  21
TORSDOF 4
ENDMDL
MODEL 4
REMARK VINA RESULT:     -10.9      3.512      5.059
REMARK  Name = 24808489
REMARK  4 active torsions:
REMARK  status: ('A' for Active; 'I' for Inactive)
REMARK    1  A    between atoms: N_1  and  C_10
REMARK    2  A    between atoms: N_1  and  C_21
REMARK    3  A    between atoms: C_18  and  C_24
REMARK    4  A    between atoms: C_24  and  N_25
REMARK                            x       y       z     vdW  Elec       q    Type
REMARK                         _______ _______ _______ _____ _____    ______ ____
ROOT
ATOM      1  N   UNL     1      33.948 -23.647 -16.232  0.00  0.00    -0.311 N 
ATOM      2  H   UNL     1      33.096 -23.973 -15.864  0.00  0.00    +0.152 HD
ENDROOT
BRANCH   1  10
ATOM      3 BR   UNL     1      40.375 -25.825 -14.846  0.00  0.00    -0.049 Br
ATOM      4  O   UNL     1      32.925 -23.760 -13.912  0.00  0.00    -0.270 OA
ATOM      5  O   UNL     1      35.339 -25.151 -10.264  0.00  0.00    -0.270 OA
ATOM      6  N   UNL     1      34.167 -24.461 -12.115  0.00  0.00    -0.248 N 
ATOM      7  C   UNL     1      35.212 -24.377 -14.303  0.00  0.00    +0.068 C 
ATOM      8  C   UNL     1      36.468 -24.864 -13.694  0.00  0.00    +0.010 C 
ATOM      9  C   UNL     1      36.505 -25.127 -12.314  0.00  0.00    +0.054 C 
ATOM     10  C   UNL     1      35.060 -24.094 -15.609  0.00  0.00    +0.066 C 
ATOM     11  C   UNL     1      33.994 -24.164 -13.460  0.00  0.00    +0.253 C 
ATOM     12  C   UNL     1      37.645 -25.083 -14.431  0.00  0.00    +0.007 C 
ATOM     13  C   UNL     1      35.308 -24.921 -11.469  0.00  0.00    +0.252 C 
ATOM     14  C   UNL     1      37.680 -25.590 -11.698  0.00  0.00    +0.005 C 
ATOM     15  C   UNL     1      38.814 -25.544 -13.817  0.00  0.00    +0.035 C 
ATOM     16  C   UNL     1      38.831 -25.798 -12.451  0.00  0.00    +0.007 C 
ATOM     17  H   UNL     1      33.376 -24.326 -11.543  0.00  0.00    +0.158 HD
ENDBRANCH   1  10
BRANCH   1  21
ATOM     18  C   UNL     1      33.636 -21.059 -19.522  0.00  0.00    -0.043 C 
ATOM     19  C   UNL     1      32.492 -21.428 -18.814  0.00  0.00    -0.005 C 
ATOM     20  C   UNL     1      34.883 -21.550 -19.137  0.00  0.00    -0.005 C 
ATOM     21  C   UNL     1      33.843 -22.780 -17.336  0.00  0.00    +0.048 C 
ATOM     22  C   UNL     1      32.596 -22.289 -17.721  0.00  0.00    +0.014 C 
ATOM     23  C   UNL     1      34.987 -22.410 -18.044  0.00  0.00    +0.014 C 
BRANCH  18  24
ATOM     24  C   UNL     1      33.524 -20.140 -20.691  0.00  0.00    -0.050 C 
BRANCH  24  25
ATOM     25  N   UNL     1      34.820 -19.818 -21.270  0.00  0.00    +0.390 N 
ATOM     26  C   UNL     1      34.727 -19.469 -22.688  0.00  0.00    -0.077 C 
ATOM     27  C   UNL     1      35.444 -18.659 -20.634  0.00  0.00    -0.077 C 
ATOM     28  C   UNL     1      36.071 -18.813 -22.967  0.00  0.00    -0.025 C 
ATOM     29  C   UNL     1      36.544 -18.283 -21.616  0.00  0.00    -0.025 C 
ATOM     30  H   UNL     1      35.370 -20.666 -21.128  0.00  0.00    -0.079 HD
ENDBRANCH  24  25
ENDBRANCH  18  24
ENDBRANCH   1  21
TORSDOF 4
ENDMDL
MODEL 5
REMARK VINA RESULT:     -10.4      8.089     12.784
REMARK  Name = 24808489
REMARK  4 active torsions:
REMARK  status: ('A' for Active; 'I' for Inactive)
REMARK    1  A    between atoms: N_1  and  C_10
REMARK    2  A    between atoms: N_1  and  C_21
REMARK    3  A    between atoms: C_18  and  C_24
REMARK    4  A    between atoms: C_24  and  N_25
REMARK                            x       y       z     vdW  Elec       q    Type
REMARK                         _______ _______ _______ _____ _____    ______ ____
ROOT
ATOM      1  N   UNL     1      32.326 -12.588 -22.903  0.00  0.00    -0.311 N 
ATOM      2  H   UNL     1      31.364 -12.771 -22.811  0.00  0.00    +0.152 HD
ENDROOT
BRANCH   1  10
ATOM      3 BR   UNL     1      34.684  -6.442 -25.055  0.00  0.00    -0.049 Br
ATOM      4  O   UNL     1      31.492 -11.964 -20.588  0.00  0.00    -0.270 OA
ATOM      5  O   UNL     1      31.822  -7.683 -18.966  0.00  0.00    -0.270 OA
ATOM      6  N   UNL     1      31.676  -9.813 -19.816  0.00  0.00    -0.248 N 
ATOM      7  C   UNL     1      32.493 -10.335 -22.040  0.00  0.00    +0.068 C 
ATOM      8  C   UNL     1      32.893  -8.920 -22.198  0.00  0.00    +0.010 C 
ATOM      9  C   UNL     1      32.661  -8.019 -21.145  0.00  0.00    +0.054 C 
ATOM     10  C   UNL     1      32.666 -11.283 -22.978  0.00  0.00    +0.066 C 
ATOM     11  C   UNL     1      31.846 -10.802 -20.773  0.00  0.00    +0.253 C 
ATOM     12  C   UNL     1      33.503  -8.420 -23.362  0.00  0.00    +0.007 C 
ATOM     13  C   UNL     1      32.024  -8.469 -19.887  0.00  0.00    +0.252 C 
ATOM     14  C   UNL     1      33.027  -6.667 -21.256  0.00  0.00    +0.005 C 
ATOM     15  C   UNL     1      33.866  -7.074 -23.472  0.00  0.00    +0.035 C 
ATOM     16  C   UNL     1      33.629  -6.199 -22.420  0.00  0.00    +0.007 C 
ATOM     17  H   UNL     1      31.251 -10.100 -18.976  0.00  0.00    +0.158 HD
ENDBRANCH   1  10
BRANCH   1  21
ATOM     18  C   UNL     1      34.816 -15.966 -23.010  0.00  0.00    -0.043 C 
ATOM     19  C   UNL     1      34.663 -15.249 -21.823  0.00  0.00    -0.005 C 
ATOM     20  C   UNL     1      34.142 -15.560 -24.162  0.00  0.00    -0.005 C 
ATOM     21  C   UNL     1      33.162 -13.721 -22.940  0.00  0.00    +0.048 C 
ATOM     22  C   UNL     1      33.836 -14.127 -21.788  0.00  0.00    +0.014 C 
ATOM     23  C   UNL     1      33.314 -14.438 -24.127  0.00  0.00    +0.014 C 
BRANCH  18  24
ATOM     24  C   UNL     1      35.700 -17.166 -23.047  0.00  0.00    -0.050 C 
BRANCH  24  25
ATOM     25  N   UNL     1      35.610 -17.960 -21.831  0.00  0.00    +0.390 N 
ATOM     26  C   UNL     1      34.754 -19.135 -21.994  0.00  0.00    -0.077 C 
ATOM     27  C   UNL     1      36.908 -18.490 -21.413  0.00  0.00    -0.077 C 
ATOM     28  C   UNL     1      35.113 -19.988 -20.786  0.00  0.00    -0.025 C 
ATOM     29  C   UNL     1      36.527 -19.562 -20.402  0.00  0.00    -0.025 C 
ATOM     30  H   UNL     1      35.230 -17.312 -21.141  0.00  0.00    -0.079 HD
ENDBRANCH  24  25
ENDBRANCH  18  24
ENDBRANCH   1  21
TORSDOF 4
ENDMDL
MODEL 6
REMARK VINA RESULT:     -10.2      3.243      4.785
REMARK  Name = 24808489
REMARK  4 active torsions:
REMARK  status: ('A' for Active; 'I' for Inactive)
REMARK    1  A    between atoms: N_1  and  C_10
REMARK    2  A    between atoms: N_1  and  C_21
REMARK    3  A    between atoms: C_18  and  C_24
REMARK    4  A    between atoms: C_24  and  N_25
REMARK                            x       y       z     vdW  Elec       q    Type
REMARK                         _______ _______ _______ _____ _____    ______ ____
ROOT
ATOM      1  N   UNL     1      34.925 -20.811 -21.023  0.00  0.00    -0.311 N 
ATOM      2  H   UNL     1      34.571 -21.476 -21.655  0.00  0.00    +0.152 HD
ENDROOT
BRANCH   1  10
ATOM      3 BR   UNL     1      38.585 -22.854 -15.509  0.00  0.00    -0.049 Br
ATOM      4  O   UNL     1      32.574 -21.331 -20.219  0.00  0.00    -0.270 OA
ATOM      5  O   UNL     1      31.773 -23.147 -16.081  0.00  0.00    -0.270 OA
ATOM      6  N   UNL     1      32.218 -22.238 -18.143  0.00  0.00    -0.248 N 
ATOM      7  C   UNL     1      34.492 -21.766 -18.843  0.00  0.00    +0.068 C 
ATOM      8  C   UNL     1      34.972 -22.278 -17.541  0.00  0.00    +0.010 C 
ATOM      9  C   UNL     1      34.039 -22.749 -16.602  0.00  0.00    +0.054 C 
ATOM     10  C   UNL     1      35.292 -21.293 -19.815  0.00  0.00    +0.066 C 
ATOM     11  C   UNL     1      33.029 -21.747 -19.156  0.00  0.00    +0.253 C 
ATOM     12  C   UNL     1      36.333 -22.322 -17.187  0.00  0.00    +0.007 C 
ATOM     13  C   UNL     1      32.589 -22.736 -16.900  0.00  0.00    +0.252 C 
ATOM     14  C   UNL     1      34.455 -23.243 -15.355  0.00  0.00    +0.005 C 
ATOM     15  C   UNL     1      36.745 -22.814 -15.945  0.00  0.00    +0.035 C 
ATOM     16  C   UNL     1      35.808 -23.274 -15.030  0.00  0.00    +0.007 C 
ATOM     17  H   UNL     1      31.251 -22.233 -18.330  0.00  0.00    +0.158 HD
ENDBRANCH   1  10
BRANCH   1  21
ATOM     18  C   UNL     1      35.097 -16.863 -22.441  0.00  0.00    -0.043 C 
ATOM     19  C   UNL     1      35.506 -17.156 -21.140  0.00  0.00    -0.005 C 
ATOM     20  C   UNL     1      34.631 -17.882 -23.271  0.00  0.00    -0.005 C 
ATOM     21  C   UNL     1      34.982 -19.486 -21.498  0.00  0.00    +0.048 C 
ATOM     22  C   UNL     1      35.448 -18.467 -20.669  0.00  0.00    +0.014 C 
ATOM     23  C   UNL     1      34.573 -19.194 -22.800  0.00  0.00    +0.014 C 
BRANCH  18  24
ATOM     24  C   UNL     1      35.158 -15.461 -22.944  0.00  0.00    -0.050 C 
BRANCH  24  25
ATOM     25  N   UNL     1      33.961 -14.701 -22.617  0.00  0.00    +0.390 N 
ATOM     26  C   UNL     1      33.921 -14.299 -21.211  0.00  0.00    -0.077 C 
ATOM     27  C   UNL     1      33.868 -13.452 -23.372  0.00  0.00    -0.077 C 
ATOM     28  C   UNL     1      32.840 -13.229 -21.193  0.00  0.00    -0.025 C 
ATOM     29  C   UNL     1      32.803 -12.675 -22.614  0.00  0.00    -0.025 C 
ATOM     30  H   UNL     1      33.196 -15.336 -22.847  0.00  0.00    -0.079 HD
ENDBRANCH  24  25
ENDBRANCH  18  24
ENDBRANCH   1  21
TORSDOF 4
ENDMDL
MODEL 7
REMARK VINA RESULT:     -10.1      4.259      9.853
REMARK  Name = 24808489
REMARK  4 active torsions:
REMARK  status: ('A' for Active; 'I' for Inactive)
REMARK    1  A    between atoms: N_1  and  C_10
REMARK    2  A    between atoms: N_1  and  C_21
REMARK    3  A    between atoms: C_18  and  C_24
REMARK    4  A    between atoms: C_24  and  N_25
REMARK                            x       y       z     vdW  Elec       q    Type
REMARK                         _______ _______ _______ _____ _____    ______ ____
ROOT
ATOM      1  N   UNL     1      35.959 -18.329 -20.838  0.00  0.00    -0.311 N 
ATOM      2  H   UNL     1      36.867 -18.358 -21.215  0.00  0.00    +0.152 HD
ENDROOT
BRANCH   1  10
ATOM      3 BR   UNL     1      32.725 -12.315 -19.678  0.00  0.00    -0.049 Br
ATOM      4  O   UNL     1      35.836 -18.423 -23.372  0.00  0.00    -0.270 OA
ATOM      5  O   UNL     1      33.830 -15.104 -25.827  0.00  0.00    -0.270 OA
ATOM      6  N   UNL     1      34.825 -16.743 -24.561  0.00  0.00    -0.248 N 
ATOM      7  C   UNL     1      34.906 -16.584 -22.141  0.00  0.00    +0.068 C 
ATOM      8  C   UNL     1      34.188 -15.293 -22.227  0.00  0.00    +0.010 C 
ATOM      9  C   UNL     1      33.824 -14.793 -23.489  0.00  0.00    +0.054 C 
ATOM     10  C   UNL     1      35.302 -17.158 -20.992  0.00  0.00    +0.066 C 
ATOM     11  C   UNL     1      35.241 -17.348 -23.384  0.00  0.00    +0.253 C 
ATOM     12  C   UNL     1      33.845 -14.528 -21.098  0.00  0.00    +0.007 C 
ATOM     13  C   UNL     1      34.149 -15.540 -24.725  0.00  0.00    +0.252 C 
ATOM     14  C   UNL     1      33.142 -13.571 -23.612  0.00  0.00    +0.005 C 
ATOM     15  C   UNL     1      33.167 -13.312 -21.223  0.00  0.00    +0.035 C 
ATOM     16  C   UNL     1      32.815 -12.834 -22.478  0.00  0.00    +0.007 C 
ATOM     17  H   UNL     1      35.038 -17.230 -25.390  0.00  0.00    +0.158 HD
ENDBRANCH   1  10
BRANCH   1  21
ATOM     18  C   UNL     1      34.648 -21.854 -18.974  0.00  0.00    -0.043 C 
ATOM     19  C   UNL     1      36.000 -21.512 -18.948  0.00  0.00    -0.005 C 
ATOM     20  C   UNL     1      33.731 -21.025 -19.620  0.00  0.00    -0.005 C 
ATOM     21  C   UNL     1      35.519 -19.512 -20.214  0.00  0.00    +0.048 C 
ATOM     22  C   UNL     1      36.435 -20.341 -19.568  0.00  0.00    +0.014 C 
ATOM     23  C   UNL     1      34.166 -19.853 -20.240  0.00  0.00    +0.014 C 
BRANCH  18  24
ATOM     24  C   UNL     1      34.183 -23.106 -18.312  0.00  0.00    -0.050 C 
BRANCH  24  25
ATOM     25  N   UNL     1      33.661 -22.867 -16.975  0.00  0.00    +0.390 N 
ATOM     26  C   UNL     1      32.236 -23.176 -16.868  0.00  0.00    -0.077 C 
ATOM     27  C   UNL     1      34.308 -23.703 -15.965  0.00  0.00    -0.077 C 
ATOM     28  C   UNL     1      32.011 -23.235 -15.364  0.00  0.00    -0.025 C 
ATOM     29  C   UNL     1      33.374 -23.578 -14.770  0.00  0.00    -0.025 C 
ATOM     30  H   UNL     1      33.843 -21.876 -16.813  0.00  0.00    -0.079 HD
ENDBRANCH  24  25
ENDBRANCH  18  24
ENDBRANCH   1  21
TORSDOF 4
ENDMDL
MODEL 8
REMARK VINA RESULT:     -10.0      2.172      3.639
REMARK  Name = 24808489
REMARK  4 active torsions:
REMARK  status: ('A' for Active; 'I' for Inactive)
REMARK    1  A    between atoms: N_1  and  C_10
REMARK    2  A    between atoms: N_1  and  C_21
REMARK    3  A    between atoms: C_18  and  C_24
REMARK    4  A    between atoms: C_24  and  N_25
REMARK                            x       y       z     vdW  Elec       q    Type
REMARK                         _______ _______ _______ _____ _____    ______ ____
ROOT
ATOM      1  N   UNL     1      35.032 -21.054 -20.728  0.00  0.00    -0.311 N 
ATOM      2  H   UNL     1      35.569 -21.721 -21.214  0.00  0.00    +0.152 HD
ENDROOT
BRANCH   1  10
ATOM      3 BR   UNL     1      30.103 -23.135 -16.331  0.00  0.00    -0.049 Br
ATOM      4  O   UNL     1      37.095 -21.407 -19.291  0.00  0.00    -0.270 OA
ATOM      5  O   UNL     1      36.814 -23.023 -15.004  0.00  0.00    -0.270 OA
ATOM      6  N   UNL     1      36.910 -22.217 -17.153  0.00  0.00    -0.248 N 
ATOM      7  C   UNL     1      34.895 -21.908 -18.469  0.00  0.00    +0.068 C 
ATOM      8  C   UNL     1      34.101 -22.406 -17.324  0.00  0.00    +0.010 C 
ATOM      9  C   UNL     1      34.762 -22.785 -16.144  0.00  0.00    +0.054 C 
ATOM     10  C   UNL     1      34.372 -21.517 -19.644  0.00  0.00    +0.066 C 
ATOM     11  C   UNL     1      36.386 -21.811 -18.372  0.00  0.00    +0.253 C 
ATOM     12  C   UNL     1      32.700 -22.520 -17.354  0.00  0.00    +0.007 C 
ATOM     13  C   UNL     1      36.236 -22.693 -16.035  0.00  0.00    +0.252 C 
ATOM     14  C   UNL     1      34.044 -23.263 -15.035  0.00  0.00    +0.005 C 
ATOM     15  C   UNL     1      31.987 -22.996 -16.249  0.00  0.00    +0.035 C 
ATOM     16  C   UNL     1      32.658 -23.367 -15.091  0.00  0.00    +0.007 C 
ATOM     17  H   UNL     1      37.890 -22.162 -17.070  0.00  0.00    +0.158 HD
ENDBRANCH   1  10
BRANCH   1  21
ATOM     18  C   UNL     1      35.103 -17.163 -22.301  0.00  0.00    -0.043 C 
ATOM     19  C   UNL     1      34.658 -18.226 -23.088  0.00  0.00    -0.005 C 
ATOM     20  C   UNL     1      35.526 -17.394 -20.992  0.00  0.00    -0.005 C 
ATOM     21  C   UNL     1      35.057 -19.749 -21.256  0.00  0.00    +0.048 C 
ATOM     22  C   UNL     1      34.635 -19.518 -22.565  0.00  0.00    +0.014 C 
ATOM     23  C   UNL     1      35.503 -18.686 -20.469  0.00  0.00    +0.014 C 
BRANCH  18  24
ATOM     24  C   UNL     1      35.129 -15.781 -22.861  0.00  0.00    -0.050 C 
BRANCH  24  25
ATOM     25  N   UNL     1      33.956 -15.007 -22.482  0.00  0.00    +0.390 N 
ATOM     26  C   UNL     1      34.123 -14.334 -21.194  0.00  0.00    -0.077 C 
ATOM     27  C   UNL     1      33.661 -13.937 -23.434  0.00  0.00    -0.077 C 
ATOM     28  C   UNL     1      32.994 -13.314 -21.192  0.00  0.00    -0.025 C 
ATOM     29  C   UNL     1      32.689 -13.056 -22.664  0.00  0.00    -0.025 C 
ATOM     30  H   UNL     1      33.205 -15.697 -22.449  0.00  0.00    -0.079 HD
ENDBRANCH  24  25
ENDBRANCH  18  24
ENDBRANCH   1  21
TORSDOF 4
ENDMDL
MODEL 9
REMARK VINA RESULT:      -9.8     11.915     17.102
REMARK  Name = 24808489
REMARK  4 active torsions:
REMARK  status: ('A' for Active; 'I' for Inactive)
REMARK    1  A    between atoms: N_1  and  C_10
REMARK    2  A    between atoms: N_1  and  C_21
REMARK    3  A    between atoms: C_18  and  C_24
REMARK    4  A    between atoms: C_24  and  N_25
REMARK                            x       y       z     vdW  Elec       q    Type
REMARK                         _______ _______ _______ _____ _____    ______ ____
ROOT
ATOM      1  N   UNL     1      33.996  -7.284 -23.023  0.00  0.00    -0.311 N 
ATOM      2  H   UNL     1      34.497  -7.042 -22.212  0.00  0.00    +0.152 HD
ENDROOT
BRANCH   1  10
ATOM      3 BR   UNL     1      32.833  -2.857 -28.221  0.00  0.00    -0.049 Br
ATOM      4  O   UNL     1      32.628  -6.189 -21.186  0.00  0.00    -0.270 OA
ATOM      5  O   UNL     1      30.285  -2.307 -21.895  0.00  0.00    -0.270 OA
ATOM      6  N   UNL     1      31.472  -4.249 -21.583  0.00  0.00    -0.248 N 
ATOM      7  C   UNL     1      32.756  -5.239 -23.387  0.00  0.00    +0.068 C 
ATOM      8  C   UNL     1      32.322  -4.134 -24.269  0.00  0.00    +0.010 C 
ATOM      9  C   UNL     1      31.478  -3.135 -23.753  0.00  0.00    +0.054 C 
ATOM     10  C   UNL     1      33.561  -6.246 -23.770  0.00  0.00    +0.066 C 
ATOM     11  C   UNL     1      32.300  -5.295 -21.962  0.00  0.00    +0.253 C 
ATOM     12  C   UNL     1      32.715  -4.026 -25.615  0.00  0.00    +0.007 C 
ATOM     13  C   UNL     1      31.022  -3.179 -22.346  0.00  0.00    +0.252 C 
ATOM     14  C   UNL     1      31.044  -2.069 -24.559  0.00  0.00    +0.005 C 
ATOM     15  C   UNL     1      32.282  -2.964 -26.415  0.00  0.00    +0.035 C 
ATOM     16  C   UNL     1      31.447  -1.987 -25.888  0.00  0.00    +0.007 C 
ATOM     17  H   UNL     1      31.160  -4.268 -20.649  0.00  0.00    +0.158 HD
ENDBRANCH   1  10
BRANCH   1  21
ATOM     18  C   UNL     1      33.502 -11.398 -23.693  0.00  0.00    -0.043 C 
ATOM     19  C   UNL     1      34.566 -10.717 -24.286  0.00  0.00    -0.005 C 
ATOM     20  C   UNL     1      32.603 -10.712 -22.878  0.00  0.00    -0.005 C 
ATOM     21  C   UNL     1      33.830  -8.664 -23.248  0.00  0.00    +0.048 C 
ATOM     22  C   UNL     1      34.729  -9.350 -24.063  0.00  0.00    +0.014 C 
ATOM     23  C   UNL     1      32.766  -9.345 -22.655  0.00  0.00    +0.014 C 
BRANCH  18  24
ATOM     24  C   UNL     1      33.328 -12.860 -23.932  0.00  0.00    -0.050 C 
BRANCH  24  25
ATOM     25  N   UNL     1      34.196 -13.668 -23.089  0.00  0.00    +0.390 N 
ATOM     26  C   UNL     1      33.692 -13.787 -21.720  0.00  0.00    -0.077 C 
ATOM     27  C   UNL     1      34.318 -15.044 -23.569  0.00  0.00    -0.077 C 
ATOM     28  C   UNL     1      34.503 -14.945 -21.158  0.00  0.00    -0.025 C 
ATOM     29  C   UNL     1      34.917 -15.769 -22.374  0.00  0.00    -0.025 C 
ATOM     30  H   UNL     1      35.091 -13.179 -23.117  0.00  0.00    -0.079 HD
ENDBRANCH  24  25
ENDBRANCH  18  24
ENDBRANCH   1  21
TORSDOF 4
ENDMDL
