MODEL 1
REMARK VINA RESULT:     -11.4      0.000      0.000
REMARK  Name = 54689025
REMARK  9 active torsions:
REMARK  status: ('A' for Active; 'I' for Inactive)
REMARK    1  A    between atoms: C_1  and  C_21
REMARK    2  A    between atoms: C_4  and  N_8
REMARK    3  A    between atoms: C_9  and  C_11
REMARK    4  A    between atoms: C_11  and  N_13
REMARK    5  A    between atoms: C_14  and  O_16
REMARK    6  A    between atoms: O_16  and  C_17
REMARK    7  A    between atoms: C_21  and  C_24
REMARK    8  A    between atoms: C_21  and  C_35
REMARK    9  A    between atoms: C_25  and  O_33
REMARK                            x       y       z     vdW  Elec       q    Type
REMARK                         _______ _______ _______ _____ _____    ______ ____
ROOT
ATOM      1  C   UNL     1      35.029 -16.826 -21.959  0.00  0.00    -0.017 C 
ATOM      2  C   UNL     1      34.885 -15.780 -22.870  0.00  0.00    +0.011 C 
ATOM      3  C   UNL     1      34.858 -16.592 -20.595  0.00  0.00    -0.004 C 
ATOM      4  C   UNL     1      34.569 -14.499 -22.417  0.00  0.00    +0.050 C 
ATOM      5  C   UNL     1      34.543 -15.311 -20.141  0.00  0.00    +0.001 C 
ATOM      6  C   UNL     1      34.397 -14.265 -21.052  0.00  0.00    +0.015 C 
ENDROOT
BRANCH   4   8
ATOM      7  O   UNL     1      32.574 -12.254 -22.502  0.00  0.00    -0.273 OA
ATOM      8  N   UNL     1      34.425 -13.451 -23.327  0.00  0.00    -0.283 N 
ATOM      9  C   UNL     1      33.470 -12.422 -23.323  0.00  0.00    +0.246 C 
ATOM     10  H   UNL     1      35.076 -13.431 -24.065  0.00  0.00    +0.155 HD
BRANCH   9  11
ATOM     11  C   UNL     1      33.675 -11.487 -24.501  0.00  0.00    +0.179 C 
BRANCH  11  13
ATOM     12  O   UNL     1      34.880  -9.113 -23.339  0.00  0.00    -0.226 OA
ATOM     13  N   UNL     1      33.053 -10.220 -24.248  0.00  0.00    -0.262 N 
ATOM     14  C   UNL     1      33.704  -9.133 -23.687  0.00  0.00    +0.402 C 
ATOM     15  H   UNL     1      32.104 -10.116 -24.487  0.00  0.00    +0.153 HD
BRANCH  14  16
ATOM     16  O   UNL     1      32.843  -8.078 -23.576  0.00  0.00    -0.442 OA
BRANCH  16  17
ATOM     17  C   UNL     1      32.428  -7.750 -22.245  0.00  0.00    +0.138 C 
ATOM     18  C   UNL     1      32.062  -9.042 -21.517  0.00  0.00    +0.044 C 
ATOM     19  C   UNL     1      31.212  -6.832 -22.357  0.00  0.00    +0.044 C 
ATOM     20  C   UNL     1      33.579  -7.034 -21.540  0.00  0.00    +0.044 C 
ENDBRANCH  16  17
ENDBRANCH  14  16
ENDBRANCH  11  13
ENDBRANCH   9  11
ENDBRANCH   4   8
BRANCH   1  21
ATOM     21  C   UNL     1      35.373 -18.220 -22.453  0.00  0.00    +0.054 C 
BRANCH  21  24
ATOM     22  O   UNL     1      36.880 -20.273 -19.652  0.00  0.00    -0.421 OA
ATOM     23  O   UNL     1      37.742 -18.756 -21.111  0.00  0.00    -0.245 OA
ATOM     24  C   UNL     1      35.412 -19.200 -21.312  0.00  0.00    +0.091 A 
ATOM     25  C   UNL     1      34.359 -19.892 -20.836  0.00  0.00    +0.139 A 
ATOM     26  C   UNL     1      36.764 -19.376 -20.705  0.00  0.00    +0.345 A 
ATOM     27  C   UNL     1      34.516 -20.831 -19.723  0.00  0.00    +0.068 A 
ATOM     28  C   UNL     1      35.778 -20.994 -19.162  0.00  0.00    +0.152 A 
ATOM     29  C   UNL     1      33.459 -21.580 -19.188  0.00  0.00    +0.006 C 
ATOM     30  C   UNL     1      36.013 -21.869 -18.100  0.00  0.00    +0.038 C 
ATOM     31  C   UNL     1      33.678 -22.461 -18.122  0.00  0.00    +0.000 C 
ATOM     32  C   UNL     1      34.954 -22.606 -17.581  0.00  0.00    +0.003 C 
BRANCH  25  33
ATOM     33  O   UNL     1      33.073 -19.793 -21.324  0.00  0.00    -0.506 OA
ATOM     34  H   UNL     1      32.344 -19.843 -20.737  0.00  0.00    +0.292 HD
ENDBRANCH  25  33
ENDBRANCH  21  24
BRANCH  21  35
ATOM     35  C   UNL     1      34.427 -18.737 -23.557  0.00  0.00    +0.009 C 
ATOM     36  C   UNL     1      34.974 -19.962 -24.282  0.00  0.00    +0.001 C 
ENDBRANCH  21  35
ENDBRANCH   1  21
TORSDOF 9
ENDMDL
MODEL 2
REMARK VINA RESULT:     -10.9      4.788     11.709
REMARK  Name = 54689025
REMARK  9 active torsions:
REMARK  status: ('A' for Active; 'I' for Inactive)
REMARK    1  A    between atoms: C_1  and  C_21
REMARK    2  A    between atoms: C_4  and  N_8
REMARK    3  A    between atoms: C_9  and  C_11
REMARK    4  A    between atoms: C_11  and  N_13
REMARK    5  A    between atoms: C_14  and  O_16
REMARK    6  A    between atoms: O_16  and  C_17
REMARK    7  A    between atoms: C_21  and  C_24
REMARK    8  A    between atoms: C_21  and  C_35
REMARK    9  A    between atoms: C_25  and  O_33
REMARK                            x       y       z     vdW  Elec       q    Type
REMARK                         _______ _______ _______ _____ _____    ______ ____
ROOT
ATOM      1  C   UNL     1      34.802 -20.293 -20.451  0.00  0.00    -0.017 C 
ATOM      2  C   UNL     1      35.178 -21.060 -19.350  0.00  0.00    +0.011 C 
ATOM      3  C   UNL     1      33.451 -20.112 -20.748  0.00  0.00    -0.004 C 
ATOM      4  C   UNL     1      34.202 -21.647 -18.543  0.00  0.00    +0.050 C 
ATOM      5  C   UNL     1      32.476 -20.700 -19.943  0.00  0.00    +0.001 C 
ATOM      6  C   UNL     1      32.851 -21.466 -18.840  0.00  0.00    +0.015 C 
ENDROOT
BRANCH   4   8
ATOM      7  O   UNL     1      36.764 -21.680 -16.973  0.00  0.00    -0.273 OA
ATOM      8  N   UNL     1      34.578 -22.416 -17.440  0.00  0.00    -0.283 N 
ATOM      9  C   UNL     1      35.794 -22.394 -16.739  0.00  0.00    +0.246 C 
ATOM     10  H   UNL     1      33.903 -23.053 -17.112  0.00  0.00    +0.155 HD
BRANCH   9  11
ATOM     11  C   UNL     1      35.781 -23.396 -15.599  0.00  0.00    +0.179 C 
BRANCH  11  13
ATOM     12  O   UNL     1      37.511 -23.082 -13.286  0.00  0.00    -0.226 OA
ATOM     13  N   UNL     1      37.092 -23.943 -15.401  0.00  0.00    -0.262 N 
ATOM     14  C   UNL     1      37.853 -23.744 -14.261  0.00  0.00    +0.402 C 
ATOM     15  H   UNL     1      37.474 -24.496 -16.120  0.00  0.00    +0.153 HD
BRANCH  14  16
ATOM     16  O   UNL     1      39.049 -24.394 -14.377  0.00  0.00    -0.442 OA
BRANCH  16  17
ATOM     17  C   UNL     1      39.098 -25.714 -13.823  0.00  0.00    +0.138 C 
ATOM     18  C   UNL     1      38.578 -25.658 -12.387  0.00  0.00    +0.044 C 
ATOM     19  C   UNL     1      40.556 -26.170 -13.849  0.00  0.00    +0.044 C 
ATOM     20  C   UNL     1      38.231 -26.634 -14.681  0.00  0.00    +0.044 C 
ENDBRANCH  16  17
ENDBRANCH  14  16
ENDBRANCH  11  13
ENDBRANCH   9  11
ENDBRANCH   4   8
BRANCH   1  21
ATOM     21  C   UNL     1      35.864 -19.654 -21.329  0.00  0.00    +0.054 C 
BRANCH  21  24
ATOM     22  O   UNL     1      34.451 -17.547 -24.139  0.00  0.00    -0.421 OA
ATOM     23  O   UNL     1      35.056 -19.735 -23.983  0.00  0.00    -0.245 OA
ATOM     24  C   UNL     1      35.328 -18.425 -22.013  0.00  0.00    +0.091 A 
ATOM     25  C   UNL     1      35.185 -17.212 -21.447  0.00  0.00    +0.139 A 
ATOM     26  C   UNL     1      34.945 -18.640 -23.439  0.00  0.00    +0.345 A 
ATOM     27  C   UNL     1      34.661 -16.080 -22.214  0.00  0.00    +0.068 A 
ATOM     28  C   UNL     1      34.308 -16.283 -23.544  0.00  0.00    +0.152 A 
ATOM     29  C   UNL     1      34.493 -14.794 -21.681  0.00  0.00    +0.006 C 
ATOM     30  C   UNL     1      33.801 -15.258 -24.345  0.00  0.00    +0.038 C 
ATOM     31  C   UNL     1      33.986 -13.756 -22.470  0.00  0.00    +0.000 C 
ATOM     32  C   UNL     1      33.642 -13.988 -23.801  0.00  0.00    +0.003 C 
BRANCH  25  33
ATOM     33  O   UNL     1      35.503 -16.916 -20.138  0.00  0.00    -0.506 OA
ATOM     34  H   UNL     1      36.362 -17.100 -19.811  0.00  0.00    +0.292 HD
ENDBRANCH  25  33
ENDBRANCH  21  24
BRANCH  21  35
ATOM     35  C   UNL     1      37.165 -19.309 -20.575  0.00  0.00    +0.009 C 
ATOM     36  C   UNL     1      38.193 -18.605 -21.455  0.00  0.00    +0.001 C 
ENDBRANCH  21  35
ENDBRANCH   1  21
TORSDOF 9
ENDMDL
MODEL 3
REMARK VINA RESULT:     -10.6      4.827     11.398
REMARK  Name = 54689025
REMARK  9 active torsions:
REMARK  status: ('A' for Active; 'I' for Inactive)
REMARK    1  A    between atoms: C_1  and  C_21
REMARK    2  A    between atoms: C_4  and  N_8
REMARK    3  A    between atoms: C_9  and  C_11
REMARK    4  A    between atoms: C_11  and  N_13
REMARK    5  A    between atoms: C_14  and  O_16
REMARK    6  A    between atoms: O_16  and  C_17
REMARK    7  A    between atoms: C_21  and  C_24
REMARK    8  A    between atoms: C_21  and  C_35
REMARK    9  A    between atoms: C_25  and  O_33
REMARK                            x       y       z     vdW  Elec       q    Type
REMARK                         _______ _______ _______ _____ _____    ______ ____
ROOT
ATOM      1  C   UNL     1      34.734 -20.286 -20.464  0.00  0.00    -0.017 C 
ATOM      2  C   UNL     1      35.074 -21.226 -19.491  0.00  0.00    +0.011 C 
ATOM      3  C   UNL     1      33.398 -19.937 -20.659  0.00  0.00    -0.004 C 
ATOM      4  C   UNL     1      34.078 -21.815 -18.712  0.00  0.00    +0.050 C 
ATOM      5  C   UNL     1      32.402 -20.527 -19.882  0.00  0.00    +0.001 C 
ATOM      6  C   UNL     1      32.742 -21.466 -18.908  0.00  0.00    +0.015 C 
ENDROOT
BRANCH   4   8
ATOM      7  O   UNL     1      32.524 -22.813 -16.343  0.00  0.00    -0.273 OA
ATOM      8  N   UNL     1      34.418 -22.756 -17.739  0.00  0.00    -0.283 N 
ATOM      9  C   UNL     1      33.652 -23.190 -16.645  0.00  0.00    +0.246 C 
ATOM     10  H   UNL     1      35.307 -23.169 -17.832  0.00  0.00    +0.155 HD
BRANCH   9  11
ATOM     11  C   UNL     1      34.403 -24.230 -15.834  0.00  0.00    +0.179 C 
BRANCH  11  13
ATOM     12  O   UNL     1      37.091 -24.934 -14.988  0.00  0.00    -0.226 OA
ATOM     13  N   UNL     1      35.200 -23.597 -14.825  0.00  0.00    -0.262 N 
ATOM     14  C   UNL     1      36.481 -23.998 -14.481  0.00  0.00    +0.402 C 
ATOM     15  H   UNL     1      34.813 -22.829 -14.346  0.00  0.00    +0.153 HD
BRANCH  14  16
ATOM     16  O   UNL     1      36.972 -23.197 -13.489  0.00  0.00    -0.442 OA
BRANCH  16  17
ATOM     17  C   UNL     1      37.125 -23.816 -12.206  0.00  0.00    +0.138 C 
ATOM     18  C   UNL     1      37.499 -22.739 -11.188  0.00  0.00    +0.044 C 
ATOM     19  C   UNL     1      38.240 -24.853 -12.327  0.00  0.00    +0.044 C 
ATOM     20  C   UNL     1      35.805 -24.487 -11.830  0.00  0.00    +0.044 C 
ENDBRANCH  16  17
ENDBRANCH  14  16
ENDBRANCH  11  13
ENDBRANCH   9  11
ENDBRANCH   4   8
BRANCH   1  21
ATOM     21  C   UNL     1      35.819 -19.644 -21.311  0.00  0.00    +0.054 C 
BRANCH  21  24
ATOM     22  O   UNL     1      34.439 -17.555 -24.150  0.00  0.00    -0.421 OA
ATOM     23  O   UNL     1      35.019 -19.746 -23.966  0.00  0.00    -0.245 OA
ATOM     24  C   UNL     1      35.299 -18.418 -22.011  0.00  0.00    +0.091 A 
ATOM     25  C   UNL     1      35.167 -17.197 -21.458  0.00  0.00    +0.139 A 
ATOM     26  C   UNL     1      34.918 -18.645 -23.435  0.00  0.00    +0.345 A 
ATOM     27  C   UNL     1      34.658 -16.068 -22.240  0.00  0.00    +0.068 A 
ATOM     28  C   UNL     1      34.307 -16.282 -23.569  0.00  0.00    +0.152 A 
ATOM     29  C   UNL     1      34.503 -14.775 -21.722  0.00  0.00    +0.006 C 
ATOM     30  C   UNL     1      33.815 -15.261 -24.384  0.00  0.00    +0.038 C 
ATOM     31  C   UNL     1      34.009 -13.740 -22.525  0.00  0.00    +0.000 C 
ATOM     32  C   UNL     1      33.668 -13.983 -23.854  0.00  0.00    +0.003 C 
BRANCH  25  33
ATOM     33  O   UNL     1      35.484 -16.890 -20.152  0.00  0.00    -0.506 OA
ATOM     34  H   UNL     1      35.654 -16.002 -19.906  0.00  0.00    +0.292 HD
ENDBRANCH  25  33
ENDBRANCH  21  24
BRANCH  21  35
ATOM     35  C   UNL     1      37.097 -19.296 -20.520  0.00  0.00    +0.009 C 
ATOM     36  C   UNL     1      38.156 -18.609 -21.376  0.00  0.00    +0.001 C 
ENDBRANCH  21  35
ENDBRANCH   1  21
TORSDOF 9
ENDMDL
MODEL 4
REMARK VINA RESULT:     -10.5      4.703     10.880
REMARK  Name = 54689025
REMARK  9 active torsions:
REMARK  status: ('A' for Active; 'I' for Inactive)
REMARK    1  A    between atoms: C_1  and  C_21
REMARK    2  A    between atoms: C_4  and  N_8
REMARK    3  A    between atoms: C_9  and  C_11
REMARK    4  A    between atoms: C_11  and  N_13
REMARK    5  A    between atoms: C_14  and  O_16
REMARK    6  A    between atoms: O_16  and  C_17
REMARK    7  A    between atoms: C_21  and  C_24
REMARK    8  A    between atoms: C_21  and  C_35
REMARK    9  A    between atoms: C_25  and  O_33
REMARK                            x       y       z     vdW  Elec       q    Type
REMARK                         _______ _______ _______ _____ _____    ______ ____
ROOT
ATOM      1  C   UNL     1      34.907 -20.207 -20.626  0.00  0.00    -0.017 C 
ATOM      2  C   UNL     1      35.336 -20.910 -19.501  0.00  0.00    +0.011 C 
ATOM      3  C   UNL     1      33.547 -20.143 -20.931  0.00  0.00    -0.004 C 
ATOM      4  C   UNL     1      34.407 -21.548 -18.680  0.00  0.00    +0.050 C 
ATOM      5  C   UNL     1      32.617 -20.783 -20.111  0.00  0.00    +0.001 C 
ATOM      6  C   UNL     1      33.047 -21.485 -18.985  0.00  0.00    +0.015 C 
ENDROOT
BRANCH   4   8
ATOM      7  O   UNL     1      37.040 -21.489 -17.233  0.00  0.00    -0.273 OA
ATOM      8  N   UNL     1      34.837 -22.252 -17.554  0.00  0.00    -0.283 N 
ATOM      9  C   UNL     1      36.084 -22.189 -16.913  0.00  0.00    +0.246 C 
ATOM     10  H   UNL     1      34.181 -22.871 -17.158  0.00  0.00    +0.155 HD
BRANCH   9  11
ATOM     11  C   UNL     1      36.129 -23.124 -15.718  0.00  0.00    +0.179 C 
BRANCH  11  13
ATOM     12  O   UNL     1      34.537 -25.192 -14.443  0.00  0.00    -0.226 OA
ATOM     13  N   UNL     1      34.958 -22.957 -14.908  0.00  0.00    -0.262 N 
ATOM     14  C   UNL     1      34.254 -24.003 -14.335  0.00  0.00    +0.402 C 
ATOM     15  H   UNL     1      34.633 -22.041 -14.750  0.00  0.00    +0.153 HD
BRANCH  14  16
ATOM     16  O   UNL     1      33.191 -23.519 -13.625  0.00  0.00    -0.442 OA
BRANCH  16  17
ATOM     17  C   UNL     1      31.907 -23.679 -14.238  0.00  0.00    +0.138 C 
ATOM     18  C   UNL     1      30.974 -22.594 -13.704  0.00  0.00    +0.044 C 
ATOM     19  C   UNL     1      31.389 -25.067 -13.863  0.00  0.00    +0.044 C 
ATOM     20  C   UNL     1      32.073 -23.559 -15.752  0.00  0.00    +0.044 C 
ENDBRANCH  16  17
ENDBRANCH  14  16
ENDBRANCH  11  13
ENDBRANCH   9  11
ENDBRANCH   4   8
BRANCH   1  21
ATOM     21  C   UNL     1      35.918 -19.512 -21.518  0.00  0.00    +0.054 C 
BRANCH  21  24
ATOM     22  O   UNL     1      34.336 -17.384 -24.221  0.00  0.00    -0.421 OA
ATOM     23  O   UNL     1      35.007 -19.556 -24.139  0.00  0.00    -0.245 OA
ATOM     24  C   UNL     1      35.322 -18.284 -22.152  0.00  0.00    +0.091 A 
ATOM     25  C   UNL     1      35.170 -17.088 -21.553  0.00  0.00    +0.139 A 
ATOM     26  C   UNL     1      34.888 -18.478 -23.566  0.00  0.00    +0.345 A 
ATOM     27  C   UNL     1      34.584 -15.955 -22.272  0.00  0.00    +0.068 A 
ATOM     28  C   UNL     1      34.183 -16.137 -23.591  0.00  0.00    +0.152 A 
ATOM     29  C   UNL     1      34.403 -14.686 -21.703  0.00  0.00    +0.006 C 
ATOM     30  C   UNL     1      33.617 -15.110 -24.347  0.00  0.00    +0.038 C 
ATOM     31  C   UNL     1      33.836 -13.645 -22.447  0.00  0.00    +0.000 C 
ATOM     32  C   UNL     1      33.445 -13.857 -23.767  0.00  0.00    +0.003 C 
BRANCH  25  33
ATOM     33  O   UNL     1      35.532 -16.813 -20.251  0.00  0.00    -0.506 OA
ATOM     34  H   UNL     1      35.370 -15.965 -19.888  0.00  0.00    +0.292 HD
ENDBRANCH  25  33
ENDBRANCH  21  24
BRANCH  21  35
ATOM     35  C   UNL     1      37.232 -19.145 -20.798  0.00  0.00    +0.009 C 
ATOM     36  C   UNL     1      38.318 -18.658 -21.752  0.00  0.00    +0.001 C 
ENDBRANCH  21  35
ENDBRANCH   1  21
TORSDOF 9
ENDMDL
MODEL 5
REMARK VINA RESULT:     -10.4      3.655      6.241
REMARK  Name = 54689025
REMARK  9 active torsions:
REMARK  status: ('A' for Active; 'I' for Inactive)
REMARK    1  A    between atoms: C_1  and  C_21
REMARK    2  A    between atoms: C_4  and  N_8
REMARK    3  A    between atoms: C_9  and  C_11
REMARK    4  A    between atoms: C_11  and  N_13
REMARK    5  A    between atoms: C_14  and  O_16
REMARK    6  A    between atoms: O_16  and  C_17
REMARK    7  A    between atoms: C_21  and  C_24
REMARK    8  A    between atoms: C_21  and  C_35
REMARK    9  A    between atoms: C_25  and  O_33
REMARK                            x       y       z     vdW  Elec       q    Type
REMARK                         _______ _______ _______ _____ _____    ______ ____
ROOT
ATOM      1  C   UNL     1      32.983 -11.470 -22.798  0.00  0.00    -0.017 C 
ATOM      2  C   UNL     1      32.864 -10.116 -22.487  0.00  0.00    +0.011 C 
ATOM      3  C   UNL     1      32.145 -12.403 -22.188  0.00  0.00    -0.004 C 
ATOM      4  C   UNL     1      31.906  -9.694 -21.566  0.00  0.00    +0.050 C 
ATOM      5  C   UNL     1      31.187 -11.981 -21.266  0.00  0.00    +0.001 C 
ATOM      6  C   UNL     1      31.067 -10.627 -20.955  0.00  0.00    +0.015 C 
ENDROOT
BRANCH   4   8
ATOM      7  O   UNL     1      32.808  -8.169 -19.139  0.00  0.00    -0.273 OA
ATOM      8  N   UNL     1      31.786  -8.339 -21.253  0.00  0.00    -0.283 N 
ATOM      9  C   UNL     1      32.227  -7.672 -20.099  0.00  0.00    +0.246 C 
ATOM     10  H   UNL     1      31.337  -7.780 -21.928  0.00  0.00    +0.155 HD
BRANCH   9  11
ATOM     11  C   UNL     1      31.894  -6.192 -20.166  0.00  0.00    +0.179 C 
BRANCH  11  13
ATOM     12  O   UNL     1      30.509  -4.587 -22.152  0.00  0.00    -0.226 OA
ATOM     13  N   UNL     1      32.436  -5.613 -21.361  0.00  0.00    -0.262 N 
ATOM     14  C   UNL     1      31.701  -4.856 -22.259  0.00  0.00    +0.402 C 
ATOM     15  H   UNL     1      33.389  -5.761 -21.555  0.00  0.00    +0.153 HD
BRANCH  14  16
ATOM     16  O   UNL     1      32.500  -4.448 -23.291  0.00  0.00    -0.442 OA
BRANCH  16  17
ATOM     17  C   UNL     1      32.658  -5.382 -24.364  0.00  0.00    +0.138 C 
ATOM     18  C   UNL     1      33.991  -6.107 -24.185  0.00  0.00    +0.044 C 
ATOM     19  C   UNL     1      32.649  -4.588 -25.669  0.00  0.00    +0.044 C 
ATOM     20  C   UNL     1      31.492  -6.369 -24.326  0.00  0.00    +0.044 C 
ENDBRANCH  16  17
ENDBRANCH  14  16
ENDBRANCH  11  13
ENDBRANCH   9  11
ENDBRANCH   4   8
BRANCH   1  21
ATOM     21  C   UNL     1      34.026 -11.929 -23.802  0.00  0.00    +0.054 C 
BRANCH  21  24
ATOM     22  O   UNL     1      33.558 -15.409 -25.217  0.00  0.00    -0.421 OA
ATOM     23  O   UNL     1      33.071 -13.329 -25.999  0.00  0.00    -0.245 OA
ATOM     24  C   UNL     1      34.097 -13.431 -23.854  0.00  0.00    +0.091 A 
ATOM     25  C   UNL     1      34.606 -14.226 -22.893  0.00  0.00    +0.139 A 
ATOM     26  C   UNL     1      33.536 -14.025 -25.102  0.00  0.00    +0.345 A 
ATOM     27  C   UNL     1      34.614 -15.682 -23.046  0.00  0.00    +0.068 A 
ATOM     28  C   UNL     1      34.087 -16.233 -24.210  0.00  0.00    +0.152 A 
ATOM     29  C   UNL     1      35.126 -16.560 -22.080  0.00  0.00    +0.006 C 
ATOM     30  C   UNL     1      34.056 -17.610 -24.434  0.00  0.00    +0.038 C 
ATOM     31  C   UNL     1      35.103 -17.943 -22.290  0.00  0.00    +0.000 C 
ATOM     32  C   UNL     1      34.567 -18.467 -23.465  0.00  0.00    +0.003 C 
BRANCH  25  33
ATOM     33  O   UNL     1      35.153 -13.772 -21.711  0.00  0.00    -0.506 OA
ATOM     34  H   UNL     1      35.316 -14.372 -21.009  0.00  0.00    +0.292 HD
ENDBRANCH  25  33
ENDBRANCH  21  24
BRANCH  21  35
ATOM     35  C   UNL     1      33.811 -11.364 -25.221  0.00  0.00    +0.009 C 
ATOM     36  C   UNL     1      34.919 -10.411 -25.656  0.00  0.00    +0.001 C 
ENDBRANCH  21  35
ENDBRANCH   1  21
TORSDOF 9
ENDMDL
MODEL 6
REMARK VINA RESULT:     -10.0      2.398     11.774
REMARK  Name = 54689025
REMARK  9 active torsions:
REMARK  status: ('A' for Active; 'I' for Inactive)
REMARK    1  A    between atoms: C_1  and  C_21
REMARK    2  A    between atoms: C_4  and  N_8
REMARK    3  A    between atoms: C_9  and  C_11
REMARK    4  A    between atoms: C_11  and  N_13
REMARK    5  A    between atoms: C_14  and  O_16
REMARK    6  A    between atoms: O_16  and  C_17
REMARK    7  A    between atoms: C_21  and  C_24
REMARK    8  A    between atoms: C_21  and  C_35
REMARK    9  A    between atoms: C_25  and  O_33
REMARK                            x       y       z     vdW  Elec       q    Type
REMARK                         _______ _______ _______ _____ _____    ______ ____
ROOT
ATOM      1  C   UNL     1      33.267  -9.663 -22.960  0.00  0.00    -0.017 C 
ATOM      2  C   UNL     1      33.183 -11.029 -23.229  0.00  0.00    +0.011 C 
ATOM      3  C   UNL     1      34.158  -8.864 -23.678  0.00  0.00    -0.004 C 
ATOM      4  C   UNL     1      33.989 -11.597 -24.216  0.00  0.00    +0.050 C 
ATOM      5  C   UNL     1      34.965  -9.432 -24.664  0.00  0.00    +0.001 C 
ATOM      6  C   UNL     1      34.880 -10.798 -24.933  0.00  0.00    +0.015 C 
ENDROOT
BRANCH   4   8
ATOM      7  O   UNL     1      34.259 -13.962 -22.383  0.00  0.00    -0.273 OA
ATOM      8  N   UNL     1      33.906 -12.964 -24.485  0.00  0.00    -0.283 N 
ATOM      9  C   UNL     1      34.041 -14.035 -23.588  0.00  0.00    +0.246 C 
ATOM     10  H   UNL     1      33.728 -13.207 -25.423  0.00  0.00    +0.155 HD
BRANCH   9  11
ATOM     11  C   UNL     1      33.877 -15.365 -24.302  0.00  0.00    +0.179 C 
BRANCH  11  13
ATOM     12  O   UNL     1      33.576 -18.233 -23.951  0.00  0.00    -0.226 OA
ATOM     13  N   UNL     1      34.861 -16.302 -23.846  0.00  0.00    -0.262 N 
ATOM     14  C   UNL     1      34.633 -17.661 -23.706  0.00  0.00    +0.402 C 
ATOM     15  H   UNL     1      35.755 -15.958 -23.617  0.00  0.00    +0.153 HD
BRANCH  14  16
ATOM     16  O   UNL     1      35.764 -18.282 -23.253  0.00  0.00    -0.442 OA
BRANCH  16  17
ATOM     17  C   UNL     1      35.845 -18.472 -21.836  0.00  0.00    +0.138 C 
ATOM     18  C   UNL     1      35.333 -17.208 -21.145  0.00  0.00    +0.044 C 
ATOM     19  C   UNL     1      37.313 -18.717 -21.489  0.00  0.00    +0.044 C 
ATOM     20  C   UNL     1      34.993 -19.682 -21.458  0.00  0.00    +0.044 C 
ENDBRANCH  16  17
ENDBRANCH  14  16
ENDBRANCH  11  13
ENDBRANCH   9  11
ENDBRANCH   4   8
BRANCH   1  21
ATOM     21  C   UNL     1      32.390  -9.045 -21.887  0.00  0.00    +0.054 C 
BRANCH  21  24
ATOM     22  O   UNL     1      32.534  -5.346 -21.096  0.00  0.00    -0.421 OA
ATOM     23  O   UNL     1      33.131  -7.212 -19.940  0.00  0.00    -0.245 OA
ATOM     24  C   UNL     1      32.224  -7.567 -22.112  0.00  0.00    +0.091 A 
ATOM     25  C   UNL     1      31.726  -6.994 -23.225  0.00  0.00    +0.139 A 
ATOM     26  C   UNL     1      32.666  -6.722 -20.965  0.00  0.00    +0.345 A 
ATOM     27  C   UNL     1      31.600  -5.540 -23.331  0.00  0.00    +0.068 A 
ATOM     28  C   UNL     1      32.010  -4.755 -22.258  0.00  0.00    +0.152 A 
ATOM     29  C   UNL     1      31.086  -4.887 -24.461  0.00  0.00    +0.006 C 
ATOM     30  C   UNL     1      31.923  -3.362 -22.278  0.00  0.00    +0.038 C 
ATOM     31  C   UNL     1      30.994  -3.491 -24.497  0.00  0.00    +0.000 C 
ATOM     32  C   UNL     1      31.411  -2.730 -23.406  0.00  0.00    +0.003 C 
BRANCH  25  33
ATOM     33  O   UNL     1      31.299  -7.688 -24.338  0.00  0.00    -0.506 OA
ATOM     34  H   UNL     1      31.716  -8.492 -24.578  0.00  0.00    +0.292 HD
ENDBRANCH  25  33
ENDBRANCH  21  24
BRANCH  21  35
ATOM     35  C   UNL     1      31.006  -9.715 -21.757  0.00  0.00    +0.009 C 
ATOM     36  C   UNL     1      30.945 -10.740 -20.630  0.00  0.00    +0.001 C 
ENDBRANCH  21  35
ENDBRANCH   1  21
TORSDOF 9
ENDMDL
MODEL 7
REMARK VINA RESULT:      -9.7      4.572     11.572
REMARK  Name = 54689025
REMARK  9 active torsions:
REMARK  status: ('A' for Active; 'I' for Inactive)
REMARK    1  A    between atoms: C_1  and  C_21
REMARK    2  A    between atoms: C_4  and  N_8
REMARK    3  A    between atoms: C_9  and  C_11
REMARK    4  A    between atoms: C_11  and  N_13
REMARK    5  A    between atoms: C_14  and  O_16
REMARK    6  A    between atoms: O_16  and  C_17
REMARK    7  A    between atoms: C_21  and  C_24
REMARK    8  A    between atoms: C_21  and  C_35
REMARK    9  A    between atoms: C_25  and  O_33
REMARK                            x       y       z     vdW  Elec       q    Type
REMARK                         _______ _______ _______ _____ _____    ______ ____
ROOT
ATOM      1  C   UNL     1      34.787 -20.089 -20.644  0.00  0.00    -0.017 C 
ATOM      2  C   UNL     1      35.167 -20.821 -19.520  0.00  0.00    +0.011 C 
ATOM      3  C   UNL     1      33.441 -20.010 -21.003  0.00  0.00    -0.004 C 
ATOM      4  C   UNL     1      34.202 -21.475 -18.754  0.00  0.00    +0.050 C 
ATOM      5  C   UNL     1      32.476 -20.665 -20.237  0.00  0.00    +0.001 C 
ATOM      6  C   UNL     1      32.857 -21.396 -19.113  0.00  0.00    +0.015 C 
ENDROOT
BRANCH   4   8
ATOM      7  O   UNL     1      36.813 -21.548 -17.268  0.00  0.00    -0.273 OA
ATOM      8  N   UNL     1      34.583 -22.209 -17.629  0.00  0.00    -0.283 N 
ATOM      9  C   UNL     1      35.822 -22.208 -16.970  0.00  0.00    +0.246 C 
ATOM     10  H   UNL     1      33.894 -22.801 -17.250  0.00  0.00    +0.155 HD
BRANCH   9  11
ATOM     11  C   UNL     1      35.807 -23.156 -15.784  0.00  0.00    +0.179 C 
BRANCH  11  13
ATOM     12  O   UNL     1      37.652 -22.896 -13.555  0.00  0.00    -0.226 OA
ATOM     13  N   UNL     1      37.089 -23.779 -15.627  0.00  0.00    -0.262 N 
ATOM     14  C   UNL     1      37.910 -23.601 -14.526  0.00  0.00    +0.402 C 
ATOM     15  H   UNL     1      37.405 -24.372 -16.347  0.00  0.00    +0.153 HD
BRANCH  14  16
ATOM     16  O   UNL     1      39.058 -24.327 -14.674  0.00  0.00    -0.442 OA
BRANCH  16  17
ATOM     17  C   UNL     1      39.111 -25.563 -13.953  0.00  0.00    +0.138 C 
ATOM     18  C   UNL     1      38.139 -26.548 -14.603  0.00  0.00    +0.044 C 
ATOM     19  C   UNL     1      38.698 -25.272 -12.511  0.00  0.00    +0.044 C 
ATOM     20  C   UNL     1      40.542 -26.095 -14.006  0.00  0.00    +0.044 C 
ENDBRANCH  16  17
ENDBRANCH  14  16
ENDBRANCH  11  13
ENDBRANCH   9  11
ENDBRANCH   4   8
BRANCH   1  21
ATOM     21  C   UNL     1      35.837 -19.377 -21.477  0.00  0.00    +0.054 C 
BRANCH  21  24
ATOM     22  O   UNL     1      34.925 -15.720 -21.118  0.00  0.00    -0.421 OA
ATOM     23  O   UNL     1      35.746 -17.271 -19.671  0.00  0.00    -0.245 OA
ATOM     24  C   UNL     1      35.356 -18.014 -21.899  0.00  0.00    +0.091 A 
ATOM     25  C   UNL     1      34.938 -17.678 -23.134  0.00  0.00    +0.139 A 
ATOM     26  C   UNL     1      35.366 -16.999 -20.806  0.00  0.00    +0.345 A 
ATOM     27  C   UNL     1      34.480 -16.319 -23.430  0.00  0.00    +0.068 A 
ATOM     28  C   UNL     1      34.487 -15.376 -22.408  0.00  0.00    +0.152 A 
ATOM     29  C   UNL     1      34.031 -15.911 -24.694  0.00  0.00    +0.006 C 
ATOM     30  C   UNL     1      34.066 -14.060 -22.605  0.00  0.00    +0.038 C 
ATOM     31  C   UNL     1      33.606 -14.595 -24.909  0.00  0.00    +0.000 C 
ATOM     32  C   UNL     1      33.622 -13.672 -23.865  0.00  0.00    +0.003 C 
BRANCH  25  33
ATOM     33  O   UNL     1      34.899 -18.541 -24.209  0.00  0.00    -0.506 OA
ATOM     34  H   UNL     1      35.303 -19.384 -24.149  0.00  0.00    +0.292 HD
ENDBRANCH  25  33
ENDBRANCH  21  24
BRANCH  21  35
ATOM     35  C   UNL     1      37.206 -19.256 -20.777  0.00  0.00    +0.009 C 
ATOM     36  C   UNL     1      38.266 -18.598 -21.655  0.00  0.00    +0.001 C 
ENDBRANCH  21  35
ENDBRANCH   1  21
TORSDOF 9
ENDMDL
MODEL 8
REMARK VINA RESULT:      -9.7      5.526     10.164
REMARK  Name = 54689025
REMARK  9 active torsions:
REMARK  status: ('A' for Active; 'I' for Inactive)
REMARK    1  A    between atoms: C_1  and  C_21
REMARK    2  A    between atoms: C_4  and  N_8
REMARK    3  A    between atoms: C_9  and  C_11
REMARK    4  A    between atoms: C_11  and  N_13
REMARK    5  A    between atoms: C_14  and  O_16
REMARK    6  A    between atoms: O_16  and  C_17
REMARK    7  A    between atoms: C_21  and  C_24
REMARK    8  A    between atoms: C_21  and  C_35
REMARK    9  A    between atoms: C_25  and  O_33
REMARK                            x       y       z     vdW  Elec       q    Type
REMARK                         _______ _______ _______ _____ _____    ______ ____
ROOT
ATOM      1  C   UNL     1      33.961 -23.955 -14.705  0.00  0.00    -0.017 C 
ATOM      2  C   UNL     1      34.691 -23.569 -15.828  0.00  0.00    +0.011 C 
ATOM      3  C   UNL     1      32.586 -23.725 -14.654  0.00  0.00    -0.004 C 
ATOM      4  C   UNL     1      34.047 -22.953 -16.902  0.00  0.00    +0.050 C 
ATOM      5  C   UNL     1      31.942 -23.108 -15.727  0.00  0.00    +0.001 C 
ATOM      6  C   UNL     1      32.672 -22.723 -16.850  0.00  0.00    +0.015 C 
ENDROOT
BRANCH   4   8
ATOM      7  O   UNL     1      36.601 -21.385 -17.118  0.00  0.00    -0.273 OA
ATOM      8  N   UNL     1      34.778 -22.565 -18.025  0.00  0.00    -0.283 N 
ATOM      9  C   UNL     1      35.972 -21.828 -18.074  0.00  0.00    +0.246 C 
ATOM     10  H   UNL     1      34.410 -22.845 -18.895  0.00  0.00    +0.155 HD
BRANCH   9  11
ATOM     11  C   UNL     1      36.430 -21.629 -19.507  0.00  0.00    +0.179 C 
BRANCH  11  13
ATOM     12  O   UNL     1      33.924 -20.466 -20.406  0.00  0.00    -0.226 OA
ATOM     13  N   UNL     1      36.188 -20.279 -19.926  0.00  0.00    -0.262 N 
ATOM     14  C   UNL     1      34.955 -19.804 -20.342  0.00  0.00    +0.402 C 
ATOM     15  H   UNL     1      36.946 -19.651 -19.917  0.00  0.00    +0.153 HD
BRANCH  14  16
ATOM     16  O   UNL     1      35.050 -18.482 -20.674  0.00  0.00    -0.442 OA
BRANCH  16  17
ATOM     17  C   UNL     1      35.496 -18.204 -22.007  0.00  0.00    +0.138 C 
ATOM     18  C   UNL     1      36.985 -18.533 -22.101  0.00  0.00    +0.044 C 
ATOM     19  C   UNL     1      35.255 -16.719 -22.271  0.00  0.00    +0.044 C 
ATOM     20  C   UNL     1      34.686 -19.061 -22.978  0.00  0.00    +0.044 C 
ENDBRANCH  16  17
ENDBRANCH  14  16
ENDBRANCH  11  13
ENDBRANCH   9  11
ENDBRANCH   4   8
BRANCH   1  21
ATOM     21  C   UNL     1      34.662 -24.626 -13.538  0.00  0.00    +0.054 C 
BRANCH  21  24
ATOM     22  O   UNL     1      38.365 -23.928 -13.898  0.00  0.00    -0.421 OA
ATOM     23  O   UNL     1      36.607 -22.683 -13.166  0.00  0.00    -0.245 OA
ATOM     24  C   UNL     1      36.105 -24.903 -13.864  0.00  0.00    +0.091 A 
ATOM     25  C   UNL     1      36.591 -26.062 -14.346  0.00  0.00    +0.139 A 
ATOM     26  C   UNL     1      37.018 -23.750 -13.611  0.00  0.00    +0.345 A 
ATOM     27  C   UNL     1      38.018 -26.216 -14.638  0.00  0.00    +0.068 A 
ATOM     28  C   UNL     1      38.866 -25.139 -14.404  0.00  0.00    +0.152 A 
ATOM     29  C   UNL     1      38.582 -27.396 -15.144  0.00  0.00    +0.006 C 
ATOM     30  C   UNL     1      40.238 -25.202 -14.657  0.00  0.00    +0.038 C 
ATOM     31  C   UNL     1      39.955 -27.476 -15.401  0.00  0.00    +0.000 C 
ATOM     32  C   UNL     1      40.781 -26.380 -15.159  0.00  0.00    +0.003 C 
BRANCH  25  33
ATOM     33  O   UNL     1      35.830 -27.183 -14.604  0.00  0.00    -0.506 OA
ATOM     34  H   UNL     1      35.072 -27.365 -14.085  0.00  0.00    +0.292 HD
ENDBRANCH  25  33
ENDBRANCH  21  24
BRANCH  21  35
ATOM     35  C   UNL     1      34.564 -23.833 -12.218  0.00  0.00    +0.009 C 
ATOM     36  C   UNL     1      35.062 -24.623 -11.012  0.00  0.00    +0.001 C 
ENDBRANCH  21  35
ENDBRANCH   1  21
TORSDOF 9
ENDMDL
MODEL 9
REMARK VINA RESULT:      -9.4      0.566      1.735
REMARK  Name = 54689025
REMARK  9 active torsions:
REMARK  status: ('A' for Active; 'I' for Inactive)
REMARK    1  A    between atoms: C_1  and  C_21
REMARK    2  A    between atoms: C_4  and  N_8
REMARK    3  A    between atoms: C_9  and  C_11
REMARK    4  A    between atoms: C_11  and  N_13
REMARK    5  A    between atoms: C_14  and  O_16
REMARK    6  A    between atoms: O_16  and  C_17
REMARK    7  A    between atoms: C_21  and  C_24
REMARK    8  A    between atoms: C_21  and  C_35
REMARK    9  A    between atoms: C_25  and  O_33
REMARK                            x       y       z     vdW  Elec       q    Type
REMARK                         _______ _______ _______ _____ _____    ______ ____
ROOT
ATOM      1  C   UNL     1      35.032 -17.039 -21.888  0.00  0.00    -0.017 C 
ATOM      2  C   UNL     1      34.886 -16.010 -22.818  0.00  0.00    +0.011 C 
ATOM      3  C   UNL     1      34.911 -16.770 -20.525  0.00  0.00    -0.004 C 
ATOM      4  C   UNL     1      34.616 -14.712 -22.386  0.00  0.00    +0.050 C 
ATOM      5  C   UNL     1      34.643 -15.471 -20.092  0.00  0.00    +0.001 C 
ATOM      6  C   UNL     1      34.495 -14.443 -21.022  0.00  0.00    +0.015 C 
ENDROOT
BRANCH   4   8
ATOM      7  O   UNL     1      32.738 -12.367 -22.414  0.00  0.00    -0.273 OA
ATOM      8  N   UNL     1      34.470 -13.682 -23.315  0.00  0.00    -0.283 N 
ATOM      9  C   UNL     1      33.571 -12.603 -23.283  0.00  0.00    +0.246 C 
ATOM     10  H   UNL     1      35.074 -13.715 -24.092  0.00  0.00    +0.155 HD
BRANCH   9  11
ATOM     11  C   UNL     1      33.750 -11.711 -24.498  0.00  0.00    +0.179 C 
BRANCH  11  13
ATOM     12  O   UNL     1      34.882  -9.274 -23.395  0.00  0.00    -0.226 OA
ATOM     13  N   UNL     1      33.095 -10.452 -24.294  0.00  0.00    -0.262 N 
ATOM     14  C   UNL     1      33.711  -9.333 -23.759  0.00  0.00    +0.402 C 
ATOM     15  H   UNL     1      32.147 -10.378 -24.550  0.00  0.00    +0.153 HD
BRANCH  14  16
ATOM     16  O   UNL     1      32.824  -8.295 -23.693  0.00  0.00    -0.442 OA
BRANCH  16  17
ATOM     17  C   UNL     1      32.499  -7.836 -22.377  0.00  0.00    +0.138 C 
ATOM     18  C   UNL     1      32.193  -9.049 -21.500  0.00  0.00    +0.044 C 
ATOM     19  C   UNL     1      31.271  -6.935 -22.496  0.00  0.00    +0.044 C 
ATOM     20  C   UNL     1      33.690  -7.052 -21.827  0.00  0.00    +0.044 C 
ENDBRANCH  16  17
ENDBRANCH  14  16
ENDBRANCH  11  13
ENDBRANCH   9  11
ENDBRANCH   4   8
BRANCH   1  21
ATOM     21  C   UNL     1      35.325 -18.452 -22.360  0.00  0.00    +0.054 C 
BRANCH  21  24
ATOM     22  O   UNL     1      33.677 -20.944 -20.034  0.00  0.00    -0.421 OA
ATOM     23  O   UNL     1      32.932 -19.752 -21.823  0.00  0.00    -0.245 OA
ATOM     24  C   UNL     1      35.214 -19.432 -21.223  0.00  0.00    +0.091 A 
ATOM     25  C   UNL     1      36.209 -19.773 -20.382  0.00  0.00    +0.139 A 
ATOM     26  C   UNL     1      33.859 -20.036 -21.070  0.00  0.00    +0.345 A 
ATOM     27  C   UNL     1      35.984 -20.734 -19.300  0.00  0.00    +0.068 A 
ATOM     28  C   UNL     1      34.718 -21.293 -19.158  0.00  0.00    +0.152 A 
ATOM     29  C   UNL     1      36.978 -21.125 -18.393  0.00  0.00    +0.006 C 
ATOM     30  C   UNL     1      34.420 -22.215 -18.153  0.00  0.00    +0.038 C 
ATOM     31  C   UNL     1      36.696 -22.049 -17.380  0.00  0.00    +0.000 C 
ATOM     32  C   UNL     1      35.418 -22.592 -17.260  0.00  0.00    +0.003 C 
BRANCH  25  33
ATOM     33  O   UNL     1      37.494 -19.276 -20.447  0.00  0.00    -0.506 OA
ATOM     34  H   UNL     1      38.187 -19.812 -20.779  0.00  0.00    +0.292 HD
ENDBRANCH  25  33
ENDBRANCH  21  24
BRANCH  21  35
ATOM     35  C   UNL     1      34.437 -18.909 -23.535  0.00  0.00    +0.009 C 
ATOM     36  C   UNL     1      35.076 -20.016 -24.368  0.00  0.00    +0.001 C 
ENDBRANCH  21  35
ENDBRANCH   1  21
TORSDOF 9
ENDMDL
