MODEL 1
REMARK VINA RESULT:     -11.3      0.000      0.000
REMARK  Name = 44177328
REMARK  2 active torsions:
REMARK  status: ('A' for Active; 'I' for Inactive)
REMARK    1  A    between atoms: N_1  and  C_15
REMARK    2  A    between atoms: C_6  and  C_23
REMARK                            x       y       z     vdW  Elec       q    Type
REMARK                         _______ _______ _______ _____ _____    ______ ____
ROOT
ATOM      1  N   UNL     1      32.407 -22.682 -17.752  0.00  0.00    -0.286 N 
ATOM      2  N   UNL     1      33.385 -23.542 -15.775  0.00  0.00    -0.386 NA
ATOM      3  N   UNL     1      30.852 -23.605 -14.573  0.00  0.00    -0.246 NA
ATOM      4  N   UNL     1      29.900 -22.744 -16.568  0.00  0.00    -0.340 N 
ATOM      5  C   UNL     1      32.276 -23.142 -16.428  0.00  0.00    +0.214 C 
ATOM      6  C   UNL     1      33.207 -23.974 -14.511  0.00  0.00    +0.135 C 
ATOM      7  C   UNL     1      31.031 -23.174 -15.838  0.00  0.00    +0.166 C 
ATOM      8  C   UNL     1      31.962 -24.004 -13.921  0.00  0.00    +0.185 C 
ATOM      9  H   UNL     1      31.612 -22.848 -18.308  0.00  0.00    +0.155 HD
ATOM     10  H   UNL     1      29.008 -22.764 -16.151  0.00  0.00    +0.144 HD
ATOM     11  H   UNL     1      30.004 -22.424 -17.493  0.00  0.00    +0.144 HD
ENDROOT
BRANCH   1  15
ATOM     12  N   UNL     1      36.338 -20.002 -20.574  0.00  0.00    -0.312 N 
ATOM     13  C   UNL     1      34.201 -20.469 -20.133  0.00  0.00    +0.016 C 
ATOM     14  C   UNL     1      35.518 -20.759 -19.767  0.00  0.00    +0.048 C 
ATOM     15  C   UNL     1      33.455 -22.029 -18.437  0.00  0.00    +0.050 C 
ATOM     16  C   UNL     1      33.151 -21.118 -19.454  0.00  0.00    +0.016 C 
ATOM     17  C   UNL     1      35.837 -21.667 -18.752  0.00  0.00    +0.016 C 
ATOM     18  C   UNL     1      34.778 -22.299 -18.093  0.00  0.00    +0.016 C 
ATOM     19  C   UNL     1      34.261 -19.514 -21.186  0.00  0.00    +0.017 C 
ATOM     20  C   UNL     1      35.588 -19.247 -21.435  0.00  0.00    +0.062 C 
ATOM     21  H   UNL     1      37.322 -20.006 -20.537  0.00  0.00    +0.152 HD
ENDBRANCH   1  15
BRANCH   6  23
ATOM     22  N   UNL     1      36.701 -25.216 -12.465  0.00  0.00    -0.242 NA
ATOM     23  C   UNL     1      34.395 -24.396 -13.815  0.00  0.00    +0.031 C 
ATOM     24  C   UNL     1      34.476 -24.270 -12.433  0.00  0.00    +0.023 C 
ATOM     25  C   UNL     1      35.464 -24.933 -14.523  0.00  0.00    +0.023 C 
ATOM     26  C   UNL     1      35.640 -24.691 -11.811  0.00  0.00    +0.099 C 
ATOM     27  C   UNL     1      36.585 -25.325 -13.808  0.00  0.00    +0.099 C 
ENDBRANCH   6  23
TORSDOF 2
ENDMDL
MODEL 2
REMARK VINA RESULT:     -11.0      1.313      1.971
REMARK  Name = 44177328
REMARK  2 active torsions:
REMARK  status: ('A' for Active; 'I' for Inactive)
REMARK    1  A    between atoms: N_1  and  C_15
REMARK    2  A    between atoms: C_6  and  C_23
REMARK                            x       y       z     vdW  Elec       q    Type
REMARK                         _______ _______ _______ _____ _____    ______ ____
ROOT
ATOM      1  N   UNL     1      32.661 -22.426 -18.232  0.00  0.00    -0.286 N 
ATOM      2  N   UNL     1      34.186 -23.169 -16.582  0.00  0.00    -0.386 NA
ATOM      3  N   UNL     1      32.032 -23.754 -14.884  0.00  0.00    -0.246 NA
ATOM      4  N   UNL     1      30.528 -23.003 -16.557  0.00  0.00    -0.340 N 
ATOM      5  C   UNL     1      32.908 -22.957 -16.952  0.00  0.00    +0.214 C 
ATOM      6  C   UNL     1      34.369 -23.679 -15.348  0.00  0.00    +0.135 C 
ATOM      7  C   UNL     1      31.849 -23.244 -16.119  0.00  0.00    +0.166 C 
ATOM      8  C   UNL     1      33.310 -23.965 -14.514  0.00  0.00    +0.185 C 
ATOM      9  H   UNL     1      31.803 -22.713 -18.621  0.00  0.00    +0.155 HD
ATOM     10  H   UNL     1      29.767 -23.206 -15.966  0.00  0.00    +0.144 HD
ATOM     11  H   UNL     1      30.367 -22.631 -17.455  0.00  0.00    +0.144 HD
ENDROOT
BRANCH   1  15
ATOM     12  N   UNL     1      35.776 -19.114 -21.384  0.00  0.00    -0.312 N 
ATOM     13  C   UNL     1      35.524 -20.611 -19.749  0.00  0.00    +0.016 C 
ATOM     14  C   UNL     1      34.839 -19.865 -20.710  0.00  0.00    +0.048 C 
ATOM     15  C   UNL     1      33.402 -21.561 -19.067  0.00  0.00    +0.050 C 
ATOM     16  C   UNL     1      34.790 -21.475 -18.912  0.00  0.00    +0.016 C 
ATOM     17  C   UNL     1      33.452 -19.941 -20.878  0.00  0.00    +0.016 C 
ATOM     18  C   UNL     1      32.745 -20.805 -20.035  0.00  0.00    +0.016 C 
ATOM     19  C   UNL     1      36.903 -20.281 -19.869  0.00  0.00    +0.017 C 
ATOM     20  C   UNL     1      37.026 -19.358 -20.882  0.00  0.00    +0.062 C 
ATOM     21  H   UNL     1      35.575 -18.491 -22.119  0.00  0.00    +0.152 HD
ENDBRANCH   1  15
BRANCH   6  23
ATOM     22  N   UNL     1      38.391 -24.331 -14.188  0.00  0.00    -0.242 NA
ATOM     23  C   UNL     1      35.736 -23.901 -14.953  0.00  0.00    +0.031 C 
ATOM     24  C   UNL     1      36.042 -24.878 -14.013  0.00  0.00    +0.023 C 
ATOM     25  C   UNL     1      36.757 -23.138 -15.512  0.00  0.00    +0.023 C 
ATOM     26  C   UNL     1      37.372 -25.052 -13.667  0.00  0.00    +0.099 C 
ATOM     27  C   UNL     1      38.055 -23.390 -15.099  0.00  0.00    +0.099 C 
ENDBRANCH   6  23
TORSDOF 2
ENDMDL
MODEL 3
REMARK VINA RESULT:     -10.1      1.767      7.063
REMARK  Name = 44177328
REMARK  2 active torsions:
REMARK  status: ('A' for Active; 'I' for Inactive)
REMARK    1  A    between atoms: N_1  and  C_15
REMARK    2  A    between atoms: C_6  and  C_23
REMARK                            x       y       z     vdW  Elec       q    Type
REMARK                         _______ _______ _______ _____ _____    ______ ____
ROOT
ATOM      1  N   UNL     1      34.574 -24.165 -14.990  0.00  0.00    -0.286 N 
ATOM      2  N   UNL     1      34.858 -22.768 -16.879  0.00  0.00    -0.386 NA
ATOM      3  N   UNL     1      37.541 -22.379 -16.162  0.00  0.00    -0.246 NA
ATOM      4  N   UNL     1      37.226 -23.785 -14.277  0.00  0.00    -0.340 N 
ATOM      5  C   UNL     1      35.395 -23.345 -15.786  0.00  0.00    +0.214 C 
ATOM      6  C   UNL     1      35.686 -21.993 -17.608  0.00  0.00    +0.135 C 
ATOM      7  C   UNL     1      36.713 -23.155 -15.434  0.00  0.00    +0.166 C 
ATOM      8  C   UNL     1      37.004 -21.802 -17.254  0.00  0.00    +0.185 C 
ATOM      9  H   UNL     1      35.061 -24.888 -14.532  0.00  0.00    +0.155 HD
ATOM     10  H   UNL     1      38.167 -23.652 -14.020  0.00  0.00    +0.144 HD
ATOM     11  H   UNL     1      36.642 -24.356 -13.728  0.00  0.00    +0.144 HD
ENDROOT
BRANCH   1  15
ATOM     12  N   UNL     1      29.109 -23.996 -14.147  0.00  0.00    -0.312 N 
ATOM     13  C   UNL     1      30.932 -23.530 -15.346  0.00  0.00    +0.016 C 
ATOM     14  C   UNL     1      30.478 -24.142 -14.175  0.00  0.00    +0.048 C 
ATOM     15  C   UNL     1      33.188 -24.154 -14.719  0.00  0.00    +0.050 C 
ATOM     16  C   UNL     1      32.314 -23.537 -15.621  0.00  0.00    +0.016 C 
ATOM     17  C   UNL     1      31.339 -24.764 -13.265  0.00  0.00    +0.016 C 
ATOM     18  C   UNL     1      32.706 -24.758 -13.560  0.00  0.00    +0.016 C 
ATOM     19  C   UNL     1      29.790 -23.012 -16.017  0.00  0.00    +0.017 C 
ATOM     20  C   UNL     1      28.684 -23.314 -15.256  0.00  0.00    +0.062 C 
ATOM     21  H   UNL     1      28.522 -24.333 -13.433  0.00  0.00    +0.152 HD
ENDBRANCH   1  15
BRANCH   6  23
ATOM     22  N   UNL     1      33.988 -20.174 -21.036  0.00  0.00    -0.242 NA
ATOM     23  C   UNL     1      35.108 -21.374 -18.773  0.00  0.00    +0.031 C 
ATOM     24  C   UNL     1      33.737 -21.445 -18.994  0.00  0.00    +0.023 C 
ATOM     25  C   UNL     1      35.920 -20.703 -19.681  0.00  0.00    +0.023 C 
ATOM     26  C   UNL     1      33.231 -20.834 -20.130  0.00  0.00    +0.099 C 
ATOM     27  C   UNL     1      35.316 -20.125 -20.787  0.00  0.00    +0.099 C 
ENDBRANCH   6  23
TORSDOF 2
ENDMDL
MODEL 4
REMARK VINA RESULT:     -10.1      2.224      4.136
REMARK  Name = 44177328
REMARK  2 active torsions:
REMARK  status: ('A' for Active; 'I' for Inactive)
REMARK    1  A    between atoms: N_1  and  C_15
REMARK    2  A    between atoms: C_6  and  C_23
REMARK                            x       y       z     vdW  Elec       q    Type
REMARK                         _______ _______ _______ _____ _____    ______ ____
ROOT
ATOM      1  N   UNL     1      34.124 -23.800 -14.835  0.00  0.00    -0.286 N 
ATOM      2  N   UNL     1      36.171 -24.885 -14.351  0.00  0.00    -0.386 NA
ATOM      3  N   UNL     1      35.546 -24.801 -11.619  0.00  0.00    -0.246 NA
ATOM      4  N   UNL     1      33.501 -23.716 -12.135  0.00  0.00    -0.340 N 
ATOM      5  C   UNL     1      35.025 -24.340 -13.898  0.00  0.00    +0.214 C 
ATOM      6  C   UNL     1      37.000 -25.388 -13.415  0.00  0.00    +0.135 C 
ATOM      7  C   UNL     1      34.717 -24.299 -12.556  0.00  0.00    +0.166 C 
ATOM      8  C   UNL     1      36.692 -25.346 -12.072  0.00  0.00    +0.185 C 
ATOM      9  H   UNL     1      33.182 -23.852 -14.553  0.00  0.00    +0.155 HD
ATOM     10  H   UNL     1      33.276 -23.683 -11.177  0.00  0.00    +0.144 HD
ATOM     11  H   UNL     1      32.878 -23.341 -12.800  0.00  0.00    +0.144 HD
ENDROOT
BRANCH   1  15
ATOM     12  N   UNL     1      35.079 -21.394 -19.724  0.00  0.00    -0.312 N 
ATOM     13  C   UNL     1      35.719 -22.031 -17.684  0.00  0.00    +0.016 C 
ATOM     14  C   UNL     1      34.648 -22.029 -18.581  0.00  0.00    +0.048 C 
ATOM     15  C   UNL     1      34.306 -23.199 -16.100  0.00  0.00    +0.050 C 
ATOM     16  C   UNL     1      35.543 -22.628 -16.420  0.00  0.00    +0.016 C 
ATOM     17  C   UNL     1      33.407 -22.598 -18.276  0.00  0.00    +0.016 C 
ATOM     18  C   UNL     1      33.256 -23.184 -17.015  0.00  0.00    +0.016 C 
ATOM     19  C   UNL     1      36.805 -21.375 -18.329  0.00  0.00    +0.017 C 
ATOM     20  C   UNL     1      36.380 -20.994 -19.581  0.00  0.00    +0.062 C 
ATOM     21  H   UNL     1      34.529 -21.247 -20.527  0.00  0.00    +0.152 HD
ENDBRANCH   1  15
BRANCH   6  23
ATOM     22  N   UNL     1      40.605 -27.090 -14.845  0.00  0.00    -0.242 NA
ATOM     23  C   UNL     1      38.225 -25.967 -13.902  0.00  0.00    +0.031 C 
ATOM     24  C   UNL     1      38.193 -26.929 -14.905  0.00  0.00    +0.023 C 
ATOM     25  C   UNL     1      39.446 -25.564 -13.370  0.00  0.00    +0.023 C 
ATOM     26  C   UNL     1      39.400 -27.454 -15.338  0.00  0.00    +0.099 C 
ATOM     27  C   UNL     1      40.597 -26.152 -13.871  0.00  0.00    +0.099 C 
ENDBRANCH   6  23
TORSDOF 2
ENDMDL
MODEL 5
REMARK VINA RESULT:     -10.1      1.754      6.811
REMARK  Name = 44177328
REMARK  2 active torsions:
REMARK  status: ('A' for Active; 'I' for Inactive)
REMARK    1  A    between atoms: N_1  and  C_15
REMARK    2  A    between atoms: C_6  and  C_23
REMARK                            x       y       z     vdW  Elec       q    Type
REMARK                         _______ _______ _______ _____ _____    ______ ____
ROOT
ATOM      1  N   UNL     1      34.192 -24.528 -14.030  0.00  0.00    -0.286 N 
ATOM      2  N   UNL     1      35.021 -23.241 -15.836  0.00  0.00    -0.386 NA
ATOM      3  N   UNL     1      37.444 -22.911 -14.461  0.00  0.00    -0.246 NA
ATOM      4  N   UNL     1      36.585 -24.206 -12.667  0.00  0.00    -0.340 N 
ATOM      5  C   UNL     1      35.229 -23.780 -14.618  0.00  0.00    +0.214 C 
ATOM      6  C   UNL     1      36.045 -22.535 -16.354  0.00  0.00    +0.135 C 
ATOM      7  C   UNL     1      36.419 -23.619 -13.942  0.00  0.00    +0.166 C 
ATOM      8  C   UNL     1      37.235 -22.373 -15.678  0.00  0.00    +0.185 C 
ATOM      9  H   UNL     1      34.510 -25.243 -13.432  0.00  0.00    +0.155 HD
ATOM     10  H   UNL     1      37.433 -24.093 -12.180  0.00  0.00    +0.144 HD
ATOM     11  H   UNL     1      35.852 -24.727 -12.266  0.00  0.00    +0.144 HD
ENDROOT
BRANCH   1  15
ATOM     12  N   UNL     1      28.710 -24.079 -14.620  0.00  0.00    -0.312 N 
ATOM     13  C   UNL     1      30.802 -23.581 -15.214  0.00  0.00    +0.016 C 
ATOM     14  C   UNL     1      30.031 -24.320 -14.314  0.00  0.00    +0.048 C 
ATOM     15  C   UNL     1      32.785 -24.453 -14.130  0.00  0.00    +0.050 C 
ATOM     16  C   UNL     1      32.207 -23.650 -15.119  0.00  0.00    +0.016 C 
ATOM     17  C   UNL     1      30.596 -25.128 -13.322  0.00  0.00    +0.016 C 
ATOM     18  C   UNL     1      31.991 -25.180 -13.246  0.00  0.00    +0.016 C 
ATOM     19  C   UNL     1      29.899 -22.888 -16.068  0.00  0.00    +0.017 C 
ATOM     20  C   UNL     1      28.620 -23.214 -15.678  0.00  0.00    +0.062 C 
ATOM     21  H   UNL     1      27.942 -24.470 -14.145  0.00  0.00    +0.152 HD
ENDBRANCH   1  15
BRANCH   6  23
ATOM     22  N   UNL     1      35.377 -20.836 -20.176  0.00  0.00    -0.242 NA
ATOM     23  C   UNL     1      35.818 -21.957 -17.654  0.00  0.00    +0.031 C 
ATOM     24  C   UNL     1      36.855 -21.317 -18.324  0.00  0.00    +0.023 C 
ATOM     25  C   UNL     1      34.562 -22.039 -18.244  0.00  0.00    +0.023 C 
ATOM     26  C   UNL     1      36.585 -20.778 -19.571  0.00  0.00    +0.099 C 
ATOM     27  C   UNL     1      34.394 -21.467 -19.495  0.00  0.00    +0.099 C 
ENDBRANCH   6  23
TORSDOF 2
ENDMDL
MODEL 6
REMARK VINA RESULT:      -9.9      8.867     13.134
REMARK  Name = 44177328
REMARK  2 active torsions:
REMARK  status: ('A' for Active; 'I' for Inactive)
REMARK    1  A    between atoms: N_1  and  C_15
REMARK    2  A    between atoms: C_6  and  C_23
REMARK                            x       y       z     vdW  Elec       q    Type
REMARK                         _______ _______ _______ _____ _____    ______ ____
ROOT
ATOM      1  N   UNL     1      33.355 -10.872 -24.296  0.00  0.00    -0.286 N 
ATOM      2  N   UNL     1      33.897 -12.978 -23.361  0.00  0.00    -0.386 NA
ATOM      3  N   UNL     1      33.478 -14.173 -25.864  0.00  0.00    -0.246 NA
ATOM      4  N   UNL     1      32.940 -12.049 -26.772  0.00  0.00    -0.340 N 
ATOM      5  C   UNL     1      33.530 -12.261 -24.442  0.00  0.00    +0.214 C 
ATOM      6  C   UNL     1      34.051 -14.303 -23.554  0.00  0.00    +0.135 C 
ATOM      7  C   UNL     1      33.324 -12.847 -25.671  0.00  0.00    +0.166 C 
ATOM      8  C   UNL     1      33.845 -14.890 -24.783  0.00  0.00    +0.185 C 
ATOM      9  H   UNL     1      33.550 -10.361 -25.114  0.00  0.00    +0.155 HD
ATOM     10  H   UNL     1      32.791 -12.462 -27.653  0.00  0.00    +0.144 HD
ATOM     11  H   UNL     1      32.821 -11.078 -26.658  0.00  0.00    +0.144 HD
ENDROOT
BRANCH   1  15
ATOM     12  N   UNL     1      31.916  -7.533 -20.126  0.00  0.00    -0.312 N 
ATOM     13  C   UNL     1      32.982  -7.943 -22.043  0.00  0.00    +0.016 C 
ATOM     14  C   UNL     1      32.160  -8.510 -21.066  0.00  0.00    +0.048 C 
ATOM     15  C   UNL     1      32.954 -10.069 -23.205  0.00  0.00    +0.050 C 
ATOM     16  C   UNL     1      33.386  -8.740 -23.133  0.00  0.00    +0.016 C 
ATOM     17  C   UNL     1      31.720  -9.836 -21.126  0.00  0.00    +0.016 C 
ATOM     18  C   UNL     1      32.134 -10.607 -22.216  0.00  0.00    +0.016 C 
ATOM     19  C   UNL     1      33.222  -6.595 -21.657  0.00  0.00    +0.017 C 
ATOM     20  C   UNL     1      32.554  -6.373 -20.475  0.00  0.00    +0.062 C 
ATOM     21  H   UNL     1      31.364  -7.653 -19.320  0.00  0.00    +0.152 HD
ENDBRANCH   1  15
BRANCH   6  23
ATOM     22  N   UNL     1      35.196 -16.552 -20.151  0.00  0.00    -0.242 NA
ATOM     23  C   UNL     1      34.440 -15.068 -22.396  0.00  0.00    +0.031 C 
ATOM     24  C   UNL     1      34.205 -14.570 -21.119  0.00  0.00    +0.023 C 
ATOM     25  C   UNL     1      35.053 -16.307 -22.552  0.00  0.00    +0.023 C 
ATOM     26  C   UNL     1      34.598 -15.344 -20.040  0.00  0.00    +0.099 C 
ATOM     27  C   UNL     1      35.408 -17.003 -21.408  0.00  0.00    +0.099 C 
ENDBRANCH   6  23
TORSDOF 2
ENDMDL
MODEL 7
REMARK VINA RESULT:      -9.4     11.163     14.636
REMARK  Name = 44177328
REMARK  2 active torsions:
REMARK  status: ('A' for Active; 'I' for Inactive)
REMARK    1  A    between atoms: N_1  and  C_15
REMARK    2  A    between atoms: C_6  and  C_23
REMARK                            x       y       z     vdW  Elec       q    Type
REMARK                         _______ _______ _______ _____ _____    ______ ____
ROOT
ATOM      1  N   UNL     1      31.549  -9.171 -21.497  0.00  0.00    -0.286 N 
ATOM      2  N   UNL     1      32.297 -11.234 -22.387  0.00  0.00    -0.386 NA
ATOM      3  N   UNL     1      32.215 -12.349 -19.815  0.00  0.00    -0.246 NA
ATOM      4  N   UNL     1      31.465 -10.270 -18.953  0.00  0.00    -0.340 N 
ATOM      5  C   UNL     1      31.915 -10.518 -21.311  0.00  0.00    +0.214 C 
ATOM      6  C   UNL     1      32.637 -12.517 -22.156  0.00  0.00    +0.135 C 
ATOM      7  C   UNL     1      31.874 -11.065 -20.048  0.00  0.00    +0.166 C 
ATOM      8  C   UNL     1      32.597 -13.064 -20.892  0.00  0.00    +0.185 C 
ATOM      9  H   UNL     1      30.877  -8.852 -20.853  0.00  0.00    +0.155 HD
ATOM     10  H   UNL     1      31.435 -10.657 -18.048  0.00  0.00    +0.144 HD
ATOM     11  H   UNL     1      31.212  -9.330 -19.096  0.00  0.00    +0.144 HD
ENDROOT
BRANCH   1  15
ATOM     12  N   UNL     1      33.387  -5.362 -25.063  0.00  0.00    -0.312 N 
ATOM     13  C   UNL     1      33.711  -6.866 -23.447  0.00  0.00    +0.016 C 
ATOM     14  C   UNL     1      32.740  -6.269 -24.254  0.00  0.00    +0.048 C 
ATOM     15  C   UNL     1      31.957  -8.190 -22.427  0.00  0.00    +0.050 C 
ATOM     16  C   UNL     1      33.310  -7.845 -22.515  0.00  0.00    +0.016 C 
ATOM     17  C   UNL     1      31.384  -6.606 -24.178  0.00  0.00    +0.016 C 
ATOM     18  C   UNL     1      31.010  -7.579 -23.246  0.00  0.00    +0.016 C 
ATOM     19  C   UNL     1      34.961  -6.284 -23.798  0.00  0.00    +0.017 C 
ATOM     20  C   UNL     1      34.730  -5.363 -24.794  0.00  0.00    +0.062 C 
ATOM     21  H   UNL     1      32.947  -4.794 -25.735  0.00  0.00    +0.152 HD
ENDBRANCH   1  15
BRANCH   6  23
ATOM     22  N   UNL     1      33.845 -14.757 -25.541  0.00  0.00    -0.242 NA
ATOM     23  C   UNL     1      33.048 -13.278 -23.307  0.00  0.00    +0.031 C 
ATOM     24  C   UNL     1      32.998 -12.709 -24.575  0.00  0.00    +0.023 C 
ATOM     25  C   UNL     1      33.497 -14.586 -23.155  0.00  0.00    +0.023 C 
ATOM     26  C   UNL     1      33.404 -13.483 -25.650  0.00  0.00    +0.099 C 
ATOM     27  C   UNL     1      33.881 -15.276 -24.294  0.00  0.00    +0.099 C 
ENDBRANCH   6  23
TORSDOF 2
ENDMDL
MODEL 8
REMARK VINA RESULT:      -9.4      8.021     12.998
REMARK  Name = 44177328
REMARK  2 active torsions:
REMARK  status: ('A' for Active; 'I' for Inactive)
REMARK    1  A    between atoms: N_1  and  C_15
REMARK    2  A    between atoms: C_6  and  C_23
REMARK                            x       y       z     vdW  Elec       q    Type
REMARK                         _______ _______ _______ _____ _____    ______ ____
ROOT
ATOM      1  N   UNL     1      33.613 -13.770 -23.976  0.00  0.00    -0.286 N 
ATOM      2  N   UNL     1      33.008 -11.850 -22.731  0.00  0.00    -0.386 NA
ATOM      3  N   UNL     1      33.226 -10.299 -25.058  0.00  0.00    -0.246 NA
ATOM      4  N   UNL     1      33.829 -12.242 -26.279  0.00  0.00    -0.340 N 
ATOM      5  C   UNL     1      33.355 -12.388 -23.917  0.00  0.00    +0.214 C 
ATOM      6  C   UNL     1      32.772 -10.523 -22.729  0.00  0.00    +0.135 C 
ATOM      7  C   UNL     1      33.462 -11.627 -25.060  0.00  0.00    +0.166 C 
ATOM      8  C   UNL     1      32.879  -9.762 -23.872  0.00  0.00    +0.185 C 
ATOM      9  H   UNL     1      33.402 -14.175 -24.848  0.00  0.00    +0.155 HD
ATOM     10  H   UNL     1      33.907 -11.703 -27.099  0.00  0.00    +0.144 HD
ATOM     11  H   UNL     1      34.007 -13.210 -26.307  0.00  0.00    +0.144 HD
ENDROOT
BRANCH   1  15
ATOM     12  N   UNL     1      35.635 -17.529 -20.455  0.00  0.00    -0.312 N 
ATOM     13  C   UNL     1      35.131 -16.828 -22.513  0.00  0.00    +0.016 C 
ATOM     14  C   UNL     1      35.093 -16.477 -21.161  0.00  0.00    +0.048 C 
ATOM     15  C   UNL     1      34.114 -14.690 -23.028  0.00  0.00    +0.050 C 
ATOM     16  C   UNL     1      34.631 -15.915 -23.464  0.00  0.00    +0.016 C 
ATOM     17  C   UNL     1      34.581 -15.255 -20.712  0.00  0.00    +0.016 C 
ATOM     18  C   UNL     1      34.090 -14.367 -21.673  0.00  0.00    +0.016 C 
ATOM     19  C   UNL     1      35.711 -18.125 -22.592  0.00  0.00    +0.017 C 
ATOM     20  C   UNL     1      36.010 -18.529 -21.312  0.00  0.00    +0.062 C 
ATOM     21  H   UNL     1      35.735 -17.557 -19.477  0.00  0.00    +0.152 HD
ENDBRANCH   1  15
BRANCH   6  23
ATOM     22  N   UNL     1      31.692  -8.840 -18.994  0.00  0.00    -0.242 NA
ATOM     23  C   UNL     1      32.404  -9.950 -21.459  0.00  0.00    +0.031 C 
ATOM     24  C   UNL     1      32.617  -8.598 -21.215  0.00  0.00    +0.023 C 
ATOM     25  C   UNL     1      31.834 -10.748 -20.472  0.00  0.00    +0.023 C 
ATOM     26  C   UNL     1      32.247  -8.096 -19.978  0.00  0.00    +0.099 C 
ATOM     27  C   UNL     1      31.499 -10.150 -19.268  0.00  0.00    +0.099 C 
ENDBRANCH   6  23
TORSDOF 2
ENDMDL
MODEL 9
REMARK VINA RESULT:      -9.2     11.405     14.868
REMARK  Name = 44177328
REMARK  2 active torsions:
REMARK  status: ('A' for Active; 'I' for Inactive)
REMARK    1  A    between atoms: N_1  and  C_15
REMARK    2  A    between atoms: C_6  and  C_23
REMARK                            x       y       z     vdW  Elec       q    Type
REMARK                         _______ _______ _______ _____ _____    ______ ____
ROOT
ATOM      1  N   UNL     1      31.950  -8.821 -21.606  0.00  0.00    -0.286 N 
ATOM      2  N   UNL     1      32.471 -10.954 -22.491  0.00  0.00    -0.386 NA
ATOM      3  N   UNL     1      31.839 -12.113 -20.017  0.00  0.00    -0.246 NA
ATOM      4  N   UNL     1      31.322  -9.962 -19.158  0.00  0.00    -0.340 N 
ATOM      5  C   UNL     1      32.061 -10.215 -21.442  0.00  0.00    +0.214 C 
ATOM      6  C   UNL     1      32.560 -12.282 -22.283  0.00  0.00    +0.135 C 
ATOM      7  C   UNL     1      31.749 -10.783 -20.226  0.00  0.00    +0.166 C 
ATOM      8  C   UNL     1      32.250 -12.851 -21.067  0.00  0.00    +0.185 C 
ATOM      9  H   UNL     1      31.253  -8.411 -21.044  0.00  0.00    +0.155 HD
ATOM     10  H   UNL     1      31.099 -10.363 -18.287  0.00  0.00    +0.144 HD
ATOM     11  H   UNL     1      31.249  -8.989 -19.285  0.00  0.00    +0.144 HD
ENDROOT
BRANCH   1  15
ATOM     12  N   UNL     1      34.440  -5.132 -24.891  0.00  0.00    -0.312 N 
ATOM     13  C   UNL     1      32.625  -6.186 -24.134  0.00  0.00    +0.016 C 
ATOM     14  C   UNL     1      34.013  -6.092 -24.001  0.00  0.00    +0.048 C 
ATOM     15  C   UNL     1      32.643  -7.897 -22.419  0.00  0.00    +0.050 C 
ATOM     16  C   UNL     1      31.928  -7.107 -23.326  0.00  0.00    +0.016 C 
ATOM     17  C   UNL     1      34.739  -6.874 -23.097  0.00  0.00    +0.016 C 
ATOM     18  C   UNL     1      34.026  -7.781 -22.307  0.00  0.00    +0.016 C 
ATOM     19  C   UNL     1      32.237  -5.251 -25.134  0.00  0.00    +0.017 C 
ATOM     20  C   UNL     1      33.375  -4.619 -25.580  0.00  0.00    +0.062 C 
ATOM     21  H   UNL     1      35.377  -4.857 -25.015  0.00  0.00    +0.152 HD
ENDBRANCH   1  15
BRANCH   6  23
ATOM     22  N   UNL     1      33.862 -14.594 -25.584  0.00  0.00    -0.242 NA
ATOM     23  C   UNL     1      33.003 -13.069 -23.405  0.00  0.00    +0.031 C 
ATOM     24  C   UNL     1      33.380 -14.395 -23.224  0.00  0.00    +0.023 C 
ATOM     25  C   UNL     1      33.054 -12.505 -24.675  0.00  0.00    +0.023 C 
ATOM     26  C   UNL     1      33.798 -15.108 -24.335  0.00  0.00    +0.099 C 
ATOM     27  C   UNL     1      33.487 -13.302 -25.722  0.00  0.00    +0.099 C 
ENDBRANCH   6  23
TORSDOF 2
ENDMDL
