MODEL 1
REMARK VINA RESULT:     -11.7      0.000      0.000
REMARK  Name = 3168
REMARK  6 active torsions:
REMARK  status: ('A' for Active; 'I' for Inactive)
REMARK    1  A    between atoms: N_1  and  C_19
REMARK    2  A    between atoms: C_5  and  N_9
REMARK    3  A    between atoms: C_19  and  C_20
REMARK    4  A    between atoms: C_20  and  C_21
REMARK    5  A    between atoms: C_21  and  C_23
REMARK    6  A    between atoms: C_23  and  C_25
REMARK                            x       y       z     vdW  Elec       q    Type
REMARK                         _______ _______ _______ _____ _____    ______ ____
ROOT
ATOM      1  N   UNL     1      34.069 -16.149 -23.740  0.00  0.00    +0.390 N 
ATOM      2  C   UNL     1      34.957 -15.446 -22.806  0.00  0.00    -0.071 C 
ATOM      3  C   UNL     1      34.251 -14.209 -22.229  0.00  0.00    +0.021 C 
ATOM      4  C   UNL     1      33.737 -15.294 -24.891  0.00  0.00    -0.049 C 
ATOM      5  C   UNL     1      33.544 -13.403 -23.283  0.00  0.00    +0.037 C 
ATOM      6  C   UNL     1      33.324 -13.899 -24.509  0.00  0.00    -0.036 C 
ATOM      7  H   UNL     1      33.206 -16.369 -23.244  0.00  0.00    -0.079 HD
ENDROOT
BRANCH   5   9
ATOM      8  O   UNL     1      31.430 -12.566 -21.337  0.00  0.00    -0.246 OA
ATOM      9  N   UNL     1      33.152 -12.140 -22.942  0.00  0.00    -0.263 N 
ATOM     10  N   UNL     1      32.072 -10.384 -21.970  0.00  0.00    -0.305 N 
ATOM     11  C   UNL     1      33.686 -10.943 -23.457  0.00  0.00    +0.083 A 
ATOM     12  C   UNL     1      32.127 -11.806 -21.997  0.00  0.00    +0.332 A 
ATOM     13  C   UNL     1      33.019  -9.877 -22.857  0.00  0.00    +0.076 A 
ATOM     14  C   UNL     1      34.683 -10.729 -24.386  0.00  0.00    +0.019 C 
ATOM     15  C   UNL     1      33.308  -8.562 -23.149  0.00  0.00    +0.019 C 
ATOM     16  C   UNL     1      34.996  -9.402 -24.700  0.00  0.00    +0.002 C 
ATOM     17  C   UNL     1      34.316  -8.330 -24.087  0.00  0.00    +0.002 C 
ATOM     18  H   UNL     1      31.462  -9.845 -21.415  0.00  0.00    +0.170 HD
ENDBRANCH   5   9
BRANCH   1  19
ATOM     19  C   UNL     1      34.666 -17.408 -24.185  0.00  0.00    -0.076 C 
BRANCH  19  20
ATOM     20  C   UNL     1      34.161 -18.566 -23.323  0.00  0.00    -0.015 C 
BRANCH  20  21
ATOM     21  C   UNL     1      35.302 -19.310 -22.624  0.00  0.00    +0.067 C 
BRANCH  21  23
ATOM     22  O   UNL     1      35.680 -18.061 -20.594  0.00  0.00    -0.291 OA
ATOM     23  C   UNL     1      35.317 -19.113 -21.115  0.00  0.00    +0.173 C 
BRANCH  23  25
ATOM     24  F   UNL     1      33.589 -23.297 -17.848  0.00  0.00    -0.204 F 
ATOM     25  C   UNL     1      34.857 -20.231 -20.244  0.00  0.00    +0.035 C 
ATOM     26  C   UNL     1      33.504 -20.449 -20.108  0.00  0.00    +0.005 C 
ATOM     27  C   UNL     1      35.800 -21.004 -19.605  0.00  0.00    +0.005 C 
ATOM     28  C   UNL     1      33.072 -21.494 -19.291  0.00  0.00    +0.030 C 
ATOM     29  C   UNL     1      35.369 -22.049 -18.788  0.00  0.00    +0.030 C 
ATOM     30  C   UNL     1      34.004 -22.294 -18.631  0.00  0.00    +0.140 C 
ENDBRANCH  23  25
ENDBRANCH  21  23
ENDBRANCH  20  21
ENDBRANCH  19  20
ENDBRANCH   1  19
TORSDOF 6
ENDMDL
MODEL 2
REMARK VINA RESULT:     -11.4      3.820     10.181
REMARK  Name = 3168
REMARK  6 active torsions:
REMARK  status: ('A' for Active; 'I' for Inactive)
REMARK    1  A    between atoms: N_1  and  C_19
REMARK    2  A    between atoms: C_5  and  N_9
REMARK    3  A    between atoms: C_19  and  C_20
REMARK    4  A    between atoms: C_20  and  C_21
REMARK    5  A    between atoms: C_21  and  C_23
REMARK    6  A    between atoms: C_23  and  C_25
REMARK                            x       y       z     vdW  Elec       q    Type
REMARK                         _______ _______ _______ _____ _____    ______ ____
ROOT
ATOM      1  N   UNL     1      34.102 -16.210 -23.629  0.00  0.00    +0.390 N 
ATOM      2  C   UNL     1      34.689 -17.410 -24.238  0.00  0.00    -0.071 C 
ATOM      3  C   UNL     1      34.729 -18.559 -23.219  0.00  0.00    +0.021 C 
ATOM      4  C   UNL     1      34.928 -15.735 -22.507  0.00  0.00    -0.049 C 
ATOM      5  C   UNL     1      35.236 -18.123 -21.874  0.00  0.00    +0.037 C 
ATOM      6  C   UNL     1      35.341 -16.824 -21.556  0.00  0.00    -0.036 C 
ATOM      7  H   UNL     1      33.183 -16.462 -23.266  0.00  0.00    -0.079 HD
ENDROOT
BRANCH   5   9
ATOM      8  O   UNL     1      37.970 -18.804 -20.867  0.00  0.00    -0.246 OA
ATOM      9  N   UNL     1      35.601 -19.104 -20.998  0.00  0.00    -0.263 N 
ATOM     10  N   UNL     1      36.829 -20.477 -19.655  0.00  0.00    -0.305 N 
ATOM     11  C   UNL     1      34.731 -20.019 -20.374  0.00  0.00    +0.083 A 
ATOM     12  C   UNL     1      36.937 -19.379 -20.554  0.00  0.00    +0.332 A 
ATOM     13  C   UNL     1      35.491 -20.853 -19.557  0.00  0.00    +0.076 A 
ATOM     14  C   UNL     1      33.363 -20.168 -20.470  0.00  0.00    +0.019 C 
ATOM     15  C   UNL     1      34.934 -21.864 -18.804  0.00  0.00    +0.019 C 
ATOM     16  C   UNL     1      32.772 -21.188 -19.715  0.00  0.00    +0.002 C 
ATOM     17  C   UNL     1      33.550 -22.026 -18.891  0.00  0.00    +0.002 C 
ATOM     18  H   UNL     1      37.579 -20.903 -19.179  0.00  0.00    +0.170 HD
ENDBRANCH   5   9
BRANCH   1  19
ATOM     19  C   UNL     1      33.919 -15.152 -24.622  0.00  0.00    -0.076 C 
BRANCH  19  20
ATOM     20  C   UNL     1      33.085 -14.013 -24.033  0.00  0.00    -0.015 C 
BRANCH  20  21
ATOM     21  C   UNL     1      33.943 -12.804 -23.648  0.00  0.00    +0.067 C 
BRANCH  21  23
ATOM     22  O   UNL     1      33.450 -11.684 -25.729  0.00  0.00    -0.291 OA
ATOM     23  C   UNL     1      33.701 -11.587 -24.530  0.00  0.00    +0.173 C 
BRANCH  23  25
ATOM     24  F   UNL     1      33.900  -6.518 -22.198  0.00  0.00    -0.204 F 
ATOM     25  C   UNL     1      33.752 -10.233 -23.908  0.00  0.00    +0.035 C 
ATOM     26  C   UNL     1      34.864  -9.449 -24.125  0.00  0.00    +0.005 C 
ATOM     27  C   UNL     1      32.689  -9.817 -23.140  0.00  0.00    +0.005 C 
ATOM     28  C   UNL     1      34.914  -8.183 -23.541  0.00  0.00    +0.030 C 
ATOM     29  C   UNL     1      32.739  -8.551 -22.556  0.00  0.00    +0.030 C 
ATOM     30  C   UNL     1      33.852  -7.733 -22.757  0.00  0.00    +0.140 C 
ENDBRANCH  23  25
ENDBRANCH  21  23
ENDBRANCH  20  21
ENDBRANCH  19  20
ENDBRANCH   1  19
TORSDOF 6
ENDMDL
MODEL 3
REMARK VINA RESULT:     -11.4      1.458      2.372
REMARK  Name = 3168
REMARK  6 active torsions:
REMARK  status: ('A' for Active; 'I' for Inactive)
REMARK    1  A    between atoms: N_1  and  C_19
REMARK    2  A    between atoms: C_5  and  N_9
REMARK    3  A    between atoms: C_19  and  C_20
REMARK    4  A    between atoms: C_20  and  C_21
REMARK    5  A    between atoms: C_21  and  C_23
REMARK    6  A    between atoms: C_23  and  C_25
REMARK                            x       y       z     vdW  Elec       q    Type
REMARK                         _______ _______ _______ _____ _____    ______ ____
ROOT
ATOM      1  N   UNL     1      34.741 -16.005 -23.974  0.00  0.00    +0.390 N 
ATOM      2  C   UNL     1      33.502 -15.620 -24.661  0.00  0.00    -0.071 C 
ATOM      3  C   UNL     1      33.419 -14.091 -24.795  0.00  0.00    +0.021 C 
ATOM      4  C   UNL     1      34.766 -15.471 -22.602  0.00  0.00    -0.049 C 
ATOM      5  C   UNL     1      33.778 -13.378 -23.521  0.00  0.00    +0.037 C 
ATOM      6  C   UNL     1      34.383 -14.019 -22.510  0.00  0.00    -0.036 C 
ATOM      7  H   UNL     1      35.522 -15.600 -24.490  0.00  0.00    -0.079 HD
ENDROOT
BRANCH   5   9
ATOM      8  O   UNL     1      34.495 -11.145 -25.379  0.00  0.00    -0.246 OA
ATOM      9  N   UNL     1      33.447 -12.057 -23.433  0.00  0.00    -0.263 N 
ATOM     10  N   UNL     1      33.256  -9.827 -23.864  0.00  0.00    -0.305 N 
ATOM     11  C   UNL     1      32.675 -11.466 -22.414  0.00  0.00    +0.083 A 
ATOM     12  C   UNL     1      33.825 -11.032 -24.362  0.00  0.00    +0.332 A 
ATOM     13  C   UNL     1      32.565 -10.104 -22.686  0.00  0.00    +0.076 A 
ATOM     14  C   UNL     1      32.081 -12.021 -21.298  0.00  0.00    +0.019 C 
ATOM     15  C   UNL     1      31.867  -9.238 -21.873  0.00  0.00    +0.019 C 
ATOM     16  C   UNL     1      31.366 -11.162 -20.456  0.00  0.00    +0.002 C 
ATOM     17  C   UNL     1      31.260  -9.785 -20.741  0.00  0.00    +0.002 C 
ATOM     18  H   UNL     1      33.338  -8.939 -24.283  0.00  0.00    +0.170 HD
ENDBRANCH   5   9
BRANCH   1  19
ATOM     19  C   UNL     1      34.908 -17.457 -23.968  0.00  0.00    -0.076 C 
BRANCH  19  20
ATOM     20  C   UNL     1      35.622 -17.900 -22.689  0.00  0.00    -0.015 C 
BRANCH  20  21
ATOM     21  C   UNL     1      35.038 -19.196 -22.118  0.00  0.00    +0.067 C 
BRANCH  21  23
ATOM     22  O   UNL     1      36.682 -19.106 -20.352  0.00  0.00    -0.291 OA
ATOM     23  C   UNL     1      35.626 -19.579 -20.767  0.00  0.00    +0.173 C 
BRANCH  23  25
ATOM     24  F   UNL     1      32.837 -23.206 -17.567  0.00  0.00    -0.204 F 
ATOM     25  C   UNL     1      34.882 -20.549 -19.914  0.00  0.00    +0.035 C 
ATOM     26  C   UNL     1      33.507 -20.555 -19.966  0.00  0.00    +0.005 C 
ATOM     27  C   UNL     1      35.598 -21.401 -19.103  0.00  0.00    +0.005 C 
ATOM     28  C   UNL     1      32.809 -21.460 -19.166  0.00  0.00    +0.030 C 
ATOM     29  C   UNL     1      34.901 -22.307 -18.302  0.00  0.00    +0.030 C 
ATOM     30  C   UNL     1      33.506 -22.336 -18.334  0.00  0.00    +0.140 C 
ENDBRANCH  23  25
ENDBRANCH  21  23
ENDBRANCH  20  21
ENDBRANCH  19  20
ENDBRANCH   1  19
TORSDOF 6
ENDMDL
MODEL 4
REMARK VINA RESULT:     -10.9      1.162      1.609
REMARK  Name = 3168
REMARK  6 active torsions:
REMARK  status: ('A' for Active; 'I' for Inactive)
REMARK    1  A    between atoms: N_1  and  C_19
REMARK    2  A    between atoms: C_5  and  N_9
REMARK    3  A    between atoms: C_19  and  C_20
REMARK    4  A    between atoms: C_20  and  C_21
REMARK    5  A    between atoms: C_21  and  C_23
REMARK    6  A    between atoms: C_23  and  C_25
REMARK                            x       y       z     vdW  Elec       q    Type
REMARK                         _______ _______ _______ _____ _____    ______ ____
ROOT
ATOM      1  N   UNL     1      34.593 -14.818 -23.175  0.00  0.00    +0.390 N 
ATOM      2  C   UNL     1      33.538 -14.454 -24.127  0.00  0.00    -0.071 C 
ATOM      3  C   UNL     1      33.330 -12.931 -24.135  0.00  0.00    +0.021 C 
ATOM      4  C   UNL     1      34.210 -14.450 -21.802  0.00  0.00    -0.049 C 
ATOM      5  C   UNL     1      33.272 -12.348 -22.750  0.00  0.00    +0.037 C 
ATOM      6  C   UNL     1      33.662 -13.055 -21.679  0.00  0.00    -0.036 C 
ATOM      7  H   UNL     1      35.433 -14.295 -23.424  0.00  0.00    -0.079 HD
ENDROOT
BRANCH   5   9
ATOM      8  O   UNL     1      30.750 -11.426 -21.431  0.00  0.00    -0.246 OA
ATOM      9  N   UNL     1      32.790 -11.076 -22.630  0.00  0.00    -0.263 N 
ATOM     10  N   UNL     1      31.483  -9.285 -22.103  0.00  0.00    -0.305 N 
ATOM     11  C   UNL     1      33.408  -9.910 -23.119  0.00  0.00    +0.083 A 
ATOM     12  C   UNL     1      31.567 -10.700 -21.982  0.00  0.00    +0.332 A 
ATOM     13  C   UNL     1      32.601  -8.821 -22.792  0.00  0.00    +0.076 A 
ATOM     14  C   UNL     1      34.590  -9.740 -23.810  0.00  0.00    +0.019 C 
ATOM     15  C   UNL     1      32.928  -7.527 -23.132  0.00  0.00    +0.019 C 
ATOM     16  C   UNL     1      34.944  -8.434 -24.167  0.00  0.00    +0.002 C 
ATOM     17  C   UNL     1      34.121  -7.339 -23.831  0.00  0.00    +0.002 C 
ATOM     18  H   UNL     1      30.752  -8.723 -21.756  0.00  0.00    +0.170 HD
ENDBRANCH   5   9
BRANCH   1  19
ATOM     19  C   UNL     1      34.908 -16.243 -23.260  0.00  0.00    -0.076 C 
BRANCH  19  20
ATOM     20  C   UNL     1      35.256 -16.791 -21.875  0.00  0.00    -0.015 C 
BRANCH  20  21
ATOM     21  C   UNL     1      35.843 -18.204 -21.939  0.00  0.00    +0.067 C 
BRANCH  21  23
ATOM     22  O   UNL     1      34.023 -19.484 -22.876  0.00  0.00    -0.291 OA
ATOM     23  C   UNL     1      34.785 -19.298 -21.929  0.00  0.00    +0.173 C 
BRANCH  23  25
ATOM     24  F   UNL     1      34.408 -22.615 -17.453  0.00  0.00    -0.204 F 
ATOM     25  C   UNL     1      34.685 -20.185 -20.735  0.00  0.00    +0.035 C 
ATOM     26  C   UNL     1      33.435 -20.526 -20.268  0.00  0.00    +0.005 C 
ATOM     27  C   UNL     1      35.845 -20.629 -20.142  0.00  0.00    +0.005 C 
ATOM     28  C   UNL     1      33.341 -21.354 -19.150  0.00  0.00    +0.030 C 
ATOM     29  C   UNL     1      35.752 -21.457 -19.023  0.00  0.00    +0.030 C 
ATOM     30  C   UNL     1      34.499 -21.820 -18.527  0.00  0.00    +0.140 C 
ENDBRANCH  23  25
ENDBRANCH  21  23
ENDBRANCH  20  21
ENDBRANCH  19  20
ENDBRANCH   1  19
TORSDOF 6
ENDMDL
MODEL 5
REMARK VINA RESULT:     -10.9      5.348     11.690
REMARK  Name = 3168
REMARK  6 active torsions:
REMARK  status: ('A' for Active; 'I' for Inactive)
REMARK    1  A    between atoms: N_1  and  C_19
REMARK    2  A    between atoms: C_5  and  N_9
REMARK    3  A    between atoms: C_19  and  C_20
REMARK    4  A    between atoms: C_20  and  C_21
REMARK    5  A    between atoms: C_21  and  C_23
REMARK    6  A    between atoms: C_23  and  C_25
REMARK                            x       y       z     vdW  Elec       q    Type
REMARK                         _______ _______ _______ _____ _____    ______ ____
ROOT
ATOM      1  N   UNL     1      35.178 -21.304 -18.748  0.00  0.00    +0.390 N 
ATOM      2  C   UNL     1      34.306 -22.454 -19.017  0.00  0.00    -0.071 C 
ATOM      3  C   UNL     1      33.665 -22.953 -17.713  0.00  0.00    +0.021 C 
ATOM      4  C   UNL     1      36.291 -21.686 -17.864  0.00  0.00    -0.049 C 
ATOM      5  C   UNL     1      34.653 -23.057 -16.585  0.00  0.00    +0.037 C 
ATOM      6  C   UNL     1      35.864 -22.487 -16.665  0.00  0.00    -0.036 C 
ATOM      7  H   UNL     1      34.621 -20.594 -18.273  0.00  0.00    -0.079 HD
ENDROOT
BRANCH   5   9
ATOM      8  O   UNL     1      36.228 -25.061 -15.018  0.00  0.00    -0.246 OA
ATOM      9  N   UNL     1      34.270 -23.770 -15.485  0.00  0.00    -0.263 N 
ATOM     10  N   UNL     1      34.266 -25.204 -13.714  0.00  0.00    -0.305 N 
ATOM     11  C   UNL     1      33.015 -23.699 -14.852  0.00  0.00    +0.083 A 
ATOM     12  C   UNL     1      35.078 -24.720 -14.778  0.00  0.00    +0.332 A 
ATOM     13  C   UNL     1      33.023 -24.578 -13.771  0.00  0.00    +0.076 A 
ATOM     14  C   UNL     1      31.899 -22.941 -15.146  0.00  0.00    +0.019 C 
ATOM     15  C   UNL     1      31.936 -24.745 -12.941  0.00  0.00    +0.019 C 
ATOM     16  C   UNL     1      30.782 -23.092 -14.318  0.00  0.00    +0.002 C 
ATOM     17  C   UNL     1      30.801 -23.984 -13.227  0.00  0.00    +0.002 C 
ATOM     18  H   UNL     1      34.540 -25.873 -13.044  0.00  0.00    +0.170 HD
ENDBRANCH   5   9
BRANCH   1  19
ATOM     19  C   UNL     1      35.681 -20.723 -19.992  0.00  0.00    -0.076 C 
BRANCH  19  20
ATOM     20  C   UNL     1      34.591 -19.885 -20.662  0.00  0.00    -0.015 C 
BRANCH  20  21
ATOM     21  C   UNL     1      34.888 -19.618 -22.140  0.00  0.00    +0.067 C 
BRANCH  21  23
ATOM     22  O   UNL     1      36.962 -18.382 -22.163  0.00  0.00    -0.291 OA
ATOM     23  C   UNL     1      35.750 -18.385 -22.370  0.00  0.00    +0.173 C 
BRANCH  23  25
ATOM     24  F   UNL     1      33.313 -13.741 -24.284  0.00  0.00    -0.204 F 
ATOM     25  C   UNL     1      35.101 -17.145 -22.883  0.00  0.00    +0.035 C 
ATOM     26  C   UNL     1      35.034 -16.045 -22.057  0.00  0.00    +0.005 C 
ATOM     27  C   UNL     1      34.590 -17.145 -24.161  0.00  0.00    +0.005 C 
ATOM     28  C   UNL     1      34.424 -14.885 -22.534  0.00  0.00    +0.030 C 
ATOM     29  C   UNL     1      33.980 -15.985 -24.639  0.00  0.00    +0.030 C 
ATOM     30  C   UNL     1      33.898 -14.854 -23.825  0.00  0.00    +0.140 C 
ENDBRANCH  23  25
ENDBRANCH  21  23
ENDBRANCH  20  21
ENDBRANCH  19  20
ENDBRANCH   1  19
TORSDOF 6
ENDMDL
MODEL 6
REMARK VINA RESULT:     -10.9      2.866      4.909
REMARK  Name = 3168
REMARK  6 active torsions:
REMARK  status: ('A' for Active; 'I' for Inactive)
REMARK    1  A    between atoms: N_1  and  C_19
REMARK    2  A    between atoms: C_5  and  N_9
REMARK    3  A    between atoms: C_19  and  C_20
REMARK    4  A    between atoms: C_20  and  C_21
REMARK    5  A    between atoms: C_21  and  C_23
REMARK    6  A    between atoms: C_23  and  C_25
REMARK                            x       y       z     vdW  Elec       q    Type
REMARK                         _______ _______ _______ _____ _____    ______ ____
ROOT
ATOM      1  N   UNL     1      32.624 -11.838 -22.094  0.00  0.00    +0.390 N 
ATOM      2  C   UNL     1      32.909 -10.958 -23.234  0.00  0.00    -0.071 C 
ATOM      3  C   UNL     1      33.201  -9.530 -22.745  0.00  0.00    +0.021 C 
ATOM      4  C   UNL     1      31.415 -11.394 -21.379  0.00  0.00    -0.049 C 
ATOM      5  C   UNL     1      32.216  -9.060 -21.711  0.00  0.00    +0.037 C 
ATOM      6  C   UNL     1      31.387  -9.917 -21.097  0.00  0.00    -0.036 C 
ATOM      7  H   UNL     1      33.414 -11.783 -21.452  0.00  0.00    -0.079 HD
ENDROOT
BRANCH   5   9
ATOM      8  O   UNL     1      32.743  -7.677 -19.111  0.00  0.00    -0.246 OA
ATOM      9  N   UNL     1      32.192  -7.722 -21.437  0.00  0.00    -0.263 N 
ATOM     10  N   UNL     1      32.315  -5.719 -20.358  0.00  0.00    -0.305 N 
ATOM     11  C   UNL     1      31.904  -6.697 -22.358  0.00  0.00    +0.083 A 
ATOM     12  C   UNL     1      32.455  -7.121 -20.163  0.00  0.00    +0.332 A 
ATOM     13  C   UNL     1      31.982  -5.477 -21.689  0.00  0.00    +0.076 A 
ATOM     14  C   UNL     1      31.588  -6.755 -23.701  0.00  0.00    +0.019 C 
ATOM     15  C   UNL     1      31.753  -4.271 -22.314  0.00  0.00    +0.019 C 
ATOM     16  C   UNL     1      31.350  -5.543 -24.358  0.00  0.00    +0.002 C 
ATOM     17  C   UNL     1      31.432  -4.315 -23.672  0.00  0.00    +0.002 C 
ATOM     18  H   UNL     1      32.435  -5.030 -19.664  0.00  0.00    +0.170 HD
ENDBRANCH   5   9
BRANCH   1  19
ATOM     19  C   UNL     1      32.489 -13.228 -22.525  0.00  0.00    -0.076 C 
BRANCH  19  20
ATOM     20  C   UNL     1      33.416 -13.507 -23.709  0.00  0.00    -0.015 C 
BRANCH  20  21
ATOM     21  C   UNL     1      34.551 -14.468 -23.345  0.00  0.00    +0.067 C 
BRANCH  21  23
ATOM     22  O   UNL     1      34.095 -15.961 -25.186  0.00  0.00    -0.291 OA
ATOM     23  C   UNL     1      34.424 -15.832 -24.009  0.00  0.00    +0.173 C 
BRANCH  23  25
ATOM     24  F   UNL     1      35.558 -20.395 -20.998  0.00  0.00    -0.204 F 
ATOM     25  C   UNL     1      34.729 -17.050 -23.205  0.00  0.00    +0.035 C 
ATOM     26  C   UNL     1      34.401 -18.282 -23.725  0.00  0.00    +0.005 C 
ATOM     27  C   UNL     1      35.324 -16.898 -21.974  0.00  0.00    +0.005 C 
ATOM     28  C   UNL     1      34.684 -19.423 -22.972  0.00  0.00    +0.030 C 
ATOM     29  C   UNL     1      35.606 -18.037 -21.220  0.00  0.00    +0.030 C 
ATOM     30  C   UNL     1      35.286 -19.300 -21.720  0.00  0.00    +0.140 C 
ENDBRANCH  23  25
ENDBRANCH  21  23
ENDBRANCH  20  21
ENDBRANCH  19  20
ENDBRANCH   1  19
TORSDOF 6
ENDMDL
MODEL 7
REMARK VINA RESULT:     -10.8      3.693      9.602
REMARK  Name = 3168
REMARK  6 active torsions:
REMARK  status: ('A' for Active; 'I' for Inactive)
REMARK    1  A    between atoms: N_1  and  C_19
REMARK    2  A    between atoms: C_5  and  N_9
REMARK    3  A    between atoms: C_19  and  C_20
REMARK    4  A    between atoms: C_20  and  C_21
REMARK    5  A    between atoms: C_21  and  C_23
REMARK    6  A    between atoms: C_23  and  C_25
REMARK                            x       y       z     vdW  Elec       q    Type
REMARK                         _______ _______ _______ _____ _____    ______ ____
ROOT
ATOM      1  N   UNL     1      34.044 -15.763 -23.268  0.00  0.00    +0.390 N 
ATOM      2  C   UNL     1      34.828 -16.755 -24.014  0.00  0.00    -0.071 C 
ATOM      3  C   UNL     1      34.937 -18.061 -23.211  0.00  0.00    +0.021 C 
ATOM      4  C   UNL     1      34.710 -15.412 -22.003  0.00  0.00    -0.049 C 
ATOM      5  C   UNL     1      35.277 -17.825 -21.766  0.00  0.00    +0.037 C 
ATOM      6  C   UNL     1      35.186 -16.604 -21.219  0.00  0.00    -0.036 C 
ATOM      7  H   UNL     1      33.140 -16.181 -23.049  0.00  0.00    -0.079 HD
ENDROOT
BRANCH   5   9
ATOM      8  O   UNL     1      38.075 -18.661 -21.114  0.00  0.00    -0.246 OA
ATOM      9  N   UNL     1      35.697 -18.903 -21.041  0.00  0.00    -0.263 N 
ATOM     10  N   UNL     1      37.009 -20.437 -19.983  0.00  0.00    -0.305 N 
ATOM     11  C   UNL     1      34.865 -19.865 -20.437  0.00  0.00    +0.083 A 
ATOM     12  C   UNL     1      37.060 -19.249 -20.764  0.00  0.00    +0.332 A 
ATOM     13  C   UNL     1      35.677 -20.798 -19.793  0.00  0.00    +0.076 A 
ATOM     14  C   UNL     1      33.490 -19.979 -20.412  0.00  0.00    +0.019 C 
ATOM     15  C   UNL     1      35.166 -21.875 -19.102  0.00  0.00    +0.019 C 
ATOM     16  C   UNL     1      32.946 -21.065 -19.717  0.00  0.00    +0.002 C 
ATOM     17  C   UNL     1      33.776 -22.003 -19.069  0.00  0.00    +0.002 C 
ATOM     18  H   UNL     1      37.789 -20.926 -19.632  0.00  0.00    +0.170 HD
ENDBRANCH   5   9
BRANCH   1  19
ATOM     19  C   UNL     1      33.804 -14.568 -24.076  0.00  0.00    -0.076 C 
BRANCH  19  20
ATOM     20  C   UNL     1      33.800 -13.323 -23.188  0.00  0.00    -0.015 C 
BRANCH  20  21
ATOM     21  C   UNL     1      32.382 -12.871 -22.827  0.00  0.00    +0.067 C 
BRANCH  21  23
ATOM     22  O   UNL     1      32.104 -13.602 -20.544  0.00  0.00    -0.291 OA
ATOM     23  C   UNL     1      32.176 -12.663 -21.334  0.00  0.00    +0.173 C 
BRANCH  23  25
ATOM     24  F   UNL     1      31.814  -7.443 -19.386  0.00  0.00    -0.204 F 
ATOM     25  C   UNL     1      32.078 -11.269 -20.813  0.00  0.00    +0.035 C 
ATOM     26  C   UNL     1      32.081 -10.227 -21.712  0.00  0.00    +0.005 C 
ATOM     27  C   UNL     1      31.989 -11.076 -19.453  0.00  0.00    +0.005 C 
ATOM     28  C   UNL     1      31.992  -8.922 -21.226  0.00  0.00    +0.030 C 
ATOM     29  C   UNL     1      31.899  -9.772 -18.966  0.00  0.00    +0.030 C 
ATOM     30  C   UNL     1      31.900  -8.695 -19.853  0.00  0.00    +0.140 C 
ENDBRANCH  23  25
ENDBRANCH  21  23
ENDBRANCH  20  21
ENDBRANCH  19  20
ENDBRANCH   1  19
TORSDOF 6
ENDMDL
MODEL 8
REMARK VINA RESULT:     -10.7      3.027      5.209
REMARK  Name = 3168
REMARK  6 active torsions:
REMARK  status: ('A' for Active; 'I' for Inactive)
REMARK    1  A    between atoms: N_1  and  C_19
REMARK    2  A    between atoms: C_5  and  N_9
REMARK    3  A    between atoms: C_19  and  C_20
REMARK    4  A    between atoms: C_20  and  C_21
REMARK    5  A    between atoms: C_21  and  C_23
REMARK    6  A    between atoms: C_23  and  C_25
REMARK                            x       y       z     vdW  Elec       q    Type
REMARK                         _______ _______ _______ _____ _____    ______ ____
ROOT
ATOM      1  N   UNL     1      33.435 -10.812 -24.103  0.00  0.00    +0.390 N 
ATOM      2  C   UNL     1      32.722 -10.933 -22.825  0.00  0.00    -0.071 C 
ATOM      3  C   UNL     1      32.085  -9.587 -22.441  0.00  0.00    +0.021 C 
ATOM      4  C   UNL     1      34.544  -9.849 -23.995  0.00  0.00    -0.049 C 
ATOM      5  C   UNL     1      33.025  -8.429 -22.625  0.00  0.00    +0.037 C 
ATOM      6  C   UNL     1      34.161  -8.557 -23.326  0.00  0.00    -0.036 C 
ATOM      7  H   UNL     1      32.774 -10.462 -24.797  0.00  0.00    -0.079 HD
ENDROOT
BRANCH   5   9
ATOM      8  O   UNL     1      33.006  -7.733 -19.715  0.00  0.00    -0.246 OA
ATOM      9  N   UNL     1      32.680  -7.247 -22.034  0.00  0.00    -0.263 N 
ATOM     10  N   UNL     1      32.262  -5.629 -20.484  0.00  0.00    -0.305 N 
ATOM     11  C   UNL     1      32.252  -6.085 -22.703  0.00  0.00    +0.083 A 
ATOM     12  C   UNL     1      32.693  -6.978 -20.626  0.00  0.00    +0.332 A 
ATOM     13  C   UNL     1      31.999  -5.102 -21.747  0.00  0.00    +0.076 A 
ATOM     14  C   UNL     1      32.074  -5.834 -24.048  0.00  0.00    +0.019 C 
ATOM     15  C   UNL     1      31.562  -3.839 -22.079  0.00  0.00    +0.019 C 
ATOM     16  C   UNL     1      31.630  -4.558 -24.411  0.00  0.00    +0.002 C 
ATOM     17  C   UNL     1      31.377  -3.571 -23.436  0.00  0.00    +0.002 C 
ATOM     18  H   UNL     1      32.165  -5.146 -19.632  0.00  0.00    +0.170 HD
ENDBRANCH   5   9
BRANCH   1  19
ATOM     19  C   UNL     1      33.921 -12.113 -24.558  0.00  0.00    -0.076 C 
BRANCH  19  20
ATOM     20  C   UNL     1      33.272 -13.234 -23.744  0.00  0.00    -0.015 C 
BRANCH  20  21
ATOM     21  C   UNL     1      34.293 -14.271 -23.267  0.00  0.00    +0.067 C 
BRANCH  21  23
ATOM     22  O   UNL     1      33.992 -15.581 -25.272  0.00  0.00    -0.291 OA
ATOM     23  C   UNL     1      34.264 -15.562 -24.074  0.00  0.00    +0.173 C 
BRANCH  23  25
ATOM     24  F   UNL     1      35.521 -20.354 -21.500  0.00  0.00    -0.204 F 
ATOM     25  C   UNL     1      34.598 -16.842 -23.387  0.00  0.00    +0.035 C 
ATOM     26  C   UNL     1      35.267 -16.790 -22.184  0.00  0.00    +0.005 C 
ATOM     27  C   UNL     1      34.227 -18.027 -23.979  0.00  0.00    +0.005 C 
ATOM     28  C   UNL     1      35.582 -17.988 -21.541  0.00  0.00    +0.030 C 
ATOM     29  C   UNL     1      34.542 -19.225 -23.337  0.00  0.00    +0.030 C 
ATOM     30  C   UNL     1      35.219 -19.205 -22.117  0.00  0.00    +0.140 C 
ENDBRANCH  23  25
ENDBRANCH  21  23
ENDBRANCH  20  21
ENDBRANCH  19  20
ENDBRANCH   1  19
TORSDOF 6
ENDMDL
MODEL 9
REMARK VINA RESULT:     -10.6      3.207      5.582
REMARK  Name = 3168
REMARK  6 active torsions:
REMARK  status: ('A' for Active; 'I' for Inactive)
REMARK    1  A    between atoms: N_1  and  C_19
REMARK    2  A    between atoms: C_5  and  N_9
REMARK    3  A    between atoms: C_19  and  C_20
REMARK    4  A    between atoms: C_20  and  C_21
REMARK    5  A    between atoms: C_21  and  C_23
REMARK    6  A    between atoms: C_23  and  C_25
REMARK                            x       y       z     vdW  Elec       q    Type
REMARK                         _______ _______ _______ _____ _____    ______ ____
ROOT
ATOM      1  N   UNL     1      36.066 -19.862 -19.958  0.00  0.00    +0.390 N 
ATOM      2  C   UNL     1      37.102 -19.319 -20.845  0.00  0.00    -0.071 C 
ATOM      3  C   UNL     1      36.623 -18.006 -21.483  0.00  0.00    +0.021 C 
ATOM      4  C   UNL     1      34.850 -20.196 -20.718  0.00  0.00    -0.049 C 
ATOM      5  C   UNL     1      35.215 -18.096 -22.004  0.00  0.00    +0.037 C 
ATOM      6  C   UNL     1      34.409 -19.112 -21.662  0.00  0.00    -0.036 C 
ATOM      7  H   UNL     1      35.830 -19.142 -19.276  0.00  0.00    -0.079 HD
ENDROOT
BRANCH   5   9
ATOM      8  O   UNL     1      34.671 -18.264 -24.941  0.00  0.00    -0.246 OA
ATOM      9  N   UNL     1      34.801 -17.109 -22.852  0.00  0.00    -0.263 N 
ATOM     10  N   UNL     1      34.146 -15.974 -24.717  0.00  0.00    -0.305 N 
ATOM     11  C   UNL     1      34.538 -15.772 -22.496  0.00  0.00    +0.083 A 
ATOM     12  C   UNL     1      34.557 -17.256 -24.257  0.00  0.00    +0.332 A 
ATOM     13  C   UNL     1      34.139 -15.088 -23.642  0.00  0.00    +0.076 A 
ATOM     14  C   UNL     1      34.622 -15.132 -21.276  0.00  0.00    +0.019 C 
ATOM     15  C   UNL     1      33.808 -13.750 -23.631  0.00  0.00    +0.019 C 
ATOM     16  C   UNL     1      34.292 -13.773 -21.238  0.00  0.00    +0.002 C 
ATOM     17  C   UNL     1      33.888 -13.090 -22.404  0.00  0.00    +0.002 C 
ATOM     18  H   UNL     1      33.904 -15.749 -25.645  0.00  0.00    +0.170 HD
ENDBRANCH   5   9
BRANCH   1  19
ATOM     19  C   UNL     1      36.558 -21.030 -19.229  0.00  0.00    -0.076 C 
BRANCH  19  20
ATOM     20  C   UNL     1      35.504 -22.138 -19.234  0.00  0.00    -0.015 C 
BRANCH  20  21
ATOM     21  C   UNL     1      34.965 -22.434 -17.831  0.00  0.00    +0.067 C 
BRANCH  21  23
ATOM     22  O   UNL     1      32.769 -22.633 -18.812  0.00  0.00    -0.291 OA
ATOM     23  C   UNL     1      33.463 -22.675 -17.799  0.00  0.00    +0.173 C 
BRANCH  23  25
ATOM     24  F   UNL     1      31.045 -23.853 -12.906  0.00  0.00    -0.204 F 
ATOM     25  C   UNL     1      32.818 -22.991 -16.492  0.00  0.00    +0.035 C 
ATOM     26  C   UNL     1      31.449 -22.891 -16.391  0.00  0.00    +0.005 C 
ATOM     27  C   UNL     1      33.615 -23.370 -15.436  0.00  0.00    +0.005 C 
ATOM     28  C   UNL     1      30.844 -23.184 -15.168  0.00  0.00    +0.030 C 
ATOM     29  C   UNL     1      33.011 -23.663 -14.213  0.00  0.00    +0.030 C 
ATOM     30  C   UNL     1      31.625 -23.571 -14.079  0.00  0.00    +0.140 C 
ENDBRANCH  23  25
ENDBRANCH  21  23
ENDBRANCH  20  21
ENDBRANCH  19  20
ENDBRANCH   1  19
TORSDOF 6
ENDMDL
