MODEL 1
REMARK VINA RESULT:     -12.7      0.000      0.000
REMARK  Name = 10074640
REMARK  6 active torsions:
REMARK  status: ('A' for Active; 'I' for Inactive)
REMARK    1  A    between atoms: N_2  and  C_5
REMARK    2  A    between atoms: C_3  and  C_30
REMARK    3  A    between atoms: C_6  and  N_13
REMARK    4  A    between atoms: C_16  and  C_20
REMARK    5  A    between atoms: C_25  and  C_31
REMARK    6  A    between atoms: C_31  and  N_32
REMARK                            x       y       z     vdW  Elec       q    Type
REMARK                         _______ _______ _______ _____ _____    ______ ____
ROOT
ATOM      1  O   UNL     1      33.798 -23.788 -18.798  0.00  0.00    -0.270 OA
ATOM      2  N   UNL     1      33.519 -22.182 -17.111  0.00  0.00    -0.280 N 
ATOM      3  C   UNL     1      33.898 -22.621 -18.386  0.00  0.00    +0.249 C 
ATOM      4  H   UNL     1      33.658 -21.224 -16.929  0.00  0.00    +0.155 HD
ENDROOT
BRANCH   2   5
ATOM      5  C   UNL     1      32.961 -22.936 -16.049  0.00  0.00    +0.052 C 
ATOM      6  C   UNL     1      33.110 -23.795 -13.816  0.00  0.00    +0.048 C 
ATOM      7  C   UNL     1      33.661 -23.054 -14.862  0.00  0.00    +0.029 C 
ATOM      8  C   UNL     1      31.867 -24.406 -13.975  0.00  0.00    -0.008 C 
ATOM      9  C   UNL     1      31.725 -23.536 -16.224  0.00  0.00    +0.014 C 
ATOM     10  C   UNL     1      31.174 -24.277 -15.179  0.00  0.00    -0.002 C 
ATOM     11  C   UNL     1      31.253 -25.207 -12.873  0.00  0.00    +0.032 C 
BRANCH   6  13
ATOM     12  S   UNL     1      35.595 -24.612 -10.745  0.00  0.00    -0.059 S 
ATOM     13  N   UNL     1      33.824 -23.916 -12.604  0.00  0.00    -0.283 N 
ATOM     14  N   UNL     1      35.885 -24.841 -13.304  0.00  0.00    -0.384 NA
ATOM     15  C   UNL     1      35.062 -24.445 -12.364  0.00  0.00    +0.211 C 
ATOM     16  C   UNL     1      37.036 -25.319 -12.708  0.00  0.00    +0.124 C 
ATOM     17  C   UNL     1      37.064 -25.276 -11.330  0.00  0.00    +0.125 C 
ATOM     18  H   UNL     1      33.360 -23.564 -11.810  0.00  0.00    +0.155 HD
BRANCH  16  20
ATOM     19  N   UNL     1      38.919 -27.351 -15.186  0.00  0.00    -0.242 NA
ATOM     20  C   UNL     1      38.129 -25.826 -13.486  0.00  0.00    +0.046 C 
ATOM     21  C   UNL     1      39.416 -25.328 -13.323  0.00  0.00    +0.005 C 
ATOM     22  C   UNL     1      37.934 -26.829 -14.422  0.00  0.00    +0.101 C 
ATOM     23  C   UNL     1      40.456 -25.840 -14.091  0.00  0.00    +0.021 C 
ATOM     24  C   UNL     1      40.157 -26.842 -15.000  0.00  0.00    +0.099 C 
ENDBRANCH  16  20
ENDBRANCH   6  13
ENDBRANCH   2   5
BRANCH   3  30
ATOM     25  C   UNL     1      35.566 -19.685 -20.934  0.00  0.00    -0.043 C 
ATOM     26  C   UNL     1      34.187 -19.837 -20.878  0.00  0.00    -0.006 C 
ATOM     27  C   UNL     1      36.406 -20.480 -20.167  0.00  0.00    -0.006 C 
ATOM     28  C   UNL     1      33.638 -20.806 -20.037  0.00  0.00    +0.004 C 
ATOM     29  C   UNL     1      35.856 -21.447 -19.326  0.00  0.00    +0.004 C 
ATOM     30  C   UNL     1      34.473 -21.610 -19.262  0.00  0.00    +0.054 C 
BRANCH  25  31
ATOM     31  C   UNL     1      36.160 -18.638 -21.840  0.00  0.00    -0.050 C 
BRANCH  31  32
ATOM     32  N   UNL     1      35.162 -17.657 -22.264  0.00  0.00    +0.387 N 
ATOM     33  N   UNL     1      34.337 -15.246 -23.629  0.00  0.00    +0.383 N 
ATOM     34  C   UNL     1      35.472 -16.330 -21.720  0.00  0.00    -0.100 C 
ATOM     35  C   UNL     1      35.074 -17.602 -23.728  0.00  0.00    -0.100 C 
ATOM     36  C   UNL     1      34.428 -15.300 -22.165  0.00  0.00    -0.101 C 
ATOM     37  C   UNL     1      34.028 -16.574 -24.173  0.00  0.00    -0.101 C 
ATOM     38  C   UNL     1      33.338 -14.267 -24.053  0.00  0.00    -0.101 C 
ATOM     39  H   UNL     1      34.256 -17.952 -21.898  0.00  0.00    -0.079 HD
ATOM     40  H   UNL     1      35.242 -14.950 -23.996  0.00  0.00    -0.080 HD
ENDBRANCH  31  32
ENDBRANCH  25  31
ENDBRANCH   3  30
TORSDOF 6
ENDMDL
MODEL 2
REMARK VINA RESULT:     -12.3      0.594      1.194
REMARK  Name = 10074640
REMARK  6 active torsions:
REMARK  status: ('A' for Active; 'I' for Inactive)
REMARK    1  A    between atoms: N_2  and  C_5
REMARK    2  A    between atoms: C_3  and  C_30
REMARK    3  A    between atoms: C_6  and  N_13
REMARK    4  A    between atoms: C_16  and  C_20
REMARK    5  A    between atoms: C_25  and  C_31
REMARK    6  A    between atoms: C_31  and  N_32
REMARK                            x       y       z     vdW  Elec       q    Type
REMARK                         _______ _______ _______ _____ _____    ______ ____
ROOT
ATOM      1  O   UNL     1      34.263 -23.690 -18.851  0.00  0.00    -0.270 OA
ATOM      2  N   UNL     1      33.764 -22.089 -17.211  0.00  0.00    -0.280 N 
ATOM      3  C   UNL     1      34.235 -22.512 -18.461  0.00  0.00    +0.249 C 
ATOM      4  H   UNL     1      33.804 -21.119 -17.044  0.00  0.00    +0.155 HD
ENDROOT
BRANCH   2   5
ATOM      5  C   UNL     1      33.236 -22.873 -16.156  0.00  0.00    +0.052 C 
ATOM      6  C   UNL     1      33.436 -23.772 -13.943  0.00  0.00    +0.048 C 
ATOM      7  C   UNL     1      33.957 -23.000 -14.981  0.00  0.00    +0.029 C 
ATOM      8  C   UNL     1      32.203 -24.405 -14.095  0.00  0.00    -0.008 C 
ATOM      9  C   UNL     1      32.010 -23.495 -16.324  0.00  0.00    +0.014 C 
ATOM     10  C   UNL     1      31.490 -24.267 -15.286  0.00  0.00    -0.002 C 
ATOM     11  C   UNL     1      31.622 -25.239 -12.999  0.00  0.00    +0.032 C 
BRANCH   6  13
ATOM     12  S   UNL     1      35.961 -24.626 -10.914  0.00  0.00    -0.059 S 
ATOM     13  N   UNL     1      34.171 -23.902 -12.744  0.00  0.00    -0.283 N 
ATOM     14  N   UNL     1      36.197 -24.874 -13.477  0.00  0.00    -0.384 NA
ATOM     15  C   UNL     1      35.401 -24.456 -12.524  0.00  0.00    +0.211 C 
ATOM     16  C   UNL     1      37.350 -25.373 -12.900  0.00  0.00    +0.124 C 
ATOM     17  C   UNL     1      37.405 -25.323 -11.523  0.00  0.00    +0.125 C 
ATOM     18  H   UNL     1      33.729 -23.536 -11.943  0.00  0.00    +0.155 HD
BRANCH  16  20
ATOM     19  N   UNL     1      40.778 -25.974 -14.203  0.00  0.00    -0.242 NA
ATOM     20  C   UNL     1      38.417 -25.908 -13.696  0.00  0.00    +0.046 C 
ATOM     21  C   UNL     1      38.167 -26.838 -14.697  0.00  0.00    +0.005 C 
ATOM     22  C   UNL     1      39.728 -25.511 -13.490  0.00  0.00    +0.101 C 
ATOM     23  C   UNL     1      39.222 -27.339 -15.452  0.00  0.00    +0.021 C 
ATOM     24  C   UNL     1      40.497 -26.878 -15.168  0.00  0.00    +0.099 C 
ENDBRANCH  16  20
ENDBRANCH   6  13
ENDBRANCH   2   5
BRANCH   3  30
ATOM     25  C   UNL     1      35.722 -19.470 -20.997  0.00  0.00    -0.043 C 
ATOM     26  C   UNL     1      36.589 -20.123 -20.132  0.00  0.00    -0.006 C 
ATOM     27  C   UNL     1      34.375 -19.800 -21.043  0.00  0.00    -0.006 C 
ATOM     28  C   UNL     1      36.098 -21.126 -19.296  0.00  0.00    +0.004 C 
ATOM     29  C   UNL     1      33.884 -20.804 -20.208  0.00  0.00    +0.004 C 
ATOM     30  C   UNL     1      34.746 -21.466 -19.334  0.00  0.00    +0.054 C 
BRANCH  25  31
ATOM     31  C   UNL     1      36.252 -18.388 -21.901  0.00  0.00    -0.050 C 
BRANCH  31  32
ATOM     32  N   UNL     1      35.218 -17.414 -22.247  0.00  0.00    +0.387 N 
ATOM     33  N   UNL     1      34.321 -14.848 -23.231  0.00  0.00    +0.383 N 
ATOM     34  C   UNL     1      35.353 -16.199 -21.436  0.00  0.00    -0.100 C 
ATOM     35  C   UNL     1      35.270 -17.085 -23.676  0.00  0.00    -0.100 C 
ATOM     36  C   UNL     1      34.270 -15.176 -21.801  0.00  0.00    -0.101 C 
ATOM     37  C   UNL     1      34.187 -16.065 -24.041  0.00  0.00    -0.101 C 
ATOM     38  C   UNL     1      33.286 -13.876 -23.577  0.00  0.00    -0.101 C 
ATOM     39  H   UNL     1      34.310 -17.835 -22.047  0.00  0.00    -0.079 HD
ATOM     40  H   UNL     1      35.228 -14.426 -23.431  0.00  0.00    -0.080 HD
ENDBRANCH  31  32
ENDBRANCH  25  31
ENDBRANCH   3  30
TORSDOF 6
ENDMDL
MODEL 3
REMARK VINA RESULT:     -10.2      5.323     10.662
REMARK  Name = 10074640
REMARK  6 active torsions:
REMARK  status: ('A' for Active; 'I' for Inactive)
REMARK    1  A    between atoms: N_2  and  C_5
REMARK    2  A    between atoms: C_3  and  C_30
REMARK    3  A    between atoms: C_6  and  N_13
REMARK    4  A    between atoms: C_16  and  C_20
REMARK    5  A    between atoms: C_25  and  C_31
REMARK    6  A    between atoms: C_31  and  N_32
REMARK                            x       y       z     vdW  Elec       q    Type
REMARK                         _______ _______ _______ _____ _____    ______ ____
ROOT
ATOM      1  O   UNL     1      32.864 -13.930 -21.162  0.00  0.00    -0.270 OA
ATOM      2  N   UNL     1      33.441 -13.904 -23.436  0.00  0.00    -0.280 N 
ATOM      3  C   UNL     1      33.003 -13.325 -22.237  0.00  0.00    +0.249 C 
ATOM      4  H   UNL     1      33.502 -13.295 -24.208  0.00  0.00    +0.155 HD
ENDROOT
BRANCH   2   5
ATOM      5  C   UNL     1      33.808 -15.249 -23.683  0.00  0.00    +0.052 C 
ATOM      6  C   UNL     1      35.234 -17.124 -23.235  0.00  0.00    +0.048 C 
ATOM      7  C   UNL     1      34.874 -15.798 -22.992  0.00  0.00    +0.029 C 
ATOM      8  C   UNL     1      34.522 -17.881 -24.164  0.00  0.00    -0.008 C 
ATOM      9  C   UNL     1      33.089 -15.987 -24.609  0.00  0.00    +0.014 C 
ATOM     10  C   UNL     1      33.449 -17.312 -24.852  0.00  0.00    -0.002 C 
ATOM     11  C   UNL     1      34.885 -19.302 -24.444  0.00  0.00    +0.032 C 
BRANCH   6  13
ATOM     12  S   UNL     1      37.812 -18.964 -20.736  0.00  0.00    -0.059 S 
ATOM     13  N   UNL     1      36.322 -17.684 -22.530  0.00  0.00    -0.283 N 
ATOM     14  N   UNL     1      35.269 -19.248 -21.104  0.00  0.00    -0.384 NA
ATOM     15  C   UNL     1      36.332 -18.606 -21.521  0.00  0.00    +0.211 C 
ATOM     16  C   UNL     1      35.641 -20.096 -20.078  0.00  0.00    +0.124 C 
ATOM     17  C   UNL     1      36.977 -20.081 -19.739  0.00  0.00    +0.125 C 
ATOM     18  H   UNL     1      37.210 -17.361 -22.808  0.00  0.00    +0.155 HD
BRANCH  16  20
ATOM     19  N   UNL     1      32.381 -21.589 -19.098  0.00  0.00    -0.242 NA
ATOM     20  C   UNL     1      34.686 -20.937 -19.415  0.00  0.00    +0.046 C 
ATOM     21  C   UNL     1      35.092 -21.882 -18.481  0.00  0.00    +0.005 C 
ATOM     22  C   UNL     1      33.332 -20.830 -19.687  0.00  0.00    +0.101 C 
ATOM     23  C   UNL     1      34.143 -22.683 -17.854  0.00  0.00    +0.021 C 
ATOM     24  C   UNL     1      32.812 -22.498 -18.195  0.00  0.00    +0.099 C 
ENDBRANCH  16  20
ENDBRANCH   6  13
ENDBRANCH   2   5
BRANCH   3  30
ATOM     25  C   UNL     1      32.034  -9.211 -22.417  0.00  0.00    -0.043 C 
ATOM     26  C   UNL     1      31.517  -9.991 -21.391  0.00  0.00    -0.006 C 
ATOM     27  C   UNL     1      32.865  -9.760 -23.384  0.00  0.00    -0.006 C 
ATOM     28  C   UNL     1      31.837 -11.348 -21.333  0.00  0.00    +0.004 C 
ATOM     29  C   UNL     1      33.185 -11.116 -23.324  0.00  0.00    +0.004 C 
ATOM     30  C   UNL     1      32.671 -11.910 -22.299  0.00  0.00    +0.054 C 
BRANCH  25  31
ATOM     31  C   UNL     1      31.690  -7.746 -22.480  0.00  0.00    -0.050 C 
BRANCH  31  32
ATOM     32  N   UNL     1      32.429  -7.060 -23.538  0.00  0.00    +0.387 N 
ATOM     33  N   UNL     1      33.574  -4.709 -24.772  0.00  0.00    +0.383 N 
ATOM     34  C   UNL     1      31.584  -6.058 -24.199  0.00  0.00    -0.100 C 
ATOM     35  C   UNL     1      33.643  -6.432 -23.002  0.00  0.00    -0.100 C 
ATOM     36  C   UNL     1      32.359  -5.336 -25.306  0.00  0.00    -0.101 C 
ATOM     37  C   UNL     1      34.418  -5.711 -24.110  0.00  0.00    -0.101 C 
ATOM     38  C   UNL     1      34.314  -4.025 -25.830  0.00  0.00    -0.101 C 
ATOM     39  H   UNL     1      32.706  -7.755 -24.231  0.00  0.00    -0.079 HD
ATOM     40  H   UNL     1      33.298  -4.013 -24.080  0.00  0.00    -0.080 HD
ENDBRANCH  31  32
ENDBRANCH  25  31
ENDBRANCH   3  30
TORSDOF 6
ENDMDL
