MODEL 1
REMARK VINA RESULT:     -11.8      0.000      0.000
REMARK  Name = 10157080
REMARK  5 active torsions:
REMARK  status: ('A' for Active; 'I' for Inactive)
REMARK    1  A    between atoms: C_3  and  O_8
REMARK    2  A    between atoms: C_6  and  O_18
REMARK    3  A    between atoms: O_8  and  C_13
REMARK    4  A    between atoms: O_18  and  C_20
REMARK    5  A    between atoms: C_19  and  N_25
REMARK                            x       y       z     vdW  Elec       q    Type
REMARK                         _______ _______ _______ _____ _____    ______ ____
ROOT
ATOM      1  N   UNL     1      34.539 -23.347 -16.133  0.00  0.00    -0.277 NA
ATOM      2  N   UNL     1      32.153 -23.338 -16.472  0.00  0.00    -0.319 NA
ATOM      3  C   UNL     1      34.303 -23.185 -14.821  0.00  0.00    +0.278 C 
ATOM      4  C   UNL     1      33.056 -23.089 -14.254  0.00  0.00    +0.156 C 
ATOM      5  C   UNL     1      32.002 -23.174 -15.141  0.00  0.00    +0.113 C 
ATOM      6  C   UNL     1      33.430 -23.415 -16.893  0.00  0.00    +0.317 C 
ATOM      7  C   UNL     1      30.603 -23.083 -14.631  0.00  0.00    +0.063 C 
ENDROOT
BRANCH   3   8
ATOM      8  O   UNL     1      35.414 -23.112 -13.998  0.00  0.00    -0.429 OA
BRANCH   8  13
ATOM      9  O   UNL     1      39.921 -24.681 -14.687  0.00  0.00    -0.435 OA
ATOM     10  O   UNL     1      39.248 -26.983 -14.448  0.00  0.00    -0.435 OA
ATOM     11  C   UNL     1      38.587 -24.807 -14.451  0.00  0.00    +0.179 C 
ATOM     12  C   UNL     1      38.202 -26.122 -14.315  0.00  0.00    +0.177 C 
ATOM     13  C   UNL     1      36.345 -24.100 -14.106  0.00  0.00    +0.151 C 
ATOM     14  C   UNL     1      37.680 -23.772 -14.352  0.00  0.00    +0.078 C 
ATOM     15  C   UNL     1      36.890 -26.473 -14.072  0.00  0.00    +0.043 C 
ATOM     16  C   UNL     1      35.952 -25.444 -13.966  0.00  0.00    +0.041 C 
ATOM     17  C   UNL     1      40.333 -26.063 -14.683  0.00  0.00    +0.429 C 
ENDBRANCH   8  13
ENDBRANCH   3   8
BRANCH   6  18
ATOM     18  O   UNL     1      33.622 -23.578 -18.246  0.00  0.00    -0.375 OA
BRANCH  18  20
ATOM     19  C   UNL     1      34.646 -20.204 -20.435  0.00  0.00    +0.057 C 
ATOM     20  C   UNL     1      33.962 -22.458 -18.972  0.00  0.00    +0.161 C 
ATOM     21  C   UNL     1      33.303 -20.508 -20.209  0.00  0.00    +0.018 C 
ATOM     22  C   UNL     1      35.644 -21.034 -19.925  0.00  0.00    +0.018 C 
ATOM     23  C   UNL     1      32.959 -21.642 -19.473  0.00  0.00    +0.040 C 
ATOM     24  C   UNL     1      35.301 -22.167 -19.188  0.00  0.00    +0.040 C 
BRANCH  19  25
ATOM     25  N   UNL     1      34.987 -19.080 -21.165  0.00  0.00    -0.246 N 
ATOM     26  N   UNL     1      35.265 -17.732 -22.919  0.00  0.00    -0.224 NA
ATOM     27  C   UNL     1      35.522 -17.916 -20.674  0.00  0.00    +0.092 C 
ATOM     28  C   UNL     1      34.853 -18.915 -22.522  0.00  0.00    +0.172 C 
ATOM     29  C   UNL     1      35.683 -17.105 -21.773  0.00  0.00    +0.117 C 
ENDBRANCH  19  25
ENDBRANCH  18  20
ENDBRANCH   6  18
TORSDOF 5
ENDMDL
MODEL 2
REMARK VINA RESULT:     -11.6      2.527      5.612
REMARK  Name = 10157080
REMARK  5 active torsions:
REMARK  status: ('A' for Active; 'I' for Inactive)
REMARK    1  A    between atoms: C_3  and  O_8
REMARK    2  A    between atoms: C_6  and  O_18
REMARK    3  A    between atoms: O_8  and  C_13
REMARK    4  A    between atoms: O_18  and  C_20
REMARK    5  A    between atoms: C_19  and  N_25
REMARK                            x       y       z     vdW  Elec       q    Type
REMARK                         _______ _______ _______ _____ _____    ______ ____
ROOT
ATOM      1  N   UNL     1      33.283 -23.458 -15.994  0.00  0.00    -0.277 NA
ATOM      2  N   UNL     1      35.636 -23.072 -16.352  0.00  0.00    -0.319 NA
ATOM      3  C   UNL     1      33.512 -23.320 -14.678  0.00  0.00    +0.278 C 
ATOM      4  C   UNL     1      34.739 -23.064 -14.118  0.00  0.00    +0.156 C 
ATOM      5  C   UNL     1      35.781 -22.948 -15.016  0.00  0.00    +0.113 C 
ATOM      6  C   UNL     1      34.378 -23.323 -16.766  0.00  0.00    +0.317 C 
ATOM      7  C   UNL     1      37.157 -22.670 -14.513  0.00  0.00    +0.063 C 
ENDROOT
BRANCH   3   8
ATOM      8  O   UNL     1      32.415 -23.447 -13.844  0.00  0.00    -0.429 OA
BRANCH   8  13
ATOM      9  O   UNL     1      28.658 -22.169 -16.585  0.00  0.00    -0.435 OA
ATOM     10  O   UNL     1      27.566 -24.287 -16.226  0.00  0.00    -0.435 OA
ATOM     11  C   UNL     1      29.385 -22.996 -15.786  0.00  0.00    +0.179 C 
ATOM     12  C   UNL     1      28.762 -24.206 -15.581  0.00  0.00    +0.177 C 
ATOM     13  C   UNL     1      31.205 -23.687 -14.424  0.00  0.00    +0.151 C 
ATOM     14  C   UNL     1      30.609 -22.706 -15.220  0.00  0.00    +0.078 C 
ATOM     15  C   UNL     1      29.328 -25.192 -14.799  0.00  0.00    +0.043 C 
ATOM     16  C   UNL     1      30.568 -24.924 -14.215  0.00  0.00    +0.041 C 
ATOM     17  C   UNL     1      27.508 -22.994 -16.861  0.00  0.00    +0.429 C 
ENDBRANCH   8  13
ENDBRANCH   3   8
BRANCH   6  18
ATOM     18  O   UNL     1      34.194 -23.459 -18.122  0.00  0.00    -0.375 OA
BRANCH  18  20
ATOM     19  C   UNL     1      34.806 -20.090 -20.466  0.00  0.00    +0.057 C 
ATOM     20  C   UNL     1      34.398 -22.340 -18.900  0.00  0.00    +0.161 C 
ATOM     21  C   UNL     1      33.513 -20.447 -20.084  0.00  0.00    +0.018 C 
ATOM     22  C   UNL     1      35.893 -20.864 -20.060  0.00  0.00    +0.018 C 
ATOM     23  C   UNL     1      33.307 -21.580 -19.295  0.00  0.00    +0.040 C 
ATOM     24  C   UNL     1      35.688 -21.995 -19.272  0.00  0.00    +0.040 C 
BRANCH  19  25
ATOM     25  N   UNL     1      35.010 -18.967 -21.248  0.00  0.00    -0.246 N 
ATOM     26  N   UNL     1      35.500 -16.862 -21.795  0.00  0.00    -0.224 NA
ATOM     27  C   UNL     1      34.874 -18.882 -22.611  0.00  0.00    +0.092 C 
ATOM     28  C   UNL     1      35.388 -17.722 -20.808  0.00  0.00    +0.172 C 
ATOM     29  C   UNL     1      35.180 -17.579 -22.921  0.00  0.00    +0.117 C 
ENDBRANCH  19  25
ENDBRANCH  18  20
ENDBRANCH   6  18
TORSDOF 5
ENDMDL
MODEL 3
REMARK VINA RESULT:     -11.2      2.672      7.903
REMARK  Name = 10157080
REMARK  5 active torsions:
REMARK  status: ('A' for Active; 'I' for Inactive)
REMARK    1  A    between atoms: C_3  and  O_8
REMARK    2  A    between atoms: C_6  and  O_18
REMARK    3  A    between atoms: O_8  and  C_13
REMARK    4  A    between atoms: O_18  and  C_20
REMARK    5  A    between atoms: C_19  and  N_25
REMARK                            x       y       z     vdW  Elec       q    Type
REMARK                         _______ _______ _______ _____ _____    ______ ____
ROOT
ATOM      1  N   UNL     1      34.369 -23.326 -16.054  0.00  0.00    -0.277 NA
ATOM      2  N   UNL     1      32.731 -23.119 -14.298  0.00  0.00    -0.319 NA
ATOM      3  C   UNL     1      33.352 -23.357 -16.931  0.00  0.00    +0.278 C 
ATOM      4  C   UNL     1      32.023 -23.278 -16.593  0.00  0.00    +0.156 C 
ATOM      5  C   UNL     1      31.768 -23.158 -15.242  0.00  0.00    +0.113 C 
ATOM      6  C   UNL     1      33.991 -23.207 -14.768  0.00  0.00    +0.317 C 
ATOM      7  C   UNL     1      30.358 -23.064 -14.766  0.00  0.00    +0.063 C 
ENDROOT
BRANCH   3   8
ATOM      8  O   UNL     1      33.692 -23.476 -18.267  0.00  0.00    -0.429 OA
BRANCH   8  13
ATOM      9  O   UNL     1      36.866 -20.211 -19.857  0.00  0.00    -0.435 OA
ATOM     10  O   UNL     1      35.135 -18.928 -20.936  0.00  0.00    -0.435 OA
ATOM     11  C   UNL     1      35.634 -20.765 -19.693  0.00  0.00    +0.179 C 
ATOM     12  C   UNL     1      34.645 -20.033 -20.310  0.00  0.00    +0.177 C 
ATOM     13  C   UNL     1      34.019 -22.337 -18.940  0.00  0.00    +0.151 C 
ATOM     14  C   UNL     1      35.352 -21.924 -19.000  0.00  0.00    +0.078 C 
ATOM     15  C   UNL     1      33.321 -20.418 -20.266  0.00  0.00    +0.043 C 
ATOM     16  C   UNL     1      33.009 -21.588 -19.570  0.00  0.00    +0.041 C 
ATOM     17  C   UNL     1      36.542 -19.048 -20.646  0.00  0.00    +0.429 C 
ENDBRANCH   8  13
ENDBRANCH   3   8
BRANCH   6  18
ATOM     18  O   UNL     1      34.999 -23.174 -13.832  0.00  0.00    -0.375 OA
BRANCH  18  20
ATOM     19  C   UNL     1      38.246 -25.682 -14.456  0.00  0.00    +0.057 C 
ATOM     20  C   UNL     1      36.077 -24.006 -14.040  0.00  0.00    +0.161 C 
ATOM     21  C   UNL     1      37.021 -26.215 -14.054  0.00  0.00    +0.018 C 
ATOM     22  C   UNL     1      38.380 -24.307 -14.649  0.00  0.00    +0.018 C 
ATOM     23  C   UNL     1      35.929 -25.372 -13.845  0.00  0.00    +0.040 C 
ATOM     24  C   UNL     1      37.289 -23.464 -14.440  0.00  0.00    +0.040 C 
BRANCH  19  25
ATOM     25  N   UNL     1      39.328 -26.518 -14.663  0.00  0.00    -0.246 N 
ATOM     26  N   UNL     1      41.352 -27.418 -14.412  0.00  0.00    -0.224 NA
ATOM     27  C   UNL     1      39.416 -27.531 -15.585  0.00  0.00    +0.092 C 
ATOM     28  C   UNL     1      40.521 -26.494 -13.984  0.00  0.00    +0.172 C 
ATOM     29  C   UNL     1      40.669 -28.067 -15.409  0.00  0.00    +0.117 C 
ENDBRANCH  19  25
ENDBRANCH  18  20
ENDBRANCH   6  18
TORSDOF 5
ENDMDL
MODEL 4
REMARK VINA RESULT:     -10.7      4.693     10.757
REMARK  Name = 10157080
REMARK  5 active torsions:
REMARK  status: ('A' for Active; 'I' for Inactive)
REMARK    1  A    between atoms: C_3  and  O_8
REMARK    2  A    between atoms: C_6  and  O_18
REMARK    3  A    between atoms: O_8  and  C_13
REMARK    4  A    between atoms: O_18  and  C_20
REMARK    5  A    between atoms: C_19  and  N_25
REMARK                            x       y       z     vdW  Elec       q    Type
REMARK                         _______ _______ _______ _____ _____    ______ ____
ROOT
ATOM      1  N   UNL     1      35.850 -17.338 -22.254  0.00  0.00    -0.277 NA
ATOM      2  N   UNL     1      34.740 -19.306 -23.091  0.00  0.00    -0.319 NA
ATOM      3  C   UNL     1      35.115 -16.617 -23.116  0.00  0.00    +0.278 C 
ATOM      4  C   UNL     1      34.190 -17.140 -23.986  0.00  0.00    +0.156 C 
ATOM      5  C   UNL     1      34.042 -18.511 -23.929  0.00  0.00    +0.113 C 
ATOM      6  C   UNL     1      35.614 -18.663 -22.293  0.00  0.00    +0.317 C 
ATOM      7  C   UNL     1      33.063 -19.183 -24.831  0.00  0.00    +0.063 C 
ENDROOT
BRANCH   3   8
ATOM      8  O   UNL     1      35.321 -15.249 -23.110  0.00  0.00    -0.429 OA
BRANCH   8  13
ATOM      9  O   UNL     1      32.269 -11.532 -22.762  0.00  0.00    -0.435 OA
ATOM     10  O   UNL     1      31.724 -12.082 -20.480  0.00  0.00    -0.435 OA
ATOM     11  C   UNL     1      32.939 -12.631 -22.321  0.00  0.00    +0.179 C 
ATOM     12  C   UNL     1      32.628 -12.945 -21.018  0.00  0.00    +0.177 C 
ATOM     13  C   UNL     1      34.429 -14.478 -22.427  0.00  0.00    +0.151 C 
ATOM     14  C   UNL     1      33.837 -13.380 -23.053  0.00  0.00    +0.078 C 
ATOM     15  C   UNL     1      33.198 -14.025 -20.375  0.00  0.00    +0.043 C 
ATOM     16  C   UNL     1      34.111 -14.800 -21.095  0.00  0.00    +0.041 C 
ATOM     17  C   UNL     1      31.500 -11.190 -21.590  0.00  0.00    +0.429 C 
ENDBRANCH   8  13
ENDBRANCH   3   8
BRANCH   6  18
ATOM     18  O   UNL     1      36.346 -19.443 -21.429  0.00  0.00    -0.375 OA
BRANCH  18  20
ATOM     19  C   UNL     1      34.233 -21.642 -18.613  0.00  0.00    +0.057 C 
ATOM     20  C   UNL     1      35.645 -20.173 -20.494  0.00  0.00    +0.161 C 
ATOM     21  C   UNL     1      33.550 -20.839 -19.526  0.00  0.00    +0.018 C 
ATOM     22  C   UNL     1      35.626 -21.706 -18.646  0.00  0.00    +0.018 C 
ATOM     23  C   UNL     1      34.260 -20.100 -20.473  0.00  0.00    +0.040 C 
ATOM     24  C   UNL     1      36.336 -20.968 -19.592  0.00  0.00    +0.040 C 
BRANCH  19  25
ATOM     25  N   UNL     1      33.529 -22.374 -17.674  0.00  0.00    -0.246 N 
ATOM     26  N   UNL     1      33.132 -23.758 -15.972  0.00  0.00    -0.224 NA
ATOM     27  C   UNL     1      32.166 -22.411 -17.519  0.00  0.00    +0.092 C 
ATOM     28  C   UNL     1      34.061 -23.203 -16.718  0.00  0.00    +0.172 C 
ATOM     29  C   UNL     1      31.949 -23.269 -16.467  0.00  0.00    +0.117 C 
ENDBRANCH  19  25
ENDBRANCH  18  20
ENDBRANCH   6  18
TORSDOF 5
ENDMDL
MODEL 5
REMARK VINA RESULT:     -10.5      4.451      8.627
REMARK  Name = 10157080
REMARK  5 active torsions:
REMARK  status: ('A' for Active; 'I' for Inactive)
REMARK    1  A    between atoms: C_3  and  O_8
REMARK    2  A    between atoms: C_6  and  O_18
REMARK    3  A    between atoms: O_8  and  C_13
REMARK    4  A    between atoms: O_18  and  C_20
REMARK    5  A    between atoms: C_19  and  N_25
REMARK                            x       y       z     vdW  Elec       q    Type
REMARK                         _______ _______ _______ _____ _____    ______ ____
ROOT
ATOM      1  N   UNL     1      35.596 -17.629 -22.590  0.00  0.00    -0.277 NA
ATOM      2  N   UNL     1      34.049 -17.463 -24.431  0.00  0.00    -0.319 NA
ATOM      3  C   UNL     1      35.160 -18.885 -22.401  0.00  0.00    +0.278 C 
ATOM      4  C   UNL     1      34.194 -19.501 -23.158  0.00  0.00    +0.156 C 
ATOM      5  C   UNL     1      33.666 -18.731 -24.175  0.00  0.00    +0.113 C 
ATOM      6  C   UNL     1      35.004 -16.982 -23.611  0.00  0.00    +0.317 C 
ATOM      7  C   UNL     1      32.609 -19.304 -25.058  0.00  0.00    +0.063 C 
ENDROOT
BRANCH   3   8
ATOM      8  O   UNL     1      35.742 -19.592 -21.364  0.00  0.00    -0.429 OA
BRANCH   8  13
ATOM      9  O   UNL     1      34.919 -22.813 -17.871  0.00  0.00    -0.435 OA
ATOM     10  O   UNL     1      32.539 -22.442 -17.972  0.00  0.00    -0.435 OA
ATOM     11  C   UNL     1      34.580 -21.885 -18.807  0.00  0.00    +0.179 C 
ATOM     12  C   UNL     1      33.221 -21.673 -18.864  0.00  0.00    +0.177 C 
ATOM     13  C   UNL     1      34.917 -20.287 -20.532  0.00  0.00    +0.151 C 
ATOM     14  C   UNL     1      35.455 -21.206 -19.629  0.00  0.00    +0.078 C 
ATOM     15  C   UNL     1      32.663 -20.771 -19.747  0.00  0.00    +0.043 C 
ATOM     16  C   UNL     1      33.528 -20.070 -20.590  0.00  0.00    +0.041 C 
ATOM     17  C   UNL     1      33.621 -23.161 -17.345  0.00  0.00    +0.429 C 
ENDBRANCH   8  13
ENDBRANCH   3   8
BRANCH   6  18
ATOM     18  O   UNL     1      35.417 -15.690 -23.841  0.00  0.00    -0.375 OA
BRANCH  18  20
ATOM     19  C   UNL     1      33.054 -12.644 -22.305  0.00  0.00    +0.057 C 
ATOM     20  C   UNL     1      34.632 -14.679 -23.331  0.00  0.00    +0.161 C 
ATOM     21  C   UNL     1      33.334 -12.688 -23.671  0.00  0.00    +0.018 C 
ATOM     22  C   UNL     1      33.567 -13.624 -21.456  0.00  0.00    +0.018 C 
ATOM     23  C   UNL     1      34.128 -13.712 -24.188  0.00  0.00    +0.040 C 
ATOM     24  C   UNL     1      34.361 -14.648 -21.972  0.00  0.00    +0.040 C 
BRANCH  19  25
ATOM     25  N   UNL     1      32.267 -11.628 -21.793  0.00  0.00    -0.246 N 
ATOM     26  N   UNL     1      30.931 -10.524 -20.391  0.00  0.00    -0.224 NA
ATOM     27  C   UNL     1      32.012 -10.414 -22.381  0.00  0.00    +0.092 C 
ATOM     28  C   UNL     1      31.591 -11.641 -20.598  0.00  0.00    +0.172 C 
ATOM     29  C   UNL     1      31.189  -9.756 -21.499  0.00  0.00    +0.117 C 
ENDBRANCH  19  25
ENDBRANCH  18  20
ENDBRANCH   6  18
TORSDOF 5
ENDMDL
MODEL 6
REMARK VINA RESULT:     -10.2      7.323     13.324
REMARK  Name = 10157080
REMARK  5 active torsions:
REMARK  status: ('A' for Active; 'I' for Inactive)
REMARK    1  A    between atoms: C_3  and  O_8
REMARK    2  A    between atoms: C_6  and  O_18
REMARK    3  A    between atoms: O_8  and  C_13
REMARK    4  A    between atoms: O_18  and  C_20
REMARK    5  A    between atoms: C_19  and  N_25
REMARK                            x       y       z     vdW  Elec       q    Type
REMARK                         _______ _______ _______ _____ _____    ______ ____
ROOT
ATOM      1  N   UNL     1      34.226 -13.809 -24.206  0.00  0.00    -0.277 NA
ATOM      2  N   UNL     1      33.876 -14.843 -22.057  0.00  0.00    -0.319 NA
ATOM      3  C   UNL     1      33.586 -12.727 -23.734  0.00  0.00    +0.278 C 
ATOM      4  C   UNL     1      33.067 -12.613 -22.467  0.00  0.00    +0.156 C 
ATOM      5  C   UNL     1      33.245 -13.718 -21.660  0.00  0.00    +0.113 C 
ATOM      6  C   UNL     1      34.335 -14.820 -23.323  0.00  0.00    +0.317 C 
ATOM      7  C   UNL     1      32.720 -13.701 -20.264  0.00  0.00    +0.063 C 
ENDROOT
BRANCH   3   8
ATOM      8  O   UNL     1      33.453 -11.660 -24.605  0.00  0.00    -0.429 OA
BRANCH   8  13
ATOM      9  O   UNL     1      31.874  -7.804 -22.177  0.00  0.00    -0.435 OA
ATOM     10  O   UNL     1      33.955  -6.635 -22.512  0.00  0.00    -0.435 OA
ATOM     11  C   UNL     1      32.771  -8.539 -22.889  0.00  0.00    +0.179 C 
ATOM     12  C   UNL     1      33.959  -7.871 -23.080  0.00  0.00    +0.177 C 
ATOM     13  C   UNL     1      33.609 -10.405 -24.096  0.00  0.00    +0.151 C 
ATOM     14  C   UNL     1      32.565  -9.809 -23.385  0.00  0.00    +0.078 C 
ATOM     15  C   UNL     1      35.006  -8.437 -23.779  0.00  0.00    +0.043 C 
ATOM     16  C   UNL     1      34.823  -9.723 -24.291  0.00  0.00    +0.041 C 
ATOM     17  C   UNL     1      32.631  -6.599 -21.940  0.00  0.00    +0.429 C 
ENDBRANCH   8  13
ENDBRANCH   3   8
BRANCH   6  18
ATOM     18  O   UNL     1      34.981 -15.952 -23.763  0.00  0.00    -0.375 OA
BRANCH  18  20
ATOM     19  C   UNL     1      35.143 -19.176 -21.154  0.00  0.00    +0.057 C 
ATOM     20  C   UNL     1      35.034 -17.022 -22.897  0.00  0.00    +0.161 C 
ATOM     21  C   UNL     1      35.654 -17.938 -20.765  0.00  0.00    +0.018 C 
ATOM     22  C   UNL     1      34.577 -19.330 -22.419  0.00  0.00    +0.018 C 
ATOM     23  C   UNL     1      35.599 -16.853 -21.641  0.00  0.00    +0.040 C 
ATOM     24  C   UNL     1      34.522 -18.247 -23.296  0.00  0.00    +0.040 C 
BRANCH  19  25
ATOM     25  N   UNL     1      35.197 -20.250 -20.284  0.00  0.00    -0.246 N 
ATOM     26  N   UNL     1      36.052 -21.803 -18.932  0.00  0.00    -0.224 NA
ATOM     27  C   UNL     1      34.134 -20.985 -19.823  0.00  0.00    +0.092 C 
ATOM     28  C   UNL     1      36.327 -20.785 -19.717  0.00  0.00    +0.172 C 
ATOM     29  C   UNL     1      34.687 -21.932 -18.994  0.00  0.00    +0.117 C 
ENDBRANCH  19  25
ENDBRANCH  18  20
ENDBRANCH   6  18
TORSDOF 5
ENDMDL
MODEL 7
REMARK VINA RESULT:     -10.2      3.734      9.873
REMARK  Name = 10157080
REMARK  5 active torsions:
REMARK  status: ('A' for Active; 'I' for Inactive)
REMARK    1  A    between atoms: C_3  and  O_8
REMARK    2  A    between atoms: C_6  and  O_18
REMARK    3  A    between atoms: O_8  and  C_13
REMARK    4  A    between atoms: O_18  and  C_20
REMARK    5  A    between atoms: C_19  and  N_25
REMARK                            x       y       z     vdW  Elec       q    Type
REMARK                         _______ _______ _______ _____ _____    ______ ____
ROOT
ATOM      1  N   UNL     1      36.693 -19.895 -19.868  0.00  0.00    -0.277 NA
ATOM      2  N   UNL     1      34.839 -21.331 -19.312  0.00  0.00    -0.319 NA
ATOM      3  C   UNL     1      35.826 -19.119 -20.539  0.00  0.00    +0.278 C 
ATOM      4  C   UNL     1      34.479 -19.363 -20.650  0.00  0.00    +0.156 C 
ATOM      5  C   UNL     1      34.034 -20.500 -20.006  0.00  0.00    +0.113 C 
ATOM      6  C   UNL     1      36.137 -20.974 -19.285  0.00  0.00    +0.317 C 
ATOM      7  C   UNL     1      32.587 -20.858 -20.063  0.00  0.00    +0.063 C 
ENDROOT
BRANCH   3   8
ATOM      8  O   UNL     1      36.350 -17.995 -21.153  0.00  0.00    -0.429 OA
BRANCH   8  13
ATOM      9  O   UNL     1      34.092 -14.346 -23.352  0.00  0.00    -0.435 OA
ATOM     10  O   UNL     1      33.540 -15.720 -25.253  0.00  0.00    -0.435 OA
ATOM     11  C   UNL     1      34.554 -15.619 -23.221  0.00  0.00    +0.179 C 
ATOM     12  C   UNL     1      34.238 -16.404 -24.306  0.00  0.00    +0.177 C 
ATOM     13  C   UNL     1      35.650 -17.458 -22.191  0.00  0.00    +0.151 C 
ATOM     14  C   UNL     1      35.260 -16.118 -22.146  0.00  0.00    +0.078 C 
ATOM     15  C   UNL     1      34.611 -17.731 -24.376  0.00  0.00    +0.043 C 
ATOM     16  C   UNL     1      35.328 -18.260 -23.301  0.00  0.00    +0.041 C 
ATOM     17  C   UNL     1      33.452 -14.417 -24.643  0.00  0.00    +0.429 C 
ENDBRANCH   8  13
ENDBRANCH   3   8
BRANCH   6  18
ATOM     18  O   UNL     1      36.988 -21.801 -18.588  0.00  0.00    -0.375 OA
BRANCH  18  20
ATOM     19  C   UNL     1      35.726 -23.110 -14.857  0.00  0.00    +0.057 C 
ATOM     20  C   UNL     1      36.569 -22.235 -17.350  0.00  0.00    +0.161 C 
ATOM     21  C   UNL     1      37.045 -22.695 -15.041  0.00  0.00    +0.018 C 
ATOM     22  C   UNL     1      34.831 -23.085 -15.927  0.00  0.00    +0.018 C 
ATOM     23  C   UNL     1      37.469 -22.254 -16.295  0.00  0.00    +0.040 C 
ATOM     24  C   UNL     1      35.255 -22.644 -17.180  0.00  0.00    +0.040 C 
BRANCH  19  25
ATOM     25  N   UNL     1      35.306 -23.547 -13.614  0.00  0.00    -0.246 N 
ATOM     26  N   UNL     1      33.961 -24.334 -12.020  0.00  0.00    -0.224 NA
ATOM     27  C   UNL     1      36.067 -23.628 -12.475  0.00  0.00    +0.092 C 
ATOM     28  C   UNL     1      34.047 -23.984 -13.284  0.00  0.00    +0.172 C 
ATOM     29  C   UNL     1      35.216 -24.114 -11.511  0.00  0.00    +0.117 C 
ENDBRANCH  19  25
ENDBRANCH  18  20
ENDBRANCH   6  18
TORSDOF 5
ENDMDL
MODEL 8
REMARK VINA RESULT:     -10.1      7.545     13.325
REMARK  Name = 10157080
REMARK  5 active torsions:
REMARK  status: ('A' for Active; 'I' for Inactive)
REMARK    1  A    between atoms: C_3  and  O_8
REMARK    2  A    between atoms: C_6  and  O_18
REMARK    3  A    between atoms: O_8  and  C_13
REMARK    4  A    between atoms: O_18  and  C_20
REMARK    5  A    between atoms: C_19  and  N_25
REMARK                            x       y       z     vdW  Elec       q    Type
REMARK                         _______ _______ _______ _____ _____    ______ ____
ROOT
ATOM      1  N   UNL     1      32.673 -13.511 -23.265  0.00  0.00    -0.277 NA
ATOM      2  N   UNL     1      34.216 -12.642 -24.900  0.00  0.00    -0.319 NA
ATOM      3  C   UNL     1      32.534 -12.258 -22.803  0.00  0.00    +0.278 C 
ATOM      4  C   UNL     1      33.180 -11.159 -23.313  0.00  0.00    +0.156 C 
ATOM      5  C   UNL     1      34.021 -11.414 -24.377  0.00  0.00    +0.113 C 
ATOM      6  C   UNL     1      33.521 -13.630 -24.304  0.00  0.00    +0.317 C 
ATOM      7  C   UNL     1      34.772 -10.289 -25.007  0.00  0.00    +0.063 C 
ENDROOT
BRANCH   3   8
ATOM      8  O   UNL     1      31.670 -12.086 -21.736  0.00  0.00    -0.429 OA
BRANCH   8  13
ATOM      9  O   UNL     1      31.977  -7.297 -21.262  0.00  0.00    -0.435 OA
ATOM     10  O   UNL     1      32.191  -7.462 -18.867  0.00  0.00    -0.435 OA
ATOM     11  C   UNL     1      31.946  -8.586 -20.828  0.00  0.00    +0.179 C 
ATOM     12  C   UNL     1      32.069  -8.680 -19.461  0.00  0.00    +0.177 C 
ATOM     13  C   UNL     1      31.802 -10.951 -20.993  0.00  0.00    +0.151 C 
ATOM     14  C   UNL     1      31.811  -9.705 -21.623  0.00  0.00    +0.078 C 
ATOM     15  C   UNL     1      32.063  -9.899 -18.813  0.00  0.00    +0.043 C 
ATOM     16  C   UNL     1      31.927 -11.048 -19.595  0.00  0.00    +0.041 C 
ATOM     17  C   UNL     1      32.131  -6.590 -20.014  0.00  0.00    +0.429 C 
ENDBRANCH   8  13
ENDBRANCH   3   8
BRANCH   6  18
ATOM     18  O   UNL     1      33.698 -14.897 -24.810  0.00  0.00    -0.375 OA
BRANCH  18  20
ATOM     19  C   UNL     1      35.148 -17.789 -22.209  0.00  0.00    +0.057 C 
ATOM     20  C   UNL     1      34.180 -15.857 -23.946  0.00  0.00    +0.161 C 
ATOM     21  C   UNL     1      34.590 -18.167 -23.430  0.00  0.00    +0.018 C 
ATOM     22  C   UNL     1      35.220 -16.440 -21.862  0.00  0.00    +0.018 C 
ATOM     23  C   UNL     1      34.103 -17.195 -24.305  0.00  0.00    +0.040 C 
ATOM     24  C   UNL     1      34.734 -15.468 -22.736  0.00  0.00    +0.040 C 
BRANCH  19  25
ATOM     25  N   UNL     1      35.631 -18.753 -21.342  0.00  0.00    -0.246 N 
ATOM     26  N   UNL     1      37.027 -19.819 -19.970  0.00  0.00    -0.224 NA
ATOM     27  C   UNL     1      34.968 -19.877 -20.917  0.00  0.00    +0.092 C 
ATOM     28  C   UNL     1      36.865 -18.768 -20.742  0.00  0.00    +0.172 C 
ATOM     29  C   UNL     1      35.849 -20.513 -20.074  0.00  0.00    +0.117 C 
ENDBRANCH  19  25
ENDBRANCH  18  20
ENDBRANCH   6  18
TORSDOF 5
ENDMDL
MODEL 9
REMARK VINA RESULT:     -10.1      3.828      9.972
REMARK  Name = 10157080
REMARK  5 active torsions:
REMARK  status: ('A' for Active; 'I' for Inactive)
REMARK    1  A    between atoms: C_3  and  O_8
REMARK    2  A    between atoms: C_6  and  O_18
REMARK    3  A    between atoms: O_8  and  C_13
REMARK    4  A    between atoms: O_18  and  C_20
REMARK    5  A    between atoms: C_19  and  N_25
REMARK                            x       y       z     vdW  Elec       q    Type
REMARK                         _______ _______ _______ _____ _____    ______ ____
ROOT
ATOM      1  N   UNL     1      36.603 -19.855 -20.574  0.00  0.00    -0.277 NA
ATOM      2  N   UNL     1      34.854 -20.891 -19.279  0.00  0.00    -0.319 NA
ATOM      3  C   UNL     1      35.651 -19.401 -21.405  0.00  0.00    +0.278 C 
ATOM      4  C   UNL     1      34.306 -19.636 -21.258  0.00  0.00    +0.156 C 
ATOM      5  C   UNL     1      33.960 -20.398 -20.161  0.00  0.00    +0.113 C 
ATOM      6  C   UNL     1      36.140 -20.586 -19.543  0.00  0.00    +0.317 C 
ATOM      7  C   UNL     1      32.524 -20.712 -19.907  0.00  0.00    +0.063 C 
ENDROOT
BRANCH   3   8
ATOM      8  O   UNL     1      36.080 -18.642 -22.479  0.00  0.00    -0.429 OA
BRANCH   8  13
ATOM      9  O   UNL     1      33.794 -15.487 -25.322  0.00  0.00    -0.435 OA
ATOM     10  O   UNL     1      33.535 -13.915 -23.513  0.00  0.00    -0.435 OA
ATOM     11  C   UNL     1      34.331 -15.945 -24.158  0.00  0.00    +0.179 C 
ATOM     12  C   UNL     1      34.183 -15.047 -23.125  0.00  0.00    +0.177 C 
ATOM     13  C   UNL     1      35.451 -17.454 -22.705  0.00  0.00    +0.151 C 
ATOM     14  C   UNL     1      34.961 -17.159 -23.979  0.00  0.00    +0.078 C 
ATOM     15  C   UNL     1      34.657 -15.314 -21.857  0.00  0.00    +0.043 C 
ATOM     16  C   UNL     1      35.299 -16.537 -21.649  0.00  0.00    +0.041 C 
ATOM     17  C   UNL     1      33.291 -14.201 -24.905  0.00  0.00    +0.429 C 
ENDBRANCH   8  13
ENDBRANCH   3   8
BRANCH   6  18
ATOM     18  O   UNL     1      37.080 -21.076 -18.666  0.00  0.00    -0.375 OA
BRANCH  18  20
ATOM     19  C   UNL     1      35.679 -22.854 -15.187  0.00  0.00    +0.057 C 
ATOM     20  C   UNL     1      36.615 -21.667 -17.511  0.00  0.00    +0.161 C 
ATOM     21  C   UNL     1      34.919 -22.915 -16.356  0.00  0.00    +0.018 C 
ATOM     22  C   UNL     1      36.909 -22.197 -15.188  0.00  0.00    +0.018 C 
ATOM     23  C   UNL     1      35.390 -22.317 -17.526  0.00  0.00    +0.040 C 
ATOM     24  C   UNL     1      37.381 -21.600 -16.357  0.00  0.00    +0.040 C 
BRANCH  19  25
ATOM     25  N   UNL     1      35.211 -23.446 -14.028  0.00  0.00    -0.246 N 
ATOM     26  N   UNL     1      33.822 -24.474 -12.619  0.00  0.00    -0.224 NA
ATOM     27  C   UNL     1      35.905 -23.610 -12.855  0.00  0.00    +0.092 C 
ATOM     28  C   UNL     1      33.964 -23.983 -13.831  0.00  0.00    +0.172 C 
ATOM     29  C   UNL     1      35.028 -24.243 -12.007  0.00  0.00    +0.117 C 
ENDBRANCH  19  25
ENDBRANCH  18  20
ENDBRANCH   6  18
TORSDOF 5
ENDMDL
