MODEL 1
REMARK VINA RESULT:     -11.9      0.000      0.000
REMARK  Name = 23635314
REMARK  9 active torsions:
REMARK  status: ('A' for Active; 'I' for Inactive)
REMARK    1  A    between atoms: C_2  and  C_8
REMARK    2  A    between atoms: C_3  and  C_23
REMARK    3  A    between atoms: C_7  and  O_13
REMARK    4  A    between atoms: O_13  and  C_14
REMARK    5  A    between atoms: C_14  and  C_15
REMARK    6  A    between atoms: C_15  and  N_17
REMARK    7  A    between atoms: C_23  and  C_26
REMARK    8  A    between atoms: N_25  and  C_28
REMARK    9  A    between atoms: C_28  and  C_29
REMARK                            x       y       z     vdW  Elec       q    Type
REMARK                         _______ _______ _______ _____ _____    ______ ____
ROOT
ATOM      1  N   UNL     1      35.449 -16.836 -21.819  0.00  0.00    -0.248 NA
ATOM      2  C   UNL     1      34.909 -19.130 -21.287  0.00  0.00    +0.019 C 
ATOM      3  C   UNL     1      35.065 -17.092 -23.090  0.00  0.00    +0.068 C 
ATOM      4  C   UNL     1      34.524 -19.355 -22.602  0.00  0.00    +0.003 C 
ATOM      5  C   UNL     1      35.360 -17.865 -20.947  0.00  0.00    +0.098 C 
ATOM      6  C   UNL     1      34.601 -18.321 -23.528  0.00  0.00    +0.015 C 
ENDROOT
BRANCH   2   8
ATOM      7  C   UNL     1      34.710 -22.214 -18.402  0.00  0.00    +0.138 C 
ATOM      8  C   UNL     1      34.841 -20.185 -20.300  0.00  0.00    +0.002 C 
ATOM      9  C   UNL     1      33.537 -21.697 -18.940  0.00  0.00    +0.037 C 
ATOM     10  C   UNL     1      35.949 -21.725 -18.804  0.00  0.00    +0.037 C 
ATOM     11  C   UNL     1      33.602 -20.680 -19.891  0.00  0.00    +0.003 C 
ATOM     12  C   UNL     1      36.014 -20.708 -19.756  0.00  0.00    +0.003 C 
BRANCH   7  13
ATOM     13  O   UNL     1      34.646 -23.213 -17.466  0.00  0.00    -0.478 OA
BRANCH  13  14
ATOM     14  C   UNL     1      33.400 -23.393 -16.806  0.00  0.00    +0.183 C 
BRANCH  14  15
ATOM     15  C   UNL     1      33.644 -23.432 -15.306  0.00  0.00    -0.029 C 
BRANCH  15  17
ATOM     16  O   UNL     1      29.831 -24.526 -13.934  0.00  0.00    -0.358 OA
ATOM     17  N   UNL     1      32.377 -23.428 -14.577  0.00  0.00    +0.393 N 
ATOM     18  C   UNL     1      31.241 -23.329 -15.504  0.00  0.00    -0.044 C 
ATOM     19  C   UNL     1      32.248 -24.635 -13.749  0.00  0.00    -0.044 C 
ATOM     20  C   UNL     1      29.932 -23.338 -14.721  0.00  0.00    +0.119 C 
ATOM     21  C   UNL     1      30.914 -24.614 -13.007  0.00  0.00    +0.119 C 
ATOM     22  H   UNL     1      32.371 -22.611 -13.966  0.00  0.00    -0.079 HD
ENDBRANCH  15  17
ENDBRANCH  14  15
ENDBRANCH  13  14
ENDBRANCH   7  13
ENDBRANCH   2   8
BRANCH   3  23
ATOM     23  C   UNL     1      35.162 -15.959 -24.058  0.00  0.00    +0.131 C 
BRANCH  23  26
ATOM     24  O   UNL     1      33.145 -15.016 -25.011  0.00  0.00    -0.275 OA
ATOM     25  N   UNL     1      33.832 -14.304 -22.911  0.00  0.00    -0.300 N 
ATOM     26  C   UNL     1      33.935 -15.058 -24.072  0.00  0.00    +0.229 C 
ATOM     27  H   UNL     1      34.519 -14.412 -22.215  0.00  0.00    +0.150 HD
BRANCH  25  28
ATOM     28  C   UNL     1      32.755 -13.368 -22.684  0.00  0.00    +0.116 C 
BRANCH  28  29
ATOM     29  C   UNL     1      33.130 -11.972 -23.090  0.00  0.00    -0.003 C 
ATOM     30  C   UNL     1      32.524 -10.889 -22.465  0.00  0.00    -0.003 C 
ATOM     31  C   UNL     1      34.081 -11.777 -24.085  0.00  0.00    -0.003 C 
ATOM     32  C   UNL     1      32.872  -9.591 -22.842  0.00  0.00    -0.000 C 
ATOM     33  C   UNL     1      34.429 -10.480 -24.462  0.00  0.00    -0.000 C 
ATOM     34  C   UNL     1      33.824  -9.387 -23.840  0.00  0.00    -0.000 C 
ENDBRANCH  28  29
ENDBRANCH  25  28
ENDBRANCH  23  26
ENDBRANCH   3  23
TORSDOF 9
ENDMDL
MODEL 2
REMARK VINA RESULT:     -11.9      1.626      2.671
REMARK  Name = 23635314
REMARK  9 active torsions:
REMARK  status: ('A' for Active; 'I' for Inactive)
REMARK    1  A    between atoms: C_2  and  C_8
REMARK    2  A    between atoms: C_3  and  C_23
REMARK    3  A    between atoms: C_7  and  O_13
REMARK    4  A    between atoms: O_13  and  C_14
REMARK    5  A    between atoms: C_14  and  C_15
REMARK    6  A    between atoms: C_15  and  N_17
REMARK    7  A    between atoms: C_23  and  C_26
REMARK    8  A    between atoms: N_25  and  C_28
REMARK    9  A    between atoms: C_28  and  C_29
REMARK                            x       y       z     vdW  Elec       q    Type
REMARK                         _______ _______ _______ _____ _____    ______ ____
ROOT
ATOM      1  N   UNL     1      35.478 -16.959 -21.700  0.00  0.00    -0.248 NA
ATOM      2  C   UNL     1      34.801 -19.231 -21.233  0.00  0.00    +0.019 C 
ATOM      3  C   UNL     1      35.094 -17.160 -22.981  0.00  0.00    +0.068 C 
ATOM      4  C   UNL     1      34.418 -19.400 -22.558  0.00  0.00    +0.003 C 
ATOM      5  C   UNL     1      35.320 -18.003 -20.856  0.00  0.00    +0.098 C 
ATOM      6  C   UNL     1      34.564 -18.348 -23.455  0.00  0.00    +0.015 C 
ENDROOT
BRANCH   2   8
ATOM      7  C   UNL     1      34.393 -22.370 -18.432  0.00  0.00    +0.138 C 
ATOM      8  C   UNL     1      34.661 -20.305 -20.275  0.00  0.00    +0.002 C 
ATOM      9  C   UNL     1      33.257 -21.769 -18.963  0.00  0.00    +0.037 C 
ATOM     10  C   UNL     1      35.662 -21.948 -18.813  0.00  0.00    +0.037 C 
ATOM     11  C   UNL     1      33.391 -20.734 -19.887  0.00  0.00    +0.003 C 
ATOM     12  C   UNL     1      35.796 -20.912 -19.737  0.00  0.00    +0.003 C 
BRANCH   7  13
ATOM     13  O   UNL     1      34.261 -23.387 -17.523  0.00  0.00    -0.478 OA
BRANCH  13  14
ATOM     14  C   UNL     1      33.242 -23.242 -16.542  0.00  0.00    +0.183 C 
BRANCH  14  15
ATOM     15  C   UNL     1      33.873 -23.343 -15.163  0.00  0.00    -0.029 C 
BRANCH  15  17
ATOM     16  O   UNL     1      37.705 -24.691 -14.108  0.00  0.00    -0.358 OA
ATOM     17  N   UNL     1      35.227 -23.883 -15.254  0.00  0.00    +0.393 N 
ATOM     18  C   UNL     1      36.215 -22.901 -14.786  0.00  0.00    -0.044 C 
ATOM     19  C   UNL     1      35.347 -25.126 -14.477  0.00  0.00    -0.044 C 
ATOM     20  C   UNL     1      37.618 -23.491 -14.879  0.00  0.00    +0.119 C 
ATOM     21  C   UNL     1      36.771 -25.664 -14.577  0.00  0.00    +0.119 C 
ATOM     22  H   UNL     1      35.415 -24.093 -16.234  0.00  0.00    -0.079 HD
ENDBRANCH  15  17
ENDBRANCH  14  15
ENDBRANCH  13  14
ENDBRANCH   7  13
ENDBRANCH   2   8
BRANCH   3  23
ATOM     23  C   UNL     1      35.266 -16.010 -23.918  0.00  0.00    +0.131 C 
BRANCH  23  26
ATOM     24  O   UNL     1      33.278 -15.183 -25.027  0.00  0.00    -0.275 OA
ATOM     25  N   UNL     1      33.858 -14.301 -22.959  0.00  0.00    -0.300 N 
ATOM     26  C   UNL     1      34.026 -15.138 -24.053  0.00  0.00    +0.229 C 
ATOM     27  H   UNL     1      34.516 -14.342 -22.227  0.00  0.00    +0.150 HD
BRANCH  25  28
ATOM     28  C   UNL     1      32.756 -13.373 -22.851  0.00  0.00    +0.116 C 
BRANCH  28  29
ATOM     29  C   UNL     1      33.162 -11.975 -23.218  0.00  0.00    -0.003 C 
ATOM     30  C   UNL     1      34.069 -11.771 -24.251  0.00  0.00    -0.003 C 
ATOM     31  C   UNL     1      32.626 -10.898 -22.521  0.00  0.00    -0.003 C 
ATOM     32  C   UNL     1      34.446 -10.472 -24.593  0.00  0.00    -0.000 C 
ATOM     33  C   UNL     1      33.003  -9.599 -22.863  0.00  0.00    -0.000 C 
ATOM     34  C   UNL     1      33.914  -9.387 -23.898  0.00  0.00    -0.000 C 
ENDBRANCH  28  29
ENDBRANCH  25  28
ENDBRANCH  23  26
ENDBRANCH   3  23
TORSDOF 9
ENDMDL
MODEL 3
REMARK VINA RESULT:     -11.9      1.646      2.705
REMARK  Name = 23635314
REMARK  9 active torsions:
REMARK  status: ('A' for Active; 'I' for Inactive)
REMARK    1  A    between atoms: C_2  and  C_8
REMARK    2  A    between atoms: C_3  and  C_23
REMARK    3  A    between atoms: C_7  and  O_13
REMARK    4  A    between atoms: O_13  and  C_14
REMARK    5  A    between atoms: C_14  and  C_15
REMARK    6  A    between atoms: C_15  and  N_17
REMARK    7  A    between atoms: C_23  and  C_26
REMARK    8  A    between atoms: N_25  and  C_28
REMARK    9  A    between atoms: C_28  and  C_29
REMARK                            x       y       z     vdW  Elec       q    Type
REMARK                         _______ _______ _______ _____ _____    ______ ____
ROOT
ATOM      1  N   UNL     1      35.508 -16.983 -21.648  0.00  0.00    -0.248 NA
ATOM      2  C   UNL     1      34.837 -19.255 -21.177  0.00  0.00    +0.019 C 
ATOM      3  C   UNL     1      35.126 -17.186 -22.928  0.00  0.00    +0.068 C 
ATOM      4  C   UNL     1      34.456 -19.427 -22.502  0.00  0.00    +0.003 C 
ATOM      5  C   UNL     1      35.352 -18.026 -20.802  0.00  0.00    +0.098 C 
ATOM      6  C   UNL     1      34.601 -18.377 -23.402  0.00  0.00    +0.015 C 
ENDROOT
BRANCH   2   8
ATOM      7  C   UNL     1      34.432 -22.391 -18.372  0.00  0.00    +0.138 C 
ATOM      8  C   UNL     1      34.699 -20.328 -20.217  0.00  0.00    +0.002 C 
ATOM      9  C   UNL     1      35.700 -21.934 -18.715  0.00  0.00    +0.037 C 
ATOM     10  C   UNL     1      33.296 -21.828 -18.944  0.00  0.00    +0.037 C 
ATOM     11  C   UNL     1      35.833 -20.899 -19.640  0.00  0.00    +0.003 C 
ATOM     12  C   UNL     1      33.431 -20.793 -19.869  0.00  0.00    +0.003 C 
BRANCH   7  13
ATOM     13  O   UNL     1      34.301 -23.409 -17.464  0.00  0.00    -0.478 OA
BRANCH  13  14
ATOM     14  C   UNL     1      33.321 -23.238 -16.448  0.00  0.00    +0.183 C 
BRANCH  14  15
ATOM     15  C   UNL     1      34.007 -23.284 -15.093  0.00  0.00    -0.029 C 
BRANCH  15  17
ATOM     16  O   UNL     1      37.763 -24.868 -14.094  0.00  0.00    -0.358 OA
ATOM     17  N   UNL     1      35.330 -23.895 -15.204  0.00  0.00    +0.393 N 
ATOM     18  C   UNL     1      36.371 -22.981 -14.715  0.00  0.00    -0.044 C 
ATOM     19  C   UNL     1      35.384 -25.163 -14.463  0.00  0.00    -0.044 C 
ATOM     20  C   UNL     1      37.739 -23.645 -14.832  0.00  0.00    +0.119 C 
ATOM     21  C   UNL     1      36.776 -25.775 -14.584  0.00  0.00    +0.119 C 
ATOM     22  H   UNL     1      35.503 -24.087 -16.191  0.00  0.00    -0.079 HD
ENDBRANCH  15  17
ENDBRANCH  14  15
ENDBRANCH  13  14
ENDBRANCH   7  13
ENDBRANCH   2   8
BRANCH   3  23
ATOM     23  C   UNL     1      35.297 -16.038 -23.867  0.00  0.00    +0.131 C 
BRANCH  23  26
ATOM     24  O   UNL     1      33.285 -15.283 -24.986  0.00  0.00    -0.275 OA
ATOM     25  N   UNL     1      33.884 -14.299 -22.970  0.00  0.00    -0.300 N 
ATOM     26  C   UNL     1      34.046 -15.185 -24.026  0.00  0.00    +0.229 C 
ATOM     27  H   UNL     1      34.552 -14.299 -22.247  0.00  0.00    +0.150 HD
BRANCH  25  28
ATOM     28  C   UNL     1      32.775 -13.378 -22.891  0.00  0.00    +0.116 C 
BRANCH  28  29
ATOM     29  C   UNL     1      33.183 -11.976 -23.241  0.00  0.00    -0.003 C 
ATOM     30  C   UNL     1      32.629 -10.905 -22.549  0.00  0.00    -0.003 C 
ATOM     31  C   UNL     1      34.110 -11.763 -24.255  0.00  0.00    -0.003 C 
ATOM     32  C   UNL     1      33.008  -9.603 -22.875  0.00  0.00    -0.000 C 
ATOM     33  C   UNL     1      34.489 -10.461 -24.581  0.00  0.00    -0.000 C 
ATOM     34  C   UNL     1      33.937  -9.380 -23.891  0.00  0.00    -0.000 C 
ENDBRANCH  28  29
ENDBRANCH  25  28
ENDBRANCH  23  26
ENDBRANCH   3  23
TORSDOF 9
ENDMDL
MODEL 4
REMARK VINA RESULT:     -11.7      1.309      2.051
REMARK  Name = 23635314
REMARK  9 active torsions:
REMARK  status: ('A' for Active; 'I' for Inactive)
REMARK    1  A    between atoms: C_2  and  C_8
REMARK    2  A    between atoms: C_3  and  C_23
REMARK    3  A    between atoms: C_7  and  O_13
REMARK    4  A    between atoms: O_13  and  C_14
REMARK    5  A    between atoms: C_14  and  C_15
REMARK    6  A    between atoms: C_15  and  N_17
REMARK    7  A    between atoms: C_23  and  C_26
REMARK    8  A    between atoms: N_25  and  C_28
REMARK    9  A    between atoms: C_28  and  C_29
REMARK                            x       y       z     vdW  Elec       q    Type
REMARK                         _______ _______ _______ _____ _____    ______ ____
ROOT
ATOM      1  N   UNL     1      35.697 -17.303 -21.820  0.00  0.00    -0.248 NA
ATOM      2  C   UNL     1      34.853 -19.459 -21.130  0.00  0.00    +0.019 C 
ATOM      3  C   UNL     1      35.191 -17.551 -23.048  0.00  0.00    +0.068 C 
ATOM      4  C   UNL     1      34.347 -19.679 -22.405  0.00  0.00    +0.003 C 
ATOM      5  C   UNL     1      35.514 -18.266 -20.889  0.00  0.00    +0.098 C 
ATOM      6  C   UNL     1      34.516 -18.712 -23.389  0.00  0.00    +0.015 C 
ENDROOT
BRANCH   2   8
ATOM      7  C   UNL     1      34.388 -22.344 -18.076  0.00  0.00    +0.138 C 
ATOM      8  C   UNL     1      34.694 -20.446 -20.085  0.00  0.00    +0.002 C 
ATOM      9  C   UNL     1      35.664 -21.944 -18.457  0.00  0.00    +0.037 C 
ATOM     10  C   UNL     1      33.263 -21.805 -18.692  0.00  0.00    +0.037 C 
ATOM     11  C   UNL     1      35.817 -20.991 -19.464  0.00  0.00    +0.003 C 
ATOM     12  C   UNL     1      33.417 -20.853 -19.699  0.00  0.00    +0.003 C 
BRANCH   7  13
ATOM     13  O   UNL     1      34.237 -23.280 -17.087  0.00  0.00    -0.478 OA
BRANCH  13  14
ATOM     14  C   UNL     1      32.906 -23.671 -16.772  0.00  0.00    +0.183 C 
BRANCH  14  15
ATOM     15  C   UNL     1      32.652 -23.398 -15.299  0.00  0.00    -0.029 C 
BRANCH  15  17
ATOM     16  O   UNL     1      28.557 -24.289 -15.518  0.00  0.00    -0.358 OA
ATOM     17  N   UNL     1      31.221 -23.426 -15.008  0.00  0.00    +0.393 N 
ATOM     18  C   UNL     1      30.447 -22.902 -16.142  0.00  0.00    -0.044 C 
ATOM     19  C   UNL     1      30.779 -24.790 -14.684  0.00  0.00    -0.044 C 
ATOM     20  C   UNL     1      28.957 -22.951 -15.819  0.00  0.00    +0.119 C 
ATOM     21  C   UNL     1      29.281 -24.795 -14.395  0.00  0.00    +0.119 C 
ATOM     22  H   UNL     1      31.055 -22.828 -14.198  0.00  0.00    -0.079 HD
ENDBRANCH  15  17
ENDBRANCH  14  15
ENDBRANCH  13  14
ENDBRANCH   7  13
ENDBRANCH   2   8
BRANCH   3  23
ATOM     23  C   UNL     1      35.390 -16.491 -24.080  0.00  0.00    +0.131 C 
BRANCH  23  26
ATOM     24  O   UNL     1      33.214 -16.007 -25.027  0.00  0.00    -0.275 OA
ATOM     25  N   UNL     1      34.233 -14.411 -23.683  0.00  0.00    -0.300 N 
ATOM     26  C   UNL     1      34.156 -15.637 -24.329  0.00  0.00    +0.229 C 
ATOM     27  H   UNL     1      35.034 -14.210 -23.146  0.00  0.00    +0.150 HD
BRANCH  25  28
ATOM     28  C   UNL     1      33.187 -13.420 -23.767  0.00  0.00    +0.116 C 
BRANCH  28  29
ATOM     29  C   UNL     1      32.747 -12.952 -22.410  0.00  0.00    -0.003 C 
ATOM     30  C   UNL     1      32.983 -13.751 -21.298  0.00  0.00    -0.003 C 
ATOM     31  C   UNL     1      32.110 -11.723 -22.279  0.00  0.00    -0.003 C 
ATOM     32  C   UNL     1      32.575 -13.316 -20.036  0.00  0.00    -0.000 C 
ATOM     33  C   UNL     1      31.702 -11.288 -21.018  0.00  0.00    -0.000 C 
ATOM     34  C   UNL     1      31.934 -12.086 -19.896  0.00  0.00    -0.000 C 
ENDBRANCH  28  29
ENDBRANCH  25  28
ENDBRANCH  23  26
ENDBRANCH   3  23
TORSDOF 9
ENDMDL
MODEL 5
REMARK VINA RESULT:     -11.5      2.320      3.442
REMARK  Name = 23635314
REMARK  9 active torsions:
REMARK  status: ('A' for Active; 'I' for Inactive)
REMARK    1  A    between atoms: C_2  and  C_8
REMARK    2  A    between atoms: C_3  and  C_23
REMARK    3  A    between atoms: C_7  and  O_13
REMARK    4  A    between atoms: O_13  and  C_14
REMARK    5  A    between atoms: C_14  and  C_15
REMARK    6  A    between atoms: C_15  and  N_17
REMARK    7  A    between atoms: C_23  and  C_26
REMARK    8  A    between atoms: N_25  and  C_28
REMARK    9  A    between atoms: C_28  and  C_29
REMARK                            x       y       z     vdW  Elec       q    Type
REMARK                         _______ _______ _______ _____ _____    ______ ____
ROOT
ATOM      1  N   UNL     1      35.768 -17.361 -21.690  0.00  0.00    -0.248 NA
ATOM      2  C   UNL     1      34.864 -19.505 -21.040  0.00  0.00    +0.019 C 
ATOM      3  C   UNL     1      35.259 -17.575 -22.924  0.00  0.00    +0.068 C 
ATOM      4  C   UNL     1      34.356 -19.690 -22.320  0.00  0.00    +0.003 C 
ATOM      5  C   UNL     1      35.556 -18.334 -20.776  0.00  0.00    +0.098 C 
ATOM      6  C   UNL     1      34.554 -18.711 -23.286  0.00  0.00    +0.015 C 
ENDROOT
BRANCH   2   8
ATOM      7  C   UNL     1      34.313 -22.428 -18.036  0.00  0.00    +0.138 C 
ATOM      8  C   UNL     1      34.676 -20.505 -20.012  0.00  0.00    +0.002 C 
ATOM      9  C   UNL     1      35.600 -22.041 -18.393  0.00  0.00    +0.037 C 
ATOM     10  C   UNL     1      33.205 -21.863 -18.659  0.00  0.00    +0.037 C 
ATOM     11  C   UNL     1      35.782 -21.077 -19.383  0.00  0.00    +0.003 C 
ATOM     12  C   UNL     1      33.388 -20.898 -19.650  0.00  0.00    +0.003 C 
BRANCH   7  13
ATOM     13  O   UNL     1      34.134 -23.376 -17.063  0.00  0.00    -0.478 OA
BRANCH  13  14
ATOM     14  C   UNL     1      34.767 -23.138 -15.813  0.00  0.00    +0.183 C 
BRANCH  14  15
ATOM     15  C   UNL     1      34.816 -24.442 -15.034  0.00  0.00    -0.029 C 
BRANCH  15  17
ATOM     16  O   UNL     1      38.076 -26.007 -12.904  0.00  0.00    -0.358 OA
ATOM     17  N   UNL     1      36.182 -24.739 -14.608  0.00  0.00    +0.393 N 
ATOM     18  C   UNL     1      36.414 -24.271 -13.235  0.00  0.00    -0.044 C 
ATOM     19  C   UNL     1      36.458 -26.179 -14.703  0.00  0.00    -0.044 C 
ATOM     20  C   UNL     1      37.842 -24.602 -12.810  0.00  0.00    +0.119 C 
ATOM     21  C   UNL     1      37.884 -26.465 -14.244  0.00  0.00    +0.119 C 
ATOM     22  H   UNL     1      36.818 -24.243 -15.233  0.00  0.00    -0.079 HD
ENDBRANCH  15  17
ENDBRANCH  14  15
ENDBRANCH  13  14
ENDBRANCH   7  13
ENDBRANCH   2   8
BRANCH   3  23
ATOM     23  C   UNL     1      35.490 -16.503 -23.937  0.00  0.00    +0.131 C 
BRANCH  23  26
ATOM     24  O   UNL     1      33.432 -16.052 -25.131  0.00  0.00    -0.275 OA
ATOM     25  N   UNL     1      34.145 -14.544 -23.516  0.00  0.00    -0.300 N 
ATOM     26  C   UNL     1      34.242 -15.701 -24.277  0.00  0.00    +0.229 C 
ATOM     27  H   UNL     1      34.850 -14.353 -22.855  0.00  0.00    +0.150 HD
BRANCH  25  28
ATOM     28  C   UNL     1      33.052 -13.611 -23.654  0.00  0.00    +0.116 C 
BRANCH  28  29
ATOM     29  C   UNL     1      32.656 -13.011 -22.336  0.00  0.00    -0.003 C 
ATOM     30  C   UNL     1      32.047 -11.762 -22.304  0.00  0.00    -0.003 C 
ATOM     31  C   UNL     1      32.903 -13.711 -21.160  0.00  0.00    -0.003 C 
ATOM     32  C   UNL     1      31.680 -11.204 -21.080  0.00  0.00    -0.000 C 
ATOM     33  C   UNL     1      32.536 -13.153 -19.935  0.00  0.00    -0.000 C 
ATOM     34  C   UNL     1      31.925 -11.899 -19.895  0.00  0.00    -0.000 C 
ENDBRANCH  28  29
ENDBRANCH  25  28
ENDBRANCH  23  26
ENDBRANCH   3  23
TORSDOF 9
ENDMDL
MODEL 6
REMARK VINA RESULT:     -11.4      1.278      1.897
REMARK  Name = 23635314
REMARK  9 active torsions:
REMARK  status: ('A' for Active; 'I' for Inactive)
REMARK    1  A    between atoms: C_2  and  C_8
REMARK    2  A    between atoms: C_3  and  C_23
REMARK    3  A    between atoms: C_7  and  O_13
REMARK    4  A    between atoms: O_13  and  C_14
REMARK    5  A    between atoms: C_14  and  C_15
REMARK    6  A    between atoms: C_15  and  N_17
REMARK    7  A    between atoms: C_23  and  C_26
REMARK    8  A    between atoms: N_25  and  C_28
REMARK    9  A    between atoms: C_28  and  C_29
REMARK                            x       y       z     vdW  Elec       q    Type
REMARK                         _______ _______ _______ _____ _____    ______ ____
ROOT
ATOM      1  N   UNL     1      34.697 -18.727 -23.425  0.00  0.00    -0.248 NA
ATOM      2  C   UNL     1      34.920 -19.394 -21.114  0.00  0.00    +0.019 C 
ATOM      3  C   UNL     1      35.197 -17.520 -23.075  0.00  0.00    +0.068 C 
ATOM      4  C   UNL     1      35.430 -18.142 -20.792  0.00  0.00    +0.003 C 
ATOM      5  C   UNL     1      34.572 -19.636 -22.432  0.00  0.00    +0.098 C 
ATOM      6  C   UNL     1      35.574 -17.181 -21.786  0.00  0.00    +0.015 C 
ENDROOT
BRANCH   2   8
ATOM      7  C   UNL     1      34.447 -22.377 -18.157  0.00  0.00    +0.138 C 
ATOM      8  C   UNL     1      34.758 -20.415 -20.103  0.00  0.00    +0.002 C 
ATOM      9  C   UNL     1      33.324 -21.808 -18.746  0.00  0.00    +0.037 C 
ATOM     10  C   UNL     1      35.725 -21.974 -18.531  0.00  0.00    +0.037 C 
ATOM     11  C   UNL     1      33.480 -20.824 -19.722  0.00  0.00    +0.003 C 
ATOM     12  C   UNL     1      35.880 -20.990 -19.506  0.00  0.00    +0.003 C 
BRANCH   7  13
ATOM     13  O   UNL     1      34.294 -23.344 -17.198  0.00  0.00    -0.478 OA
BRANCH  13  14
ATOM     14  C   UNL     1      32.988 -23.516 -16.664  0.00  0.00    +0.183 C 
BRANCH  14  15
ATOM     15  C   UNL     1      33.008 -23.136 -15.193  0.00  0.00    -0.029 C 
BRANCH  15  17
ATOM     16  O   UNL     1      29.445 -25.106 -14.172  0.00  0.00    -0.358 OA
ATOM     17  N   UNL     1      31.729 -23.452 -14.560  0.00  0.00    +0.393 N 
ATOM     18  C   UNL     1      30.656 -23.528 -15.561  0.00  0.00    -0.044 C 
ATOM     19  C   UNL     1      31.813 -24.716 -13.815  0.00  0.00    -0.044 C 
ATOM     20  C   UNL     1      29.335 -23.870 -14.879  0.00  0.00    +0.119 C 
ATOM     21  C   UNL     1      30.465 -25.031 -13.174  0.00  0.00    +0.119 C 
ATOM     22  H   UNL     1      31.511 -22.702 -13.905  0.00  0.00    -0.079 HD
ENDBRANCH  15  17
ENDBRANCH  14  15
ENDBRANCH  13  14
ENDBRANCH   7  13
ENDBRANCH   2   8
BRANCH   3  23
ATOM     23  C   UNL     1      35.337 -16.513 -24.167  0.00  0.00    +0.131 C 
BRANCH  23  26
ATOM     24  O   UNL     1      33.157 -16.012 -25.096  0.00  0.00    -0.275 OA
ATOM     25  N   UNL     1      34.156 -14.465 -23.682  0.00  0.00    -0.300 N 
ATOM     26  C   UNL     1      34.093 -15.663 -24.381  0.00  0.00    +0.229 C 
ATOM     27  H   UNL     1      34.953 -14.278 -23.135  0.00  0.00    +0.150 HD
BRANCH  25  28
ATOM     28  C   UNL     1      33.098 -13.483 -23.725  0.00  0.00    +0.116 C 
BRANCH  28  29
ATOM     29  C   UNL     1      32.709 -13.017 -22.352  0.00  0.00    -0.003 C 
ATOM     30  C   UNL     1      31.985 -11.840 -22.205  0.00  0.00    -0.003 C 
ATOM     31  C   UNL     1      33.077 -13.768 -21.241  0.00  0.00    -0.003 C 
ATOM     32  C   UNL     1      31.623 -11.407 -20.929  0.00  0.00    -0.000 C 
ATOM     33  C   UNL     1      32.716 -13.335 -19.965  0.00  0.00    -0.000 C 
ATOM     34  C   UNL     1      31.989 -12.154 -19.809  0.00  0.00    -0.000 C 
ENDBRANCH  28  29
ENDBRANCH  25  28
ENDBRANCH  23  26
ENDBRANCH   3  23
TORSDOF 9
ENDMDL
MODEL 7
REMARK VINA RESULT:     -11.3      3.790     12.526
REMARK  Name = 23635314
REMARK  9 active torsions:
REMARK  status: ('A' for Active; 'I' for Inactive)
REMARK    1  A    between atoms: C_2  and  C_8
REMARK    2  A    between atoms: C_3  and  C_23
REMARK    3  A    between atoms: C_7  and  O_13
REMARK    4  A    between atoms: O_13  and  C_14
REMARK    5  A    between atoms: C_14  and  C_15
REMARK    6  A    between atoms: C_15  and  N_17
REMARK    7  A    between atoms: C_23  and  C_26
REMARK    8  A    between atoms: N_25  and  C_28
REMARK    9  A    between atoms: C_28  and  C_29
REMARK                            x       y       z     vdW  Elec       q    Type
REMARK                         _______ _______ _______ _____ _____    ______ ____
ROOT
ATOM      1  N   UNL     1      34.976 -16.229 -22.187  0.00  0.00    -0.248 NA
ATOM      2  C   UNL     1      33.802 -14.303 -23.050  0.00  0.00    +0.019 C 
ATOM      3  C   UNL     1      34.772 -16.828 -23.381  0.00  0.00    +0.068 C 
ATOM      4  C   UNL     1      33.610 -14.951 -24.264  0.00  0.00    +0.003 C 
ATOM      5  C   UNL     1      34.484 -14.977 -22.052  0.00  0.00    +0.098 C 
ATOM      6  C   UNL     1      34.102 -16.239 -24.440  0.00  0.00    +0.015 C 
ENDROOT
BRANCH   2   8
ATOM      7  C   UNL     1      32.342 -10.386 -22.421  0.00  0.00    +0.138 C 
ATOM      8  C   UNL     1      33.302 -12.962 -22.835  0.00  0.00    +0.002 C 
ATOM      9  C   UNL     1      33.295 -10.615 -23.407  0.00  0.00    +0.037 C 
ATOM     10  C   UNL     1      31.865 -11.433 -21.639  0.00  0.00    +0.037 C 
ATOM     11  C   UNL     1      33.776 -11.907 -23.615  0.00  0.00    +0.003 C 
ATOM     12  C   UNL     1      32.347 -12.724 -21.847  0.00  0.00    +0.003 C 
BRANCH   7  13
ATOM     13  O   UNL     1      31.869  -9.116 -22.216  0.00  0.00    -0.478 OA
BRANCH  13  14
ATOM     14  C   UNL     1      32.012  -8.583 -20.905  0.00  0.00    +0.183 C 
BRANCH  14  15
ATOM     15  C   UNL     1      33.018  -7.444 -20.948  0.00  0.00    -0.029 C 
BRANCH  15  17
ATOM     16  O   UNL     1      34.140  -5.049 -24.207  0.00  0.00    -0.358 OA
ATOM     17  N   UNL     1      33.155  -6.927 -22.307  0.00  0.00    +0.393 N 
ATOM     18  C   UNL     1      32.596  -5.572 -22.410  0.00  0.00    -0.044 C 
ATOM     19  C   UNL     1      34.564  -6.923 -22.725  0.00  0.00    -0.044 C 
ATOM     20  C   UNL     1      32.761  -5.050 -23.834  0.00  0.00    +0.119 C 
ATOM     21  C   UNL     1      34.683  -6.368 -24.141  0.00  0.00    +0.119 C 
ATOM     22  H   UNL     1      32.632  -7.543 -22.930  0.00  0.00    -0.079 HD
ENDBRANCH  15  17
ENDBRANCH  14  15
ENDBRANCH  13  14
ENDBRANCH   7  13
ENDBRANCH   2   8
BRANCH   3  23
ATOM     23  C   UNL     1      35.312 -18.211 -23.536  0.00  0.00    +0.131 C 
BRANCH  23  26
ATOM     24  O   UNL     1      37.347 -18.469 -22.246  0.00  0.00    -0.275 OA
ATOM     25  N   UNL     1      35.374 -19.374 -21.422  0.00  0.00    -0.300 N 
ATOM     26  C   UNL     1      36.141 -18.682 -22.349  0.00  0.00    +0.229 C 
ATOM     27  H   UNL     1      34.412 -19.491 -21.598  0.00  0.00    +0.150 HD
BRANCH  25  28
ATOM     28  C   UNL     1      35.930 -19.926 -20.209  0.00  0.00    +0.116 C 
BRANCH  28  29
ATOM     29  C   UNL     1      34.952 -20.816 -19.497  0.00  0.00    -0.003 C 
ATOM     30  C   UNL     1      33.592 -20.683 -19.751  0.00  0.00    -0.003 C 
ATOM     31  C   UNL     1      35.417 -21.764 -18.593  0.00  0.00    -0.003 C 
ATOM     32  C   UNL     1      32.683 -21.510 -19.090  0.00  0.00    -0.000 C 
ATOM     33  C   UNL     1      34.508 -22.590 -17.932  0.00  0.00    -0.000 C 
ATOM     34  C   UNL     1      33.140 -22.462 -18.180  0.00  0.00    -0.000 C 
ENDBRANCH  28  29
ENDBRANCH  25  28
ENDBRANCH  23  26
ENDBRANCH   3  23
TORSDOF 9
ENDMDL
MODEL 8
REMARK VINA RESULT:     -11.2      2.248     11.674
REMARK  Name = 23635314
REMARK  9 active torsions:
REMARK  status: ('A' for Active; 'I' for Inactive)
REMARK    1  A    between atoms: C_2  and  C_8
REMARK    2  A    between atoms: C_3  and  C_23
REMARK    3  A    between atoms: C_7  and  O_13
REMARK    4  A    between atoms: O_13  and  C_14
REMARK    5  A    between atoms: C_14  and  C_15
REMARK    6  A    between atoms: C_15  and  N_17
REMARK    7  A    between atoms: C_23  and  C_26
REMARK    8  A    between atoms: N_25  and  C_28
REMARK    9  A    between atoms: C_28  and  C_29
REMARK                            x       y       z     vdW  Elec       q    Type
REMARK                         _______ _______ _______ _____ _____    ______ ____
ROOT
ATOM      1  N   UNL     1      36.187 -23.047 -15.834  0.00  0.00    -0.248 NA
ATOM      2  C   UNL     1      34.914 -22.197 -17.703  0.00  0.00    +0.019 C 
ATOM      3  C   UNL     1      35.066 -23.681 -15.422  0.00  0.00    +0.068 C 
ATOM      4  C   UNL     1      33.782 -22.863 -17.248  0.00  0.00    +0.003 C 
ATOM      5  C   UNL     1      36.081 -22.319 -16.968  0.00  0.00    +0.098 C 
ATOM      6  C   UNL     1      33.852 -23.621 -16.085  0.00  0.00    +0.015 C 
ENDROOT
BRANCH   2   8
ATOM      7  C   UNL     1      34.798 -19.867 -21.228  0.00  0.00    +0.138 C 
ATOM      8  C   UNL     1      34.874 -21.400 -18.909  0.00  0.00    +0.002 C 
ATOM      9  C   UNL     1      33.610 -20.296 -20.647  0.00  0.00    +0.037 C 
ATOM     10  C   UNL     1      36.025 -20.199 -20.662  0.00  0.00    +0.037 C 
ATOM     11  C   UNL     1      33.648 -21.064 -19.483  0.00  0.00    +0.003 C 
ATOM     12  C   UNL     1      36.062 -20.968 -19.499  0.00  0.00    +0.003 C 
BRANCH   7  13
ATOM     13  O   UNL     1      34.761 -19.113 -22.372  0.00  0.00    -0.478 OA
BRANCH  13  14
ATOM     14  C   UNL     1      35.261 -17.785 -22.280  0.00  0.00    +0.183 C 
BRANCH  14  15
ATOM     15  C   UNL     1      35.107 -17.110 -23.633  0.00  0.00    -0.029 C 
BRANCH  15  17
ATOM     16  O   UNL     1      33.147 -13.510 -22.730  0.00  0.00    -0.358 OA
ATOM     17  N   UNL     1      34.828 -15.685 -23.470  0.00  0.00    +0.393 N 
ATOM     18  C   UNL     1      33.687 -15.278 -24.301  0.00  0.00    -0.044 C 
ATOM     19  C   UNL     1      34.565 -15.362 -22.060  0.00  0.00    -0.044 C 
ATOM     20  C   UNL     1      33.408 -13.791 -24.106  0.00  0.00    +0.119 C 
ATOM     21  C   UNL     1      34.265 -13.873 -21.917  0.00  0.00    +0.119 C 
ATOM     22  H   UNL     1      35.653 -15.169 -23.774  0.00  0.00    -0.079 HD
ENDBRANCH  15  17
ENDBRANCH  14  15
ENDBRANCH  13  14
ENDBRANCH   7  13
ENDBRANCH   2   8
BRANCH   3  23
ATOM     23  C   UNL     1      35.177 -24.486 -14.169  0.00  0.00    +0.131 C 
BRANCH  23  26
ATOM     24  O   UNL     1      33.913 -23.737 -12.243  0.00  0.00    -0.275 OA
ATOM     25  N   UNL     1      32.895 -25.162 -13.767  0.00  0.00    -0.300 N 
ATOM     26  C   UNL     1      33.948 -24.402 -13.276  0.00  0.00    +0.229 C 
ATOM     27  H   UNL     1      33.024 -25.660 -14.607  0.00  0.00    +0.150 HD
BRANCH  25  28
ATOM     28  C   UNL     1      31.619 -25.250 -13.097  0.00  0.00    +0.116 C 
BRANCH  28  29
ATOM     29  C   UNL     1      30.530 -24.568 -13.873  0.00  0.00    -0.003 C 
ATOM     30  C   UNL     1      29.617 -25.331 -14.592  0.00  0.00    -0.003 C 
ATOM     31  C   UNL     1      30.444 -23.181 -13.864  0.00  0.00    -0.003 C 
ATOM     32  C   UNL     1      28.605 -24.698 -15.313  0.00  0.00    -0.000 C 
ATOM     33  C   UNL     1      29.432 -22.547 -14.585  0.00  0.00    -0.000 C 
ATOM     34  C   UNL     1      28.513 -23.306 -15.311  0.00  0.00    -0.000 C 
ENDBRANCH  28  29
ENDBRANCH  25  28
ENDBRANCH  23  26
ENDBRANCH   3  23
TORSDOF 9
ENDMDL
MODEL 9
REMARK VINA RESULT:     -11.2      2.868     12.405
REMARK  Name = 23635314
REMARK  9 active torsions:
REMARK  status: ('A' for Active; 'I' for Inactive)
REMARK    1  A    between atoms: C_2  and  C_8
REMARK    2  A    between atoms: C_3  and  C_23
REMARK    3  A    between atoms: C_7  and  O_13
REMARK    4  A    between atoms: O_13  and  C_14
REMARK    5  A    between atoms: C_14  and  C_15
REMARK    6  A    between atoms: C_15  and  N_17
REMARK    7  A    between atoms: C_23  and  C_26
REMARK    8  A    between atoms: N_25  and  C_28
REMARK    9  A    between atoms: C_28  and  C_29
REMARK                            x       y       z     vdW  Elec       q    Type
REMARK                         _______ _______ _______ _____ _____    ______ ____
ROOT
ATOM      1  N   UNL     1      35.538 -22.171 -18.384  0.00  0.00    -0.248 NA
ATOM      2  C   UNL     1      34.565 -20.624 -19.964  0.00  0.00    +0.019 C 
ATOM      3  C   UNL     1      34.283 -22.503 -18.010  0.00  0.00    +0.068 C 
ATOM      4  C   UNL     1      33.290 -20.991 -19.553  0.00  0.00    +0.003 C 
ATOM      5  C   UNL     1      35.648 -21.237 -19.355  0.00  0.00    +0.098 C 
ATOM      6  C   UNL     1      33.137 -21.948 -18.557  0.00  0.00    +0.015 C 
ENDROOT
BRANCH   2   8
ATOM      7  C   UNL     1      35.128 -17.722 -22.986  0.00  0.00    +0.138 C 
ATOM      8  C   UNL     1      34.758 -19.631 -20.998  0.00  0.00    +0.002 C 
ATOM      9  C   UNL     1      34.378 -18.860 -23.256  0.00  0.00    +0.037 C 
ATOM     10  C   UNL     1      35.696 -17.528 -21.731  0.00  0.00    +0.037 C 
ATOM     11  C   UNL     1      34.192 -19.818 -22.259  0.00  0.00    +0.003 C 
ATOM     12  C   UNL     1      35.510 -18.486 -20.735  0.00  0.00    +0.003 C 
BRANCH   7  13
ATOM     13  O   UNL     1      35.311 -16.781 -23.965  0.00  0.00    -0.478 OA
BRANCH  13  14
ATOM     14  C   UNL     1      34.870 -15.460 -23.676  0.00  0.00    +0.183 C 
BRANCH  14  15
ATOM     15  C   UNL     1      33.510 -15.247 -24.319  0.00  0.00    -0.029 C 
BRANCH  15  17
ATOM     16  O   UNL     1      33.933 -11.103 -24.831  0.00  0.00    -0.358 OA
ATOM     17  N   UNL     1      33.201 -13.822 -24.415  0.00  0.00    +0.393 N 
ATOM     18  C   UNL     1      33.935 -13.059 -23.396  0.00  0.00    -0.044 C 
ATOM     19  C   UNL     1      33.518 -13.308 -25.755  0.00  0.00    -0.044 C 
ATOM     20  C   UNL     1      33.605 -11.575 -23.524  0.00  0.00    +0.119 C 
ATOM     21  C   UNL     1      33.199 -11.818 -25.827  0.00  0.00    +0.119 C 
ATOM     22  H   UNL     1      32.201 -13.708 -24.250  0.00  0.00    -0.079 HD
ENDBRANCH  15  17
ENDBRANCH  14  15
ENDBRANCH  13  14
ENDBRANCH   7  13
ENDBRANCH   2   8
BRANCH   3  23
ATOM     23  C   UNL     1      34.156 -23.534 -16.937  0.00  0.00    +0.131 C 
BRANCH  23  26
ATOM     24  O   UNL     1      34.239 -22.853 -14.614  0.00  0.00    -0.275 OA
ATOM     25  N   UNL     1      36.232 -23.187 -15.757  0.00  0.00    -0.300 N 
ATOM     26  C   UNL     1      34.849 -23.154 -15.637  0.00  0.00    +0.229 C 
ATOM     27  H   UNL     1      36.625 -23.443 -16.623  0.00  0.00    +0.150 HD
BRANCH  25  28
ATOM     28  C   UNL     1      37.116 -22.863 -14.662  0.00  0.00    +0.116 C 
BRANCH  28  29
ATOM     29  C   UNL     1      37.304 -24.025 -13.730  0.00  0.00    -0.003 C 
ATOM     30  C   UNL     1      37.539 -25.292 -14.250  0.00  0.00    -0.003 C 
ATOM     31  C   UNL     1      37.242 -23.821 -12.356  0.00  0.00    -0.003 C 
ATOM     32  C   UNL     1      37.714 -26.372 -13.384  0.00  0.00    -0.000 C 
ATOM     33  C   UNL     1      37.417 -24.901 -11.490  0.00  0.00    -0.000 C 
ATOM     34  C   UNL     1      37.652 -26.177 -12.005  0.00  0.00    -0.000 C 
ENDBRANCH  28  29
ENDBRANCH  25  28
ENDBRANCH  23  26
ENDBRANCH   3  23
TORSDOF 9
ENDMDL
