MODEL 1
REMARK VINA RESULT:     -12.2      0.000      0.000
REMARK  Name = 46937081
REMARK  6 active torsions:
REMARK  status: ('A' for Active; 'I' for Inactive)
REMARK    1  A    between atoms: N_1  and  C_10
REMARK    2  A    between atoms: C_4  and  C_16
REMARK    3  A    between atoms: C_9  and  C_31
REMARK    4  A    between atoms: C_16  and  C_17
REMARK    5  A    between atoms: C_18  and  N_23
REMARK    6  A    between atoms: C_31  and  N_32
REMARK                            x       y       z     vdW  Elec       q    Type
REMARK                         _______ _______ _______ _____ _____    ______ ____
ROOT
ATOM      1  N   UNL     1      34.118 -23.452 -15.178  0.00  0.00    -0.267 N 
ATOM      2  N   UNL     1      35.192 -23.635 -13.026  0.00  0.00    -0.341 NA
ATOM      3  N   UNL     1      37.563 -23.087 -13.098  0.00  0.00    -0.188 NA
ATOM      4  C   UNL     1      34.494 -23.114 -16.452  0.00  0.00    +0.035 C 
ATOM      5  C   UNL     1      35.202 -23.372 -14.345  0.00  0.00    +0.199 C 
ATOM      6  C   UNL     1      36.296 -22.975 -15.103  0.00  0.00    +0.066 C 
ATOM      7  C   UNL     1      35.839 -22.814 -16.436  0.00  0.00    +0.016 C 
ATOM      8  C   UNL     1      37.508 -22.836 -14.427  0.00  0.00    +0.114 C 
ATOM      9  C   UNL     1      36.417 -23.465 -12.489  0.00  0.00    +0.042 C 
ENDROOT
BRANCH   1  10
ATOM     10  C   UNL     1      32.719 -23.854 -14.749  0.00  0.00    +0.079 C 
ATOM     11  C   UNL     1      32.742 -24.868 -13.592  0.00  0.00    +0.020 C 
ATOM     12  C   UNL     1      31.855 -22.631 -14.393  0.00  0.00    +0.020 C 
ATOM     13  C   UNL     1      31.329 -25.273 -13.175  0.00  0.00    +0.002 C 
ATOM     14  C   UNL     1      30.446 -23.045 -13.973  0.00  0.00    +0.002 C 
ATOM     15  C   UNL     1      30.473 -24.057 -12.831  0.00  0.00    +0.000 C 
ENDBRANCH   1  10
BRANCH   4  16
ATOM     16  C   UNL     1      33.513 -23.106 -17.608  0.00  0.00    +0.068 C 
BRANCH  16  17
ATOM     17  C   UNL     1      33.791 -22.057 -18.630  0.00  0.00    -0.016 C 
ATOM     18  C   UNL     1      34.313 -20.095 -20.544  0.00  0.00    +0.048 C 
ATOM     19  C   UNL     1      35.107 -21.773 -18.998  0.00  0.00    -0.003 C 
ATOM     20  C   UNL     1      32.737 -21.361 -19.220  0.00  0.00    -0.003 C 
ATOM     21  C   UNL     1      35.368 -20.792 -19.954  0.00  0.00    +0.014 C 
ATOM     22  C   UNL     1      32.997 -20.379 -20.177  0.00  0.00    +0.014 C 
BRANCH  18  23
ATOM     23  N   UNL     1      34.574 -19.111 -21.504  0.00  0.00    -0.312 N 
ATOM     24  N   UNL     1      35.353 -17.184 -23.463  0.00  0.00    +0.388 N 
ATOM     25  C   UNL     1      34.538 -19.456 -22.928  0.00  0.00    +0.068 C 
ATOM     26  C   UNL     1      35.479 -18.015 -21.139  0.00  0.00    +0.068 C 
ATOM     27  C   UNL     1      35.252 -16.805 -22.049  0.00  0.00    -0.056 C 
ATOM     28  C   UNL     1      34.343 -18.201 -23.781  0.00  0.00    -0.056 C 
ATOM     29  C   UNL     1      35.188 -16.012 -24.322  0.00  0.00    -0.101 C 
ATOM     30  H   UNL     1      36.279 -17.576 -23.635  0.00  0.00    -0.080 HD
ENDBRANCH  18  23
ENDBRANCH  16  17
ENDBRANCH   4  16
BRANCH   9  31
ATOM     31  C   UNL     1      36.524 -23.731 -11.023  0.00  0.00    +0.030 C 
BRANCH  31  32
ATOM     32  N   UNL     1      37.866 -24.161 -10.633  0.00  0.00    +0.390 N 
ATOM     33  H   UNL     1      37.893 -25.180 -10.571  0.00  0.00    -0.088 HD
ATOM     34  H   UNL     1      38.102 -23.759  -9.726  0.00  0.00    -0.088 HD
ATOM     35  H   UNL     1      38.541 -23.845 -11.330  0.00  0.00    -0.088 HD
ENDBRANCH  31  32
ENDBRANCH   9  31
TORSDOF 6
ENDMDL
MODEL 2
REMARK VINA RESULT:     -11.4      1.820      4.052
REMARK  Name = 46937081
REMARK  6 active torsions:
REMARK  status: ('A' for Active; 'I' for Inactive)
REMARK    1  A    between atoms: N_1  and  C_10
REMARK    2  A    between atoms: C_4  and  C_16
REMARK    3  A    between atoms: C_9  and  C_31
REMARK    4  A    between atoms: C_16  and  C_17
REMARK    5  A    between atoms: C_18  and  N_23
REMARK    6  A    between atoms: C_31  and  N_32
REMARK                            x       y       z     vdW  Elec       q    Type
REMARK                         _______ _______ _______ _____ _____    ______ ____
ROOT
ATOM      1  N   UNL     1      34.454 -23.394 -15.961  0.00  0.00    -0.267 N 
ATOM      2  N   UNL     1      32.803 -24.205 -14.400  0.00  0.00    -0.341 NA
ATOM      3  N   UNL     1      30.519 -23.785 -15.130  0.00  0.00    -0.188 NA
ATOM      4  C   UNL     1      34.447 -22.752 -17.171  0.00  0.00    +0.035 C 
ATOM      5  C   UNL     1      33.165 -23.599 -15.544  0.00  0.00    +0.199 C 
ATOM      6  C   UNL     1      32.315 -23.075 -16.510  0.00  0.00    +0.066 C 
ATOM      7  C   UNL     1      33.135 -22.540 -17.537  0.00  0.00    +0.016 C 
ATOM      8  C   UNL     1      30.947 -23.186 -16.266  0.00  0.00    +0.114 C 
ATOM      9  C   UNL     1      31.461 -24.250 -14.279  0.00  0.00    +0.042 C 
ENDROOT
BRANCH   1  10
ATOM     10  C   UNL     1      35.694 -23.817 -15.194  0.00  0.00    +0.079 C 
ATOM     11  C   UNL     1      35.865 -23.013 -13.893  0.00  0.00    +0.020 C 
ATOM     12  C   UNL     1      35.705 -25.330 -14.912  0.00  0.00    +0.020 C 
ATOM     13  C   UNL     1      37.122 -23.440 -13.135  0.00  0.00    +0.002 C 
ATOM     14  C   UNL     1      36.961 -25.747 -14.150  0.00  0.00    +0.002 C 
ATOM     15  C   UNL     1      37.133 -24.941 -12.865  0.00  0.00    +0.000 C 
ENDBRANCH   1  10
BRANCH   4  16
ATOM     16  C   UNL     1      35.727 -22.383 -17.897  0.00  0.00    +0.068 C 
BRANCH  16  17
ATOM     17  C   UNL     1      35.540 -21.369 -18.974  0.00  0.00    -0.016 C 
ATOM     18  C   UNL     1      35.191 -19.468 -20.987  0.00  0.00    +0.048 C 
ATOM     19  C   UNL     1      34.272 -21.145 -19.509  0.00  0.00    -0.003 C 
ATOM     20  C   UNL     1      36.634 -20.642 -19.444  0.00  0.00    -0.003 C 
ATOM     21  C   UNL     1      34.097 -20.195 -20.515  0.00  0.00    +0.014 C 
ATOM     22  C   UNL     1      36.460 -19.692 -20.451  0.00  0.00    +0.014 C 
BRANCH  18  23
ATOM     23  N   UNL     1      35.017 -18.516 -21.996  0.00  0.00    -0.312 N 
ATOM     24  N   UNL     1      34.914 -16.591 -24.105  0.00  0.00    +0.388 N 
ATOM     25  C   UNL     1      34.799 -18.952 -23.379  0.00  0.00    +0.068 C 
ATOM     26  C   UNL     1      35.676 -17.214 -21.837  0.00  0.00    +0.068 C 
ATOM     27  C   UNL     1      34.992 -16.156 -22.705  0.00  0.00    -0.056 C 
ATOM     28  C   UNL     1      34.144 -17.837 -24.198  0.00  0.00    -0.056 C 
ATOM     29  C   UNL     1      34.308 -15.550 -24.933  0.00  0.00    -0.101 C 
ATOM     30  H   UNL     1      35.859 -16.762 -24.449  0.00  0.00    -0.080 HD
ENDBRANCH  18  23
ENDBRANCH  16  17
ENDBRANCH   4  16
BRANCH   9  31
ATOM     31  C   UNL     1      30.945 -24.903 -13.039  0.00  0.00    +0.030 C 
BRANCH  31  32
ATOM     32  N   UNL     1      29.598 -25.448 -13.218  0.00  0.00    +0.390 N 
ATOM     33  H   UNL     1      29.053 -25.289 -12.370  0.00  0.00    -0.088 HD
ATOM     34  H   UNL     1      29.658 -26.449 -13.401  0.00  0.00    -0.088 HD
ATOM     35  H   UNL     1      29.146 -24.984 -14.005  0.00  0.00    -0.088 HD
ENDBRANCH  31  32
ENDBRANCH   9  31
TORSDOF 6
ENDMDL
