MODEL 1
REMARK VINA RESULT:     -11.1      0.000      0.000
REMARK  Name = 8969
REMARK  3 active torsions:
REMARK  status: ('A' for Active; 'I' for Inactive)
REMARK    1  A    between atoms: C_7  and  C_27
REMARK    2  A    between atoms: C_10  and  O_24
REMARK    3  A    between atoms: C_27  and  O_28
REMARK                            x       y       z     vdW  Elec       q    Type
REMARK                         _______ _______ _______ _____ _____    ______ ____
ROOT
ATOM      1  N   UNL     1      34.195 -23.143 -15.922  0.00  0.00    +0.392 N 
ATOM      2  N   UNL     1      33.100 -21.715 -19.204  0.00  0.00    -0.358 N 
ATOM      3  C   UNL     1      31.360 -23.776 -15.550  0.00  0.00    +0.009 C 
ATOM      4  C   UNL     1      32.384 -23.815 -14.394  0.00  0.00    -0.020 C 
ATOM      5  C   UNL     1      31.848 -22.787 -16.624  0.00  0.00    -0.015 C 
ATOM      6  C   UNL     1      33.269 -23.148 -17.089  0.00  0.00    -0.019 C 
ATOM      7  C   UNL     1      29.961 -23.425 -15.005  0.00  0.00    +0.126 C 
ATOM      8  C   UNL     1      33.791 -24.140 -14.922  0.00  0.00    -0.077 C 
ATOM      9  C   UNL     1      31.953 -24.805 -13.306  0.00  0.00    +0.000 C 
ATOM     10  C   UNL     1      29.521 -24.405 -13.905  0.00  0.00    +0.121 C 
ATOM     11  C   UNL     1      30.555 -24.474 -12.779  0.00  0.00    +0.030 C 
ATOM     12  C   UNL     1      33.790 -22.209 -18.133  0.00  0.00    +0.010 A 
ATOM     13  C   UNL     1      35.602 -23.329 -16.335  0.00  0.00    -0.072 C 
ATOM     14  C   UNL     1      35.090 -21.754 -18.208  0.00  0.00    -0.013 A 
ATOM     15  C   UNL     1      36.099 -22.135 -17.183  0.00  0.00    +0.005 C 
ATOM     16  C   UNL     1      35.191 -20.920 -19.354  0.00  0.00    +0.013 A 
ATOM     17  C   UNL     1      33.929 -20.913 -19.961  0.00  0.00    +0.056 A 
ATOM     18  C   UNL     1      36.229 -20.173 -19.943  0.00  0.00    +0.001 C 
ATOM     19  C   UNL     1      33.659 -20.192 -21.130  0.00  0.00    +0.017 C 
ATOM     20  C   UNL     1      35.972 -19.446 -21.111  0.00  0.00    +0.000 C 
ATOM     21  C   UNL     1      34.707 -19.457 -21.694  0.00  0.00    +0.001 C 
ATOM     22  H   UNL     1      34.131 -22.222 -15.487  0.00  0.00    -0.079 HD
ATOM     23  H   UNL     1      32.155 -21.902 -19.405  0.00  0.00    +0.166 HD
ENDROOT
BRANCH  10  24
ATOM     24  O   UNL     1      29.361 -25.712 -14.461  0.00  0.00    -0.384 OA
ATOM     25  H   UNL     1      28.788 -26.241 -13.885  0.00  0.00    +0.210 HD
ENDBRANCH  10  24
BRANCH   7  27
ATOM     26  O   UNL     1      28.653 -24.409 -16.775  0.00  0.00    -0.250 OA
ATOM     27  C   UNL     1      28.931 -23.427 -16.097  0.00  0.00    +0.319 C 
BRANCH  27  28
ATOM     28  O   UNL     1      28.374 -22.188 -16.201  0.00  0.00    -0.444 OA
ATOM     29  C   UNL     1      26.962 -22.165 -16.432  0.00  0.00    +0.256 C 
ENDBRANCH  27  28
ENDBRANCH   7  27
TORSDOF 3
ENDMDL
MODEL 2
REMARK VINA RESULT:      -9.7      1.058      1.228
REMARK  Name = 8969
REMARK  3 active torsions:
REMARK  status: ('A' for Active; 'I' for Inactive)
REMARK    1  A    between atoms: C_7  and  C_27
REMARK    2  A    between atoms: C_10  and  O_24
REMARK    3  A    between atoms: C_27  and  O_28
REMARK                            x       y       z     vdW  Elec       q    Type
REMARK                         _______ _______ _______ _____ _____    ______ ____
ROOT
ATOM      1  N   UNL     1      35.174 -22.832 -16.011  0.00  0.00    +0.392 N 
ATOM      2  N   UNL     1      33.837 -21.520 -19.252  0.00  0.00    -0.358 N 
ATOM      3  C   UNL     1      32.397 -23.593 -15.476  0.00  0.00    +0.009 C 
ATOM      4  C   UNL     1      33.483 -23.561 -14.377  0.00  0.00    -0.020 C 
ATOM      5  C   UNL     1      32.779 -22.602 -16.591  0.00  0.00    -0.015 C 
ATOM      6  C   UNL     1      34.189 -22.904 -17.126  0.00  0.00    -0.019 C 
ATOM      7  C   UNL     1      31.015 -23.298 -14.862  0.00  0.00    +0.126 C 
ATOM      8  C   UNL     1      34.873 -23.828 -14.975  0.00  0.00    -0.077 C 
ATOM      9  C   UNL     1      33.159 -24.550 -13.251  0.00  0.00    +0.000 C 
ATOM     10  C   UNL     1      30.682 -24.278 -13.723  0.00  0.00    +0.121 C 
ATOM     11  C   UNL     1      31.776 -24.276 -12.654  0.00  0.00    +0.030 C 
ATOM     12  C   UNL     1      34.607 -21.960 -18.212  0.00  0.00    +0.010 A 
ATOM     13  C   UNL     1      36.565 -22.959 -16.497  0.00  0.00    -0.072 C 
ATOM     14  C   UNL     1      35.877 -21.445 -18.365  0.00  0.00    -0.013 A 
ATOM     15  C   UNL     1      36.957 -21.758 -17.391  0.00  0.00    +0.005 C 
ATOM     16  C   UNL     1      35.876 -20.629 -19.529  0.00  0.00    +0.013 A 
ATOM     17  C   UNL     1      34.585 -20.694 -20.065  0.00  0.00    +0.056 A 
ATOM     18  C   UNL     1      36.844 -19.844 -20.185  0.00  0.00    +0.001 C 
ATOM     19  C   UNL     1      34.218 -20.008 -21.230  0.00  0.00    +0.017 C 
ATOM     20  C   UNL     1      36.489 -19.152 -21.349  0.00  0.00    +0.000 C 
ATOM     21  C   UNL     1      35.197 -19.235 -21.861  0.00  0.00    +0.001 C 
ATOM     22  H   UNL     1      35.089 -21.908 -15.589  0.00  0.00    -0.079 HD
ATOM     23  H   UNL     1      32.893 -21.755 -19.398  0.00  0.00    +0.166 HD
ENDROOT
BRANCH  10  24
ATOM     24  O   UNL     1      30.556 -25.601 -14.249  0.00  0.00    -0.384 OA
ATOM     25  H   UNL     1      30.554 -25.566 -15.218  0.00  0.00    +0.210 HD
ENDBRANCH  10  24
BRANCH   7  27
ATOM     26  O   UNL     1      29.784 -22.553 -16.796  0.00  0.00    -0.250 OA
ATOM     27  C   UNL     1      29.928 -23.371 -15.896  0.00  0.00    +0.319 C 
BRANCH  27  28
ATOM     28  O   UNL     1      29.154 -24.469 -15.667  0.00  0.00    -0.444 OA
ATOM     29  C   UNL     1      28.000 -24.593 -16.505  0.00  0.00    +0.256 C 
ENDBRANCH  27  28
ENDBRANCH   7  27
TORSDOF 3
ENDMDL
MODEL 3
REMARK VINA RESULT:      -9.0     13.330     16.627
REMARK  Name = 8969
REMARK  3 active torsions:
REMARK  status: ('A' for Active; 'I' for Inactive)
REMARK    1  A    between atoms: C_7  and  C_27
REMARK    2  A    between atoms: C_10  and  O_24
REMARK    3  A    between atoms: C_27  and  O_28
REMARK                            x       y       z     vdW  Elec       q    Type
REMARK                         _______ _______ _______ _____ _____    ______ ____
ROOT
ATOM      1  N   UNL     1      31.924  -7.702 -21.246  0.00  0.00    +0.392 N 
ATOM      2  N   UNL     1      33.214  -5.706 -24.136  0.00  0.00    -0.358 N 
ATOM      3  C   UNL     1      32.957 -10.013 -22.718  0.00  0.00    +0.009 C 
ATOM      4  C   UNL     1      31.983 -10.147 -21.527  0.00  0.00    -0.020 C 
ATOM      5  C   UNL     1      32.759  -8.636 -23.380  0.00  0.00    -0.015 C 
ATOM      6  C   UNL     1      32.910  -7.509 -22.344  0.00  0.00    -0.019 C 
ATOM      7  C   UNL     1      32.757 -11.183 -23.700  0.00  0.00    +0.126 C 
ATOM      8  C   UNL     1      32.150  -8.974 -20.548  0.00  0.00    -0.077 C 
ATOM      9  C   UNL     1      32.157 -11.495 -20.819  0.00  0.00    +0.000 C 
ATOM     10  C   UNL     1      32.920 -12.543 -22.999  0.00  0.00    +0.121 C 
ATOM     11  C   UNL     1      31.983 -12.661 -21.796  0.00  0.00    +0.030 C 
ATOM     12  C   UNL     1      32.720  -6.149 -22.942  0.00  0.00    +0.010 A 
ATOM     13  C   UNL     1      31.918  -6.562 -20.304  0.00  0.00    -0.072 C 
ATOM     14  C   UNL     1      32.066  -5.101 -22.329  0.00  0.00    -0.013 A 
ATOM     15  C   UNL     1      31.427  -5.267 -20.995  0.00  0.00    +0.005 C 
ATOM     16  C   UNL     1      32.135  -3.979 -23.198  0.00  0.00    +0.013 A 
ATOM     17  C   UNL     1      32.860  -4.385 -24.324  0.00  0.00    +0.056 A 
ATOM     18  C   UNL     1      31.658  -2.655 -23.141  0.00  0.00    +0.001 C 
ATOM     19  C   UNL     1      33.130  -3.527 -25.396  0.00  0.00    +0.017 C 
ATOM     20  C   UNL     1      31.919  -1.787 -24.208  0.00  0.00    +0.000 C 
ATOM     21  C   UNL     1      32.644  -2.218 -25.316  0.00  0.00    +0.001 C 
ATOM     22  H   UNL     1      30.998  -7.741 -21.671  0.00  0.00    -0.079 HD
ATOM     23  H   UNL     1      33.742  -6.245 -24.768  0.00  0.00    +0.166 HD
ENDROOT
BRANCH  10  24
ATOM     24  O   UNL     1      34.267 -12.693 -22.548  0.00  0.00    -0.384 OA
ATOM     25  H   UNL     1      34.749 -11.862 -22.683  0.00  0.00    +0.210 HD
ENDBRANCH  10  24
BRANCH   7  27
ATOM     26  O   UNL     1      33.510 -11.581 -25.956  0.00  0.00    -0.250 OA
ATOM     27  C   UNL     1      33.725 -11.109 -24.846  0.00  0.00    +0.319 C 
BRANCH  27  28
ATOM     28  O   UNL     1      34.849 -10.448 -24.451  0.00  0.00    -0.444 OA
ATOM     29  C   UNL     1      35.660  -9.928 -25.509  0.00  0.00    +0.256 C 
ENDBRANCH  27  28
ENDBRANCH   7  27
TORSDOF 3
ENDMDL
