MODEL 1
REMARK VINA RESULT:     -12.6      0.000      0.000
REMARK  Name = 25023705
REMARK  6 active torsions:
REMARK  status: ('A' for Active; 'I' for Inactive)
REMARK    1  A    between atoms: C_1  and  C_8
REMARK    2  A    between atoms: C_1  and  C_20
REMARK    3  A    between atoms: C_20  and  N_22
REMARK    4  A    between atoms: C_23  and  C_25
REMARK    5  A    between atoms: C_30  and  O_31
REMARK    6  A    between atoms: O_31  and  C_32
REMARK                            x       y       z     vdW  Elec       q    Type
REMARK                         _______ _______ _______ _____ _____    ______ ____
ROOT
ATOM      1  C   UNL     1      32.405 -23.877 -14.600  0.00  0.00    +0.066 C 
ATOM      2  C   UNL     1      31.922 -22.413 -14.454  0.00  0.00    +0.009 C 
ATOM      3  C   UNL     1      31.302 -24.766 -13.976  0.00  0.00    +0.009 C 
ENDROOT
BRANCH   1   8
ATOM      4  N   UNL     1      34.846 -24.177 -14.736  0.00  0.00    -0.347 NA
ATOM      5  N   UNL     1      37.129 -24.463 -14.996  0.00  0.00    -0.266 NA
ATOM      6  N   UNL     1      38.609 -24.565 -13.099  0.00  0.00    -0.316 NA
ATOM      7  N   UNL     1      39.441 -24.753 -15.280  0.00  0.00    -0.283 N 
ATOM      8  C   UNL     1      33.779 -24.014 -13.917  0.00  0.00    +0.122 C 
ATOM      9  C   UNL     1      33.858 -23.968 -12.542  0.00  0.00    +0.026 C 
ATOM     10  C   UNL     1      35.116 -24.097 -11.978  0.00  0.00    +0.001 C 
ATOM     11  C   UNL     1      36.067 -24.302 -14.198  0.00  0.00    +0.137 C 
ATOM     12  C   UNL     1      36.232 -24.266 -12.809  0.00  0.00    +0.199 C 
ATOM     13  C   UNL     1      37.528 -24.403 -12.317  0.00  0.00    +0.187 C 
ATOM     14  C   UNL     1      38.339 -24.585 -14.412  0.00  0.00    +0.207 C 
ATOM     15  H   UNL     1      39.301 -24.776 -16.254  0.00  0.00    +0.156 HD
ATOM     16  H   UNL     1      40.349 -24.848 -14.910  0.00  0.00    +0.156 HD
ATOM     17  N   UNL     1      37.749 -24.372 -10.918  0.00  0.00    -0.334 N 
ATOM     18  H   UNL     1      38.661 -24.468 -10.561  0.00  0.00    +0.144 HD
ATOM     19  H   UNL     1      36.989 -24.256 -10.302  0.00  0.00    +0.144 HD
ENDBRANCH   1   8
BRANCH   1  20
ATOM     20  C   UNL     1      32.504 -24.205 -16.117  0.00  0.00    +0.096 C 
BRANCH  20  22
ATOM     21  O   UNL     1      33.617 -24.454 -18.752  0.00  0.00    -0.270 OA
ATOM     22  N   UNL     1      33.096 -23.153 -16.903  0.00  0.00    -0.300 N 
ATOM     23  C   UNL     1      33.611 -23.370 -18.175  0.00  0.00    +0.246 C 
ATOM     24  H   UNL     1      33.138 -22.245 -16.524  0.00  0.00    +0.150 HD
BRANCH  23  25
ATOM     25  C   UNL     1      34.212 -22.187 -18.844  0.00  0.00    +0.054 C 
ATOM     26  C   UNL     1      33.395 -21.264 -19.496  0.00  0.00    +0.008 C 
ATOM     27  C   UNL     1      35.596 -22.002 -18.820  0.00  0.00    +0.008 C 
ATOM     28  C   UNL     1      33.961 -20.155 -20.125  0.00  0.00    +0.038 C 
ATOM     29  C   UNL     1      36.160 -20.892 -19.448  0.00  0.00    +0.038 C 
ATOM     30  C   UNL     1      35.343 -19.969 -20.101  0.00  0.00    +0.145 C 
BRANCH  30  31
ATOM     31  O   UNL     1      35.895 -18.888 -20.717  0.00  0.00    -0.453 OA
BRANCH  31  32
ATOM     32  C   UNL     1      35.361 -18.497 -21.933  0.00  0.00    +0.145 C 
ATOM     33  C   UNL     1      35.347 -17.148 -22.287  0.00  0.00    +0.037 C 
ATOM     34  C   UNL     1      34.835 -19.453 -22.804  0.00  0.00    +0.037 C 
ATOM     35  C   UNL     1      34.808 -16.754 -23.511  0.00  0.00    +0.003 C 
ATOM     36  C   UNL     1      34.296 -19.058 -24.028  0.00  0.00    +0.003 C 
ATOM     37  C   UNL     1      34.282 -17.709 -24.382  0.00  0.00    +0.000 C 
ENDBRANCH  31  32
ENDBRANCH  30  31
ENDBRANCH  23  25
ENDBRANCH  20  22
ENDBRANCH   1  20
TORSDOF 6
ENDMDL
MODEL 2
REMARK VINA RESULT:     -12.0      1.322      2.103
REMARK  Name = 25023705
REMARK  6 active torsions:
REMARK  status: ('A' for Active; 'I' for Inactive)
REMARK    1  A    between atoms: C_1  and  C_8
REMARK    2  A    between atoms: C_1  and  C_20
REMARK    3  A    between atoms: C_20  and  N_22
REMARK    4  A    between atoms: C_23  and  C_25
REMARK    5  A    between atoms: C_30  and  O_31
REMARK    6  A    between atoms: O_31  and  C_32
REMARK                            x       y       z     vdW  Elec       q    Type
REMARK                         _______ _______ _______ _____ _____    ______ ____
ROOT
ATOM      1  C   UNL     1      32.231 -23.737 -14.768  0.00  0.00    +0.066 C 
ATOM      2  C   UNL     1      31.851 -22.477 -13.954  0.00  0.00    +0.009 C 
ATOM      3  C   UNL     1      31.531 -24.933 -14.078  0.00  0.00    +0.009 C 
ENDROOT
BRANCH   1   8
ATOM      4  N   UNL     1      34.443 -22.756 -15.231  0.00  0.00    -0.347 NA
ATOM      5  N   UNL     1      36.460 -21.721 -15.702  0.00  0.00    -0.266 NA
ATOM      6  N   UNL     1      38.559 -22.867 -15.415  0.00  0.00    -0.316 NA
ATOM      7  N   UNL     1      38.496 -20.656 -16.184  0.00  0.00    -0.283 N 
ATOM      8  C   UNL     1      33.768 -23.853 -14.810  0.00  0.00    +0.122 C 
ATOM      9  C   UNL     1      34.368 -25.034 -14.430  0.00  0.00    +0.026 C 
ATOM     10  C   UNL     1      35.750 -25.085 -14.486  0.00  0.00    +0.001 C 
ATOM     11  C   UNL     1      35.781 -22.798 -15.288  0.00  0.00    +0.137 C 
ATOM     12  C   UNL     1      36.467 -23.961 -14.919  0.00  0.00    +0.199 C 
ATOM     13  C   UNL     1      37.857 -23.936 -15.003  0.00  0.00    +0.187 C 
ATOM     14  C   UNL     1      37.806 -21.807 -15.744  0.00  0.00    +0.207 C 
ATOM     15  H   UNL     1      37.992 -19.849 -16.439  0.00  0.00    +0.156 HD
ATOM     16  H   UNL     1      39.479 -20.661 -16.235  0.00  0.00    +0.156 HD
ATOM     17  N   UNL     1      38.597 -25.088 -14.640  0.00  0.00    -0.334 N 
ATOM     18  H   UNL     1      39.580 -25.079 -14.697  0.00  0.00    +0.144 HD
ATOM     19  H   UNL     1      38.129 -25.897 -14.332  0.00  0.00    +0.144 HD
ENDBRANCH   1   8
BRANCH   1  20
ATOM     20  C   UNL     1      31.647 -23.583 -16.201  0.00  0.00    +0.096 C 
BRANCH  20  22
ATOM     21  O   UNL     1      33.416 -24.327 -18.336  0.00  0.00    -0.270 OA
ATOM     22  N   UNL     1      32.400 -22.691 -17.044  0.00  0.00    -0.300 N 
ATOM     23  C   UNL     1      33.235 -23.145 -18.057  0.00  0.00    +0.246 C 
ATOM     24  H   UNL     1      32.321 -21.720 -16.896  0.00  0.00    +0.150 HD
BRANCH  23  25
ATOM     25  C   UNL     1      33.963 -22.099 -18.820  0.00  0.00    +0.054 C 
ATOM     26  C   UNL     1      35.357 -22.092 -18.838  0.00  0.00    +0.008 C 
ATOM     27  C   UNL     1      33.251 -21.122 -19.516  0.00  0.00    +0.008 C 
ATOM     28  C   UNL     1      36.040 -21.108 -19.553  0.00  0.00    +0.038 C 
ATOM     29  C   UNL     1      33.934 -20.138 -20.232  0.00  0.00    +0.038 C 
ATOM     30  C   UNL     1      35.329 -20.131 -20.249  0.00  0.00    +0.145 C 
BRANCH  30  31
ATOM     31  O   UNL     1      35.995 -19.170 -20.945  0.00  0.00    -0.453 OA
BRANCH  31  32
ATOM     32  C   UNL     1      35.393 -18.668 -22.087  0.00  0.00    +0.145 C 
ATOM     33  C   UNL     1      34.795 -19.537 -22.999  0.00  0.00    +0.037 C 
ATOM     34  C   UNL     1      35.387 -17.293 -22.326  0.00  0.00    +0.037 C 
ATOM     35  C   UNL     1      34.189 -19.032 -24.150  0.00  0.00    +0.003 C 
ATOM     36  C   UNL     1      34.782 -16.788 -23.477  0.00  0.00    +0.003 C 
ATOM     37  C   UNL     1      34.183 -17.658 -24.388  0.00  0.00    +0.000 C 
ENDBRANCH  31  32
ENDBRANCH  30  31
ENDBRANCH  23  25
ENDBRANCH  20  22
ENDBRANCH   1  20
TORSDOF 6
ENDMDL
MODEL 3
REMARK VINA RESULT:     -11.7      5.072      8.542
REMARK  Name = 25023705
REMARK  6 active torsions:
REMARK  status: ('A' for Active; 'I' for Inactive)
REMARK    1  A    between atoms: C_1  and  C_8
REMARK    2  A    between atoms: C_1  and  C_20
REMARK    3  A    between atoms: C_20  and  N_22
REMARK    4  A    between atoms: C_23  and  C_25
REMARK    5  A    between atoms: C_30  and  O_31
REMARK    6  A    between atoms: O_31  and  C_32
REMARK                            x       y       z     vdW  Elec       q    Type
REMARK                         _______ _______ _______ _____ _____    ______ ____
ROOT
ATOM      1  C   UNL     1      35.382 -18.783 -22.121  0.00  0.00    +0.066 C 
ATOM      2  C   UNL     1      34.158 -18.378 -22.978  0.00  0.00    +0.009 C 
ATOM      3  C   UNL     1      36.409 -19.412 -23.093  0.00  0.00    +0.009 C 
ENDROOT
BRANCH   1   8
ATOM      4  N   UNL     1      35.858 -20.168 -20.140  0.00  0.00    -0.347 NA
ATOM      5  N   UNL     1      36.434 -21.431 -18.287  0.00  0.00    -0.266 NA
ATOM      6  N   UNL     1      34.796 -22.730 -17.092  0.00  0.00    -0.316 NA
ATOM      7  N   UNL     1      37.036 -22.706 -16.411  0.00  0.00    -0.283 N 
ATOM      8  C   UNL     1      34.910 -19.738 -21.008  0.00  0.00    +0.122 C 
ATOM      9  C   UNL     1      33.582 -20.103 -20.947  0.00  0.00    +0.026 C 
ATOM     10  C   UNL     1      33.211 -20.964 -19.928  0.00  0.00    +0.001 C 
ATOM     11  C   UNL     1      35.507 -21.000 -19.151  0.00  0.00    +0.137 C 
ATOM     12  C   UNL     1      34.178 -21.419 -19.021  0.00  0.00    +0.199 C 
ATOM     13  C   UNL     1      33.882 -22.285 -17.970  0.00  0.00    +0.187 C 
ATOM     14  C   UNL     1      36.036 -22.269 -17.307  0.00  0.00    +0.207 C 
ATOM     15  H   UNL     1      37.964 -22.400 -16.522  0.00  0.00    +0.156 HD
ATOM     16  H   UNL     1      36.803 -23.319 -15.675  0.00  0.00    +0.156 HD
ATOM     17  N   UNL     1      32.550 -22.737 -17.795  0.00  0.00    -0.334 N 
ATOM     18  H   UNL     1      32.332 -23.350 -17.056  0.00  0.00    +0.144 HD
ATOM     19  H   UNL     1      31.844 -22.440 -18.413  0.00  0.00    +0.144 HD
ENDBRANCH   1   8
BRANCH   1  20
ATOM     20  C   UNL     1      36.000 -17.490 -21.518  0.00  0.00    +0.096 C 
BRANCH  20  22
ATOM     21  O   UNL     1      34.808 -15.763 -19.559  0.00  0.00    -0.270 OA
ATOM     22  N   UNL     1      35.229 -16.301 -21.776  0.00  0.00    -0.300 N 
ATOM     23  C   UNL     1      34.689 -15.525 -20.758  0.00  0.00    +0.246 C 
ATOM     24  H   UNL     1      35.079 -16.028 -22.709  0.00  0.00    +0.150 HD
BRANCH  23  25
ATOM     25  C   UNL     1      33.897 -14.345 -21.190  0.00  0.00    +0.054 C 
ATOM     26  C   UNL     1      34.155 -13.744 -22.421  0.00  0.00    +0.008 C 
ATOM     27  C   UNL     1      32.895 -13.837 -20.361  0.00  0.00    +0.008 C 
ATOM     28  C   UNL     1      33.411 -12.635 -22.825  0.00  0.00    +0.038 C 
ATOM     29  C   UNL     1      32.152 -12.728 -20.766  0.00  0.00    +0.038 C 
ATOM     30  C   UNL     1      32.410 -12.127 -21.998  0.00  0.00    +0.145 C 
BRANCH  30  31
ATOM     31  O   UNL     1      31.687 -11.044 -22.391  0.00  0.00    -0.453 OA
BRANCH  31  32
ATOM     32  C   UNL     1      32.198  -9.789 -22.104  0.00  0.00    +0.145 C 
ATOM     33  C   UNL     1      33.052  -9.161 -23.011  0.00  0.00    +0.037 C 
ATOM     34  C   UNL     1      31.860  -9.155 -20.909  0.00  0.00    +0.037 C 
ATOM     35  C   UNL     1      33.568  -7.898 -22.722  0.00  0.00    +0.003 C 
ATOM     36  C   UNL     1      32.377  -7.891 -20.620  0.00  0.00    +0.003 C 
ATOM     37  C   UNL     1      33.231  -7.263 -21.527  0.00  0.00    +0.000 C 
ENDBRANCH  31  32
ENDBRANCH  30  31
ENDBRANCH  23  25
ENDBRANCH  20  22
ENDBRANCH   1  20
TORSDOF 6
ENDMDL
MODEL 4
REMARK VINA RESULT:     -11.5      2.411      4.848
REMARK  Name = 25023705
REMARK  6 active torsions:
REMARK  status: ('A' for Active; 'I' for Inactive)
REMARK    1  A    between atoms: C_1  and  C_8
REMARK    2  A    between atoms: C_1  and  C_20
REMARK    3  A    between atoms: C_20  and  N_22
REMARK    4  A    between atoms: C_23  and  C_25
REMARK    5  A    between atoms: C_30  and  O_31
REMARK    6  A    between atoms: O_31  and  C_32
REMARK                            x       y       z     vdW  Elec       q    Type
REMARK                         _______ _______ _______ _____ _____    ______ ____
ROOT
ATOM      1  C   UNL     1      33.990 -22.490 -18.519  0.00  0.00    +0.066 C 
ATOM      2  C   UNL     1      32.704 -21.659 -18.741  0.00  0.00    +0.009 C 
ATOM      3  C   UNL     1      33.893 -23.710 -19.468  0.00  0.00    +0.009 C 
ENDROOT
BRANCH   1   8
ATOM      4  N   UNL     1      32.966 -23.383 -16.464  0.00  0.00    -0.347 NA
ATOM      5  N   UNL     1      31.890 -24.242 -14.602  0.00  0.00    -0.266 NA
ATOM      6  N   UNL     1      33.016 -24.449 -12.483  0.00  0.00    -0.316 NA
ATOM      7  N   UNL     1      30.784 -25.114 -12.725  0.00  0.00    -0.283 N 
ATOM      8  C   UNL     1      34.084 -22.866 -17.027  0.00  0.00    +0.122 C 
ATOM      9  C   UNL     1      35.268 -22.662 -16.352  0.00  0.00    +0.026 C 
ATOM     10  C   UNL     1      35.300 -23.015 -15.014  0.00  0.00    +0.001 C 
ATOM     11  C   UNL     1      32.988 -23.729 -15.170  0.00  0.00    +0.137 C 
ATOM     12  C   UNL     1      34.153 -23.553 -14.414  0.00  0.00    +0.199 C 
ATOM     13  C   UNL     1      34.107 -23.932 -13.074  0.00  0.00    +0.187 C 
ATOM     14  C   UNL     1      31.957 -24.575 -13.296  0.00  0.00    +0.207 C 
ATOM     15  H   UNL     1      29.976 -25.228 -13.276  0.00  0.00    +0.156 HD
ATOM     16  H   UNL     1      30.774 -25.375 -11.775  0.00  0.00    +0.156 HD
ATOM     17  N   UNL     1      35.260 -23.775 -12.266  0.00  0.00    -0.334 N 
ATOM     18  H   UNL     1      35.236 -24.040 -11.318  0.00  0.00    +0.144 HD
ATOM     19  H   UNL     1      36.084 -23.400 -12.652  0.00  0.00    +0.144 HD
ENDBRANCH   1   8
BRANCH   1  20
ATOM     20  C   UNL     1      35.208 -21.625 -18.951  0.00  0.00    +0.096 C 
BRANCH  20  22
ATOM     21  O   UNL     1      36.957 -19.605 -19.999  0.00  0.00    -0.270 OA
ATOM     22  N   UNL     1      34.923 -20.720 -20.035  0.00  0.00    -0.300 N 
ATOM     23  C   UNL     1      35.837 -19.771 -20.475  0.00  0.00    +0.246 C 
ATOM     24  H   UNL     1      34.047 -20.776 -20.481  0.00  0.00    +0.150 HD
BRANCH  23  25
ATOM     25  C   UNL     1      35.382 -18.894 -21.585  0.00  0.00    +0.054 C 
ATOM     26  C   UNL     1      35.742 -17.548 -21.603  0.00  0.00    +0.008 C 
ATOM     27  C   UNL     1      34.592 -19.420 -22.608  0.00  0.00    +0.008 C 
ATOM     28  C   UNL     1      35.313 -16.726 -22.645  0.00  0.00    +0.038 C 
ATOM     29  C   UNL     1      34.164 -18.598 -23.650  0.00  0.00    +0.038 C 
ATOM     30  C   UNL     1      34.524 -17.251 -23.668  0.00  0.00    +0.145 C 
BRANCH  30  31
ATOM     31  O   UNL     1      34.104 -16.448 -24.684  0.00  0.00    -0.453 OA
BRANCH  31  32
ATOM     32  C   UNL     1      33.891 -15.109 -24.401  0.00  0.00    +0.145 C 
ATOM     33  C   UNL     1      33.949 -14.658 -23.082  0.00  0.00    +0.037 C 
ATOM     34  C   UNL     1      33.618 -14.212 -25.434  0.00  0.00    +0.037 C 
ATOM     35  C   UNL     1      33.734 -13.310 -22.796  0.00  0.00    +0.003 C 
ATOM     36  C   UNL     1      33.403 -12.864 -25.147  0.00  0.00    +0.003 C 
ATOM     37  C   UNL     1      33.460 -12.413 -23.829  0.00  0.00    +0.000 C 
ENDBRANCH  31  32
ENDBRANCH  30  31
ENDBRANCH  23  25
ENDBRANCH  20  22
ENDBRANCH   1  20
TORSDOF 6
ENDMDL
MODEL 5
REMARK VINA RESULT:     -11.4      0.937      2.025
REMARK  Name = 25023705
REMARK  6 active torsions:
REMARK  status: ('A' for Active; 'I' for Inactive)
REMARK    1  A    between atoms: C_1  and  C_8
REMARK    2  A    between atoms: C_1  and  C_20
REMARK    3  A    between atoms: C_20  and  N_22
REMARK    4  A    between atoms: C_23  and  C_25
REMARK    5  A    between atoms: C_30  and  O_31
REMARK    6  A    between atoms: O_31  and  C_32
REMARK                            x       y       z     vdW  Elec       q    Type
REMARK                         _______ _______ _______ _____ _____    ______ ____
ROOT
ATOM      1  C   UNL     1      32.253 -23.890 -14.765  0.00  0.00    +0.066 C 
ATOM      2  C   UNL     1      31.924 -22.395 -14.537  0.00  0.00    +0.009 C 
ATOM      3  C   UNL     1      31.090 -24.696 -14.138  0.00  0.00    +0.009 C 
ENDROOT
BRANCH   1   8
ATOM      4  N   UNL     1      33.720 -24.075 -12.794  0.00  0.00    -0.347 NA
ATOM      5  N   UNL     1      34.995 -24.214 -10.866  0.00  0.00    -0.266 NA
ATOM      6  N   UNL     1      37.319 -24.842 -10.937  0.00  0.00    -0.316 NA
ATOM      7  N   UNL     1      36.271 -24.350  -8.901  0.00  0.00    -0.283 N 
ATOM      8  C   UNL     1      33.630 -24.193 -14.141  0.00  0.00    +0.122 C 
ATOM      9  C   UNL     1      34.677 -24.558 -14.959  0.00  0.00    +0.026 C 
ATOM     10  C   UNL     1      35.892 -24.818 -14.349  0.00  0.00    +0.001 C 
ATOM     11  C   UNL     1      34.892 -24.326 -12.196  0.00  0.00    +0.137 C 
ATOM     12  C   UNL     1      36.005 -24.703 -12.956  0.00  0.00    +0.199 C 
ATOM     13  C   UNL     1      37.193 -24.948 -12.270  0.00  0.00    +0.187 C 
ATOM     14  C   UNL     1      36.194 -24.476 -10.305  0.00  0.00    +0.207 C 
ATOM     15  H   UNL     1      35.476 -24.083  -8.387  0.00  0.00    +0.156 HD
ATOM     16  H   UNL     1      37.122 -24.528  -8.437  0.00  0.00    +0.156 HD
ATOM     17  N   UNL     1      38.349 -25.332 -12.995  0.00  0.00    -0.334 N 
ATOM     18  H   UNL     1      39.192 -25.507 -12.518  0.00  0.00    +0.144 HD
ATOM     19  H   UNL     1      38.308 -25.424 -13.974  0.00  0.00    +0.144 HD
ENDBRANCH   1   8
BRANCH   1  20
ATOM     20  C   UNL     1      32.269 -24.155 -16.297  0.00  0.00    +0.096 C 
BRANCH  20  22
ATOM     21  O   UNL     1      33.637 -24.456 -18.802  0.00  0.00    -0.270 OA
ATOM     22  N   UNL     1      32.900 -23.111 -17.062  0.00  0.00    -0.300 N 
ATOM     23  C   UNL     1      33.542 -23.354 -18.270  0.00  0.00    +0.246 C 
ATOM     24  H   UNL     1      32.877 -22.190 -16.715  0.00  0.00    +0.150 HD
BRANCH  23  25
ATOM     25  C   UNL     1      34.168 -22.175 -18.923  0.00  0.00    +0.054 C 
ATOM     26  C   UNL     1      33.373 -21.245 -19.593  0.00  0.00    +0.008 C 
ATOM     27  C   UNL     1      35.551 -22.000 -18.866  0.00  0.00    +0.008 C 
ATOM     28  C   UNL     1      33.962 -20.140 -20.207  0.00  0.00    +0.038 C 
ATOM     29  C   UNL     1      36.139 -20.893 -19.479  0.00  0.00    +0.038 C 
ATOM     30  C   UNL     1      35.344 -19.964 -20.150  0.00  0.00    +0.145 C 
BRANCH  30  31
ATOM     31  O   UNL     1      35.919 -18.886 -20.751  0.00  0.00    -0.453 OA
BRANCH  31  32
ATOM     32  C   UNL     1      35.400 -18.475 -21.968  0.00  0.00    +0.145 C 
ATOM     33  C   UNL     1      35.386 -17.120 -22.296  0.00  0.00    +0.037 C 
ATOM     34  C   UNL     1      34.890 -19.416 -22.863  0.00  0.00    +0.037 C 
ATOM     35  C   UNL     1      34.862 -16.704 -23.521  0.00  0.00    +0.003 C 
ATOM     36  C   UNL     1      34.367 -19.000 -24.088  0.00  0.00    +0.003 C 
ATOM     37  C   UNL     1      34.353 -17.645 -24.416  0.00  0.00    +0.000 C 
ENDBRANCH  31  32
ENDBRANCH  30  31
ENDBRANCH  23  25
ENDBRANCH  20  22
ENDBRANCH   1  20
TORSDOF 6
ENDMDL
MODEL 6
REMARK VINA RESULT:     -11.2      8.473     13.734
REMARK  Name = 25023705
REMARK  6 active torsions:
REMARK  status: ('A' for Active; 'I' for Inactive)
REMARK    1  A    between atoms: C_1  and  C_8
REMARK    2  A    between atoms: C_1  and  C_20
REMARK    3  A    between atoms: C_20  and  N_22
REMARK    4  A    between atoms: C_23  and  C_25
REMARK    5  A    between atoms: C_30  and  O_31
REMARK    6  A    between atoms: O_31  and  C_32
REMARK                            x       y       z     vdW  Elec       q    Type
REMARK                         _______ _______ _______ _____ _____    ______ ____
ROOT
ATOM      1  C   UNL     1      32.738 -12.050 -22.434  0.00  0.00    +0.066 C 
ATOM      2  C   UNL     1      31.207 -12.248 -22.549  0.00  0.00    +0.009 C 
ATOM      3  C   UNL     1      33.144 -12.571 -21.033  0.00  0.00    +0.009 C 
ENDROOT
BRANCH   1   8
ATOM      4  N   UNL     1      32.357  -9.670 -21.927  0.00  0.00    -0.347 NA
ATOM      5  N   UNL     1      31.907  -7.470 -21.362  0.00  0.00    -0.266 NA
ATOM      6  N   UNL     1      33.076  -5.639 -22.401  0.00  0.00    -0.316 NA
ATOM      7  N   UNL     1      31.436  -5.246 -20.776  0.00  0.00    -0.283 N 
ATOM      8  C   UNL     1      33.062 -10.561 -22.665  0.00  0.00    +0.122 C 
ATOM      9  C   UNL     1      34.026 -10.214 -23.586  0.00  0.00    +0.026 C 
ATOM     10  C   UNL     1      34.279  -8.864 -23.756  0.00  0.00    +0.001 C 
ATOM     11  C   UNL     1      32.596  -8.361 -22.085  0.00  0.00    +0.137 C 
ATOM     12  C   UNL     1      33.560  -7.926 -23.001  0.00  0.00    +0.199 C 
ATOM     13  C   UNL     1      33.756  -6.551 -23.116  0.00  0.00    +0.187 C 
ATOM     14  C   UNL     1      32.179  -6.162 -21.553  0.00  0.00    +0.207 C 
ATOM     15  H   UNL     1      30.763  -5.575 -20.138  0.00  0.00    +0.156 HD
ATOM     16  H   UNL     1      31.592  -4.278 -20.874  0.00  0.00    +0.156 HD
ATOM     17  N   UNL     1      34.721  -6.060 -24.029  0.00  0.00    -0.334 N 
ATOM     18  H   UNL     1      34.867  -5.090 -24.117  0.00  0.00    +0.144 HD
ATOM     19  H   UNL     1      35.246  -6.688 -24.577  0.00  0.00    +0.144 HD
ENDBRANCH   1   8
BRANCH   1  20
ATOM     20  C   UNL     1      33.424 -12.940 -23.509  0.00  0.00    +0.096 C 
BRANCH  20  22
ATOM     21  O   UNL     1      33.870 -15.356 -24.993  0.00  0.00    -0.270 OA
ATOM     22  N   UNL     1      33.940 -14.182 -22.994  0.00  0.00    -0.300 N 
ATOM     23  C   UNL     1      34.122 -15.304 -23.792  0.00  0.00    +0.246 C 
ATOM     24  H   UNL     1      34.172 -14.238 -22.039  0.00  0.00    +0.150 HD
BRANCH  23  25
ATOM     25  C   UNL     1      34.637 -16.516 -23.104  0.00  0.00    +0.054 C 
ATOM     26  C   UNL     1      34.594 -17.753 -23.746  0.00  0.00    +0.008 C 
ATOM     27  C   UNL     1      35.163 -16.415 -21.816  0.00  0.00    +0.008 C 
ATOM     28  C   UNL     1      35.076 -18.891 -23.098  0.00  0.00    +0.038 C 
ATOM     29  C   UNL     1      35.646 -17.553 -21.169  0.00  0.00    +0.038 C 
ATOM     30  C   UNL     1      35.602 -18.791 -21.810  0.00  0.00    +0.145 C 
BRANCH  30  31
ATOM     31  O   UNL     1      36.071 -19.901 -21.178  0.00  0.00    -0.453 OA
BRANCH  31  32
ATOM     32  C   UNL     1      35.215 -20.557 -20.310  0.00  0.00    +0.145 C 
ATOM     33  C   UNL     1      35.731 -21.409 -19.333  0.00  0.00    +0.037 C 
ATOM     34  C   UNL     1      33.836 -20.368 -20.414  0.00  0.00    +0.037 C 
ATOM     35  C   UNL     1      34.869 -22.071 -18.459  0.00  0.00    +0.003 C 
ATOM     36  C   UNL     1      32.974 -21.031 -19.539  0.00  0.00    +0.003 C 
ATOM     37  C   UNL     1      33.491 -21.882 -18.563  0.00  0.00    +0.000 C 
ENDBRANCH  31  32
ENDBRANCH  30  31
ENDBRANCH  23  25
ENDBRANCH  20  22
ENDBRANCH   1  20
TORSDOF 6
ENDMDL
MODEL 7
REMARK VINA RESULT:     -10.9      8.753     13.641
REMARK  Name = 25023705
REMARK  6 active torsions:
REMARK  status: ('A' for Active; 'I' for Inactive)
REMARK    1  A    between atoms: C_1  and  C_8
REMARK    2  A    between atoms: C_1  and  C_20
REMARK    3  A    between atoms: C_20  and  N_22
REMARK    4  A    between atoms: C_23  and  C_25
REMARK    5  A    between atoms: C_30  and  O_31
REMARK    6  A    between atoms: O_31  and  C_32
REMARK                            x       y       z     vdW  Elec       q    Type
REMARK                         _______ _______ _______ _____ _____    ______ ____
ROOT
ATOM      1  C   UNL     1      32.334 -11.852 -21.757  0.00  0.00    +0.066 C 
ATOM      2  C   UNL     1      31.019 -12.263 -22.463  0.00  0.00    +0.009 C 
ATOM      3  C   UNL     1      32.377 -12.634 -20.422  0.00  0.00    +0.009 C 
ENDROOT
BRANCH   1   8
ATOM      4  N   UNL     1      32.705  -9.594 -22.670  0.00  0.00    -0.347 NA
ATOM      5  N   UNL     1      33.087  -7.528 -23.643  0.00  0.00    -0.266 NA
ATOM      6  N   UNL     1      32.796  -5.482 -22.408  0.00  0.00    -0.316 NA
ATOM      7  N   UNL     1      33.478  -5.443 -24.647  0.00  0.00    -0.283 N 
ATOM      8  C   UNL     1      32.344 -10.321 -21.585  0.00  0.00    +0.122 C 
ATOM      9  C   UNL     1      31.996  -9.775 -20.368  0.00  0.00    +0.026 C 
ATOM     10  C   UNL     1      32.022  -8.395 -20.265  0.00  0.00    +0.001 C 
ATOM     11  C   UNL     1      32.732  -8.258 -22.579  0.00  0.00    +0.137 C 
ATOM     12  C   UNL     1      32.392  -7.626 -21.377  0.00  0.00    +0.199 C 
ATOM     13  C   UNL     1      32.442  -6.234 -21.352  0.00  0.00    +0.187 C 
ATOM     14  C   UNL     1      33.101  -6.186 -23.507  0.00  0.00    +0.207 C 
ATOM     15  H   UNL     1      33.714  -5.909 -25.482  0.00  0.00    +0.156 HD
ATOM     16  H   UNL     1      33.507  -4.459 -24.606  0.00  0.00    +0.156 HD
ATOM     17  N   UNL     1      32.107  -5.547 -20.159  0.00  0.00    -0.334 N 
ATOM     18  H   UNL     1      32.140  -4.563 -20.132  0.00  0.00    +0.144 HD
ATOM     19  H   UNL     1      31.842  -6.053 -19.357  0.00  0.00    +0.144 HD
ENDBRANCH   1   8
BRANCH   1  20
ATOM     20  C   UNL     1      33.525 -12.319 -22.642  0.00  0.00    +0.096 C 
BRANCH  20  22
ATOM     21  O   UNL     1      33.678 -14.648 -24.312  0.00  0.00    -0.270 OA
ATOM     22  N   UNL     1      34.054 -13.607 -22.274  0.00  0.00    -0.300 N 
ATOM     23  C   UNL     1      34.086 -14.681 -23.154  0.00  0.00    +0.246 C 
ATOM     24  H   UNL     1      34.406 -13.731 -21.363  0.00  0.00    +0.150 HD
BRANCH  23  25
ATOM     25  C   UNL     1      34.638 -15.950 -22.614  0.00  0.00    +0.054 C 
ATOM     26  C   UNL     1      34.848 -17.036 -23.462  0.00  0.00    +0.008 C 
ATOM     27  C   UNL     1      34.945 -16.053 -21.256  0.00  0.00    +0.008 C 
ATOM     28  C   UNL     1      35.365 -18.227 -22.953  0.00  0.00    +0.038 C 
ATOM     29  C   UNL     1      35.462 -17.245 -20.748  0.00  0.00    +0.038 C 
ATOM     30  C   UNL     1      35.672 -18.332 -21.596  0.00  0.00    +0.145 C 
BRANCH  30  31
ATOM     31  O   UNL     1      36.174 -19.495 -21.099  0.00  0.00    -0.453 OA
BRANCH  31  32
ATOM     32  C   UNL     1      35.333 -20.285 -20.334  0.00  0.00    +0.145 C 
ATOM     33  C   UNL     1      35.869 -21.230 -19.459  0.00  0.00    +0.037 C 
ATOM     34  C   UNL     1      33.949 -20.137 -20.439  0.00  0.00    +0.037 C 
ATOM     35  C   UNL     1      35.022 -22.027 -18.689  0.00  0.00    +0.003 C 
ATOM     36  C   UNL     1      33.103 -20.934 -19.669  0.00  0.00    +0.003 C 
ATOM     37  C   UNL     1      33.639 -21.879 -18.794  0.00  0.00    +0.000 C 
ENDBRANCH  31  32
ENDBRANCH  30  31
ENDBRANCH  23  25
ENDBRANCH  20  22
ENDBRANCH   1  20
TORSDOF 6
ENDMDL
MODEL 8
REMARK VINA RESULT:     -10.8      2.211      4.872
REMARK  Name = 25023705
REMARK  6 active torsions:
REMARK  status: ('A' for Active; 'I' for Inactive)
REMARK    1  A    between atoms: C_1  and  C_8
REMARK    2  A    between atoms: C_1  and  C_20
REMARK    3  A    between atoms: C_20  and  N_22
REMARK    4  A    between atoms: C_23  and  C_25
REMARK    5  A    between atoms: C_30  and  O_31
REMARK    6  A    between atoms: O_31  and  C_32
REMARK                            x       y       z     vdW  Elec       q    Type
REMARK                         _______ _______ _______ _____ _____    ______ ____
ROOT
ATOM      1  C   UNL     1      34.518 -23.645 -14.631  0.00  0.00    +0.066 C 
ATOM      2  C   UNL     1      35.272 -24.377 -13.494  0.00  0.00    +0.009 C 
ATOM      3  C   UNL     1      34.790 -22.133 -14.436  0.00  0.00    +0.009 C 
ENDROOT
BRANCH   1   8
ATOM      4  N   UNL     1      32.201 -23.396 -15.430  0.00  0.00    -0.347 NA
ATOM      5  N   UNL     1      30.067 -23.073 -16.270  0.00  0.00    -0.266 NA
ATOM      6  N   UNL     1      28.175 -24.277 -15.394  0.00  0.00    -0.316 NA
ATOM      7  N   UNL     1      27.912 -22.731 -17.134  0.00  0.00    -0.283 N 
ATOM      8  C   UNL     1      33.027 -24.026 -14.560  0.00  0.00    +0.122 C 
ATOM      9  C   UNL     1      32.611 -24.962 -13.638  0.00  0.00    +0.026 C 
ATOM     10  C   UNL     1      31.262 -25.268 -13.614  0.00  0.00    +0.001 C 
ATOM     11  C   UNL     1      30.893 -23.687 -15.415  0.00  0.00    +0.137 C 
ATOM     12  C   UNL     1      30.392 -24.628 -14.508  0.00  0.00    +0.199 C 
ATOM     13  C   UNL     1      29.022 -24.882 -14.545  0.00  0.00    +0.187 C 
ATOM     14  C   UNL     1      28.758 -23.395 -16.219  0.00  0.00    +0.207 C 
ATOM     15  H   UNL     1      28.287 -22.073 -17.762  0.00  0.00    +0.156 HD
ATOM     16  H   UNL     1      26.946 -22.927 -17.142  0.00  0.00    +0.156 HD
ATOM     17  N   UNL     1      28.465 -25.826 -13.648  0.00  0.00    -0.334 N 
ATOM     18  H   UNL     1      27.498 -26.012 -13.667  0.00  0.00    +0.144 HD
ATOM     19  H   UNL     1      29.044 -26.296 -13.005  0.00  0.00    +0.144 HD
ENDBRANCH   1   8
BRANCH   1  20
ATOM     20  C   UNL     1      35.139 -24.086 -15.987  0.00  0.00    +0.096 C 
BRANCH  20  22
ATOM     21  O   UNL     1      33.761 -23.593 -18.457  0.00  0.00    -0.270 OA
ATOM     22  N   UNL     1      35.375 -22.999 -16.901  0.00  0.00    -0.300 N 
ATOM     23  C   UNL     1      34.655 -22.841 -18.078  0.00  0.00    +0.246 C 
ATOM     24  H   UNL     1      36.075 -22.341 -16.683  0.00  0.00    +0.150 HD
BRANCH  23  25
ATOM     25  C   UNL     1      35.038 -21.683 -18.926  0.00  0.00    +0.054 C 
ATOM     26  C   UNL     1      34.056 -20.956 -19.598  0.00  0.00    +0.008 C 
ATOM     27  C   UNL     1      36.381 -21.325 -19.050  0.00  0.00    +0.008 C 
ATOM     28  C   UNL     1      34.417 -19.869 -20.395  0.00  0.00    +0.038 C 
ATOM     29  C   UNL     1      36.741 -20.238 -19.847  0.00  0.00    +0.038 C 
ATOM     30  C   UNL     1      35.759 -19.511 -20.520  0.00  0.00    +0.145 C 
BRANCH  30  31
ATOM     31  O   UNL     1      36.112 -18.452 -21.299  0.00  0.00    -0.453 OA
BRANCH  31  32
ATOM     32  C   UNL     1      35.368 -18.220 -22.444  0.00  0.00    +0.145 C 
ATOM     33  C   UNL     1      34.824 -19.292 -23.150  0.00  0.00    +0.037 C 
ATOM     34  C   UNL     1      35.166 -16.914 -22.892  0.00  0.00    +0.037 C 
ATOM     35  C   UNL     1      34.076 -19.060 -24.305  0.00  0.00    +0.003 C 
ATOM     36  C   UNL     1      34.419 -16.682 -24.047  0.00  0.00    +0.003 C 
ATOM     37  C   UNL     1      33.874 -17.754 -24.753  0.00  0.00    +0.000 C 
ENDBRANCH  31  32
ENDBRANCH  30  31
ENDBRANCH  23  25
ENDBRANCH  20  22
ENDBRANCH   1  20
TORSDOF 6
ENDMDL
MODEL 9
REMARK VINA RESULT:     -10.7      4.948     10.959
REMARK  Name = 25023705
REMARK  6 active torsions:
REMARK  status: ('A' for Active; 'I' for Inactive)
REMARK    1  A    between atoms: C_1  and  C_8
REMARK    2  A    between atoms: C_1  and  C_20
REMARK    3  A    between atoms: C_20  and  N_22
REMARK    4  A    between atoms: C_23  and  C_25
REMARK    5  A    between atoms: C_30  and  O_31
REMARK    6  A    between atoms: O_31  and  C_32
REMARK                            x       y       z     vdW  Elec       q    Type
REMARK                         _______ _______ _______ _____ _____    ______ ____
ROOT
ATOM      1  C   UNL     1      35.654 -18.256 -21.745  0.00  0.00    +0.066 C 
ATOM      2  C   UNL     1      35.764 -17.882 -20.247  0.00  0.00    +0.009 C 
ATOM      3  C   UNL     1      37.080 -18.644 -22.206  0.00  0.00    +0.009 C 
ENDROOT
BRANCH   1   8
ATOM      4  N   UNL     1      34.649 -16.007 -21.760  0.00  0.00    -0.347 NA
ATOM      5  N   UNL     1      33.716 -13.891 -21.642  0.00  0.00    -0.266 NA
ATOM      6  N   UNL     1      33.017 -12.711 -23.621  0.00  0.00    -0.316 NA
ATOM      7  N   UNL     1      32.771 -11.747 -21.502  0.00  0.00    -0.283 N 
ATOM      8  C   UNL     1      35.055 -17.060 -22.510  0.00  0.00    +0.122 C 
ATOM      9  C   UNL     1      34.960 -17.115 -23.884  0.00  0.00    +0.026 C 
ATOM     10  C   UNL     1      34.414 -16.015 -24.523  0.00  0.00    +0.001 C 
ATOM     11  C   UNL     1      34.120 -14.938 -22.371  0.00  0.00    +0.137 C 
ATOM     12  C   UNL     1      33.989 -14.915 -23.764  0.00  0.00    +0.199 C 
ATOM     13  C   UNL     1      33.430 -13.773 -24.334  0.00  0.00    +0.187 C 
ATOM     14  C   UNL     1      33.188 -12.836 -22.298  0.00  0.00    +0.207 C 
ATOM     15  H   UNL     1      32.872 -11.785 -20.523  0.00  0.00    +0.156 HD
ATOM     16  H   UNL     1      32.378 -10.949 -21.926  0.00  0.00    +0.156 HD
ATOM     17  N   UNL     1      33.276 -13.701 -25.740  0.00  0.00    -0.334 N 
ATOM     18  H   UNL     1      32.882 -12.897 -26.151  0.00  0.00    +0.144 HD
ATOM     19  H   UNL     1      33.563 -14.453 -26.306  0.00  0.00    +0.144 HD
ENDBRANCH   1   8
BRANCH   1  20
ATOM     20  C   UNL     1      34.738 -19.507 -21.866  0.00  0.00    +0.096 C 
BRANCH  20  22
ATOM     21  O   UNL     1      32.407 -20.587 -20.586  0.00  0.00    -0.270 OA
ATOM     22  N   UNL     1      34.710 -20.324 -20.681  0.00  0.00    -0.300 N 
ATOM     23  C   UNL     1      33.527 -20.804 -20.132  0.00  0.00    +0.246 C 
ATOM     24  H   UNL     1      35.561 -20.552 -20.243  0.00  0.00    +0.150 HD
BRANCH  23  25
ATOM     25  C   UNL     1      33.665 -21.611 -18.892  0.00  0.00    +0.054 C 
ATOM     26  C   UNL     1      32.528 -22.051 -18.217  0.00  0.00    +0.008 C 
ATOM     27  C   UNL     1      34.934 -21.926 -18.404  0.00  0.00    +0.008 C 
ATOM     28  C   UNL     1      32.658 -22.808 -17.052  0.00  0.00    +0.038 C 
ATOM     29  C   UNL     1      35.064 -22.684 -17.240  0.00  0.00    +0.038 C 
ATOM     30  C   UNL     1      33.926 -23.124 -16.564  0.00  0.00    +0.145 C 
BRANCH  30  31
ATOM     31  O   UNL     1      34.053 -23.860 -15.427  0.00  0.00    -0.453 OA
BRANCH  31  32
ATOM     32  C   UNL     1      35.330 -24.058 -14.927  0.00  0.00    +0.145 C 
ATOM     33  C   UNL     1      35.883 -25.339 -14.917  0.00  0.00    +0.037 C 
ATOM     34  C   UNL     1      36.061 -22.978 -14.433  0.00  0.00    +0.037 C 
ATOM     35  C   UNL     1      37.168 -25.539 -14.413  0.00  0.00    +0.003 C 
ATOM     36  C   UNL     1      37.346 -23.179 -13.929  0.00  0.00    +0.003 C 
ATOM     37  C   UNL     1      37.899 -24.459 -13.919  0.00  0.00    +0.000 C 
ENDBRANCH  31  32
ENDBRANCH  30  31
ENDBRANCH  23  25
ENDBRANCH  20  22
ENDBRANCH   1  20
TORSDOF 6
ENDMDL
