MODEL 1
REMARK VINA RESULT:     -12.6      0.000      0.000
REMARK  Name = 21081761
REMARK  5 active torsions:
REMARK  status: ('A' for Active; 'I' for Inactive)
REMARK    1  A    between atoms: N_2  and  C_6
REMARK    2  A    between atoms: C_3  and  C_25
REMARK    3  A    between atoms: C_7  and  O_12
REMARK    4  A    between atoms: O_12  and  C_16
REMARK    5  A    between atoms: N_24  and  C_31
REMARK                            x       y       z     vdW  Elec       q    Type
REMARK                         _______ _______ _______ _____ _____    ______ ____
ROOT
ATOM      1  O   UNL     1      34.897 -13.986 -20.851  0.00  0.00    -0.270 OA
ATOM      2  N   UNL     1      33.459 -13.940 -22.721  0.00  0.00    -0.280 N 
ATOM      3  C   UNL     1      34.381 -14.502 -21.835  0.00  0.00    +0.254 C 
ATOM      4  H   UNL     1      33.160 -14.519 -23.459  0.00  0.00    +0.155 HD
ENDROOT
BRANCH   2   6
ATOM      5  F   UNL     1      30.276 -10.829 -20.973  0.00  0.00    -0.201 F 
ATOM      6  C   UNL     1      32.911 -12.658 -22.688  0.00  0.00    +0.053 C 
ATOM      7  C   UNL     1      31.813 -10.094 -22.624  0.00  0.00    +0.173 C 
ATOM      8  C   UNL     1      31.847 -12.375 -21.831  0.00  0.00    +0.047 C 
ATOM      9  C   UNL     1      33.427 -11.658 -23.512  0.00  0.00    +0.018 C 
ATOM     10  C   UNL     1      31.297 -11.094 -21.799  0.00  0.00    +0.176 C 
ATOM     11  C   UNL     1      32.877 -10.376 -23.481  0.00  0.00    +0.041 C 
BRANCH   7  12
ATOM     12  O   UNL     1      31.269  -8.824 -22.594  0.00  0.00    -0.451 OA
BRANCH  12  16
ATOM     13  N   UNL     1      32.077  -4.441 -21.248  0.00  0.00    -0.297 N 
ATOM     14  N   UNL     1      32.832  -6.148 -19.726  0.00  0.00    -0.229 NA
ATOM     15  C   UNL     1      31.704  -6.555 -21.865  0.00  0.00    +0.067 C 
ATOM     16  C   UNL     1      31.769  -7.945 -21.676  0.00  0.00    +0.150 C 
ATOM     17  C   UNL     1      32.244  -5.747 -20.869  0.00  0.00    +0.135 C 
ATOM     18  C   UNL     1      31.201  -5.687 -22.871  0.00  0.00    +0.022 C 
ATOM     19  C   UNL     1      31.445  -4.393 -22.464  0.00  0.00    +0.063 C 
ATOM     20  C   UNL     1      32.368  -8.415 -20.508  0.00  0.00    +0.058 C 
ATOM     21  C   UNL     1      32.867  -7.495 -19.596  0.00  0.00    +0.103 C 
ATOM     22  H   UNL     1      32.367  -3.656 -20.729  0.00  0.00    +0.154 HD
ENDBRANCH  12  16
ENDBRANCH   7  12
ENDBRANCH   2   6
BRANCH   3  25
ATOM     23  O   UNL     1      35.101 -16.574 -19.982  0.00  0.00    -0.269 OA
ATOM     24  N   UNL     1      35.322 -18.234 -21.652  0.00  0.00    -0.233 N 
ATOM     25  C   UNL     1      34.729 -15.883 -22.189  0.00  0.00    +0.108 C 
ATOM     26  C   UNL     1      35.052 -16.929 -21.160  0.00  0.00    +0.261 C 
ATOM     27  C   UNL     1      35.350 -18.464 -23.028  0.00  0.00    +0.072 C 
ATOM     28  C   UNL     1      34.768 -16.182 -23.492  0.00  0.00    +0.010 C 
ATOM     29  C   UNL     1      35.096 -17.508 -23.926  0.00  0.00    +0.017 C 
BRANCH  24  31
ATOM     30  F   UNL     1      36.356 -22.388 -18.073  0.00  0.00    -0.204 F 
ATOM     31  C   UNL     1      35.590 -19.314 -20.722  0.00  0.00    +0.059 C 
ATOM     32  C   UNL     1      36.880 -19.500 -20.223  0.00  0.00    +0.018 C 
ATOM     33  C   UNL     1      34.559 -20.166 -20.326  0.00  0.00    +0.018 C 
ATOM     34  C   UNL     1      37.138 -20.538 -19.328  0.00  0.00    +0.031 C 
ATOM     35  C   UNL     1      34.818 -21.205 -19.431  0.00  0.00    +0.031 C 
ATOM     36  C   UNL     1      36.107 -21.390 -18.932  0.00  0.00    +0.140 C 
ENDBRANCH  24  31
ENDBRANCH   3  25
TORSDOF 5
ENDMDL
MODEL 2
REMARK VINA RESULT:     -12.6      2.863     11.280
REMARK  Name = 21081761
REMARK  5 active torsions:
REMARK  status: ('A' for Active; 'I' for Inactive)
REMARK    1  A    between atoms: N_2  and  C_6
REMARK    2  A    between atoms: C_3  and  C_25
REMARK    3  A    between atoms: C_7  and  O_12
REMARK    4  A    between atoms: O_12  and  C_16
REMARK    5  A    between atoms: N_24  and  C_31
REMARK                            x       y       z     vdW  Elec       q    Type
REMARK                         _______ _______ _______ _____ _____    ______ ____
ROOT
ATOM      1  O   UNL     1      33.061 -15.798 -24.857  0.00  0.00    -0.270 OA
ATOM      2  N   UNL     1      34.567 -15.133 -23.167  0.00  0.00    -0.280 N 
ATOM      3  C   UNL     1      33.696 -14.950 -24.244  0.00  0.00    +0.254 C 
ATOM      4  H   UNL     1      34.987 -14.319 -22.807  0.00  0.00    +0.155 HD
ENDROOT
BRANCH   2   6
ATOM      5  F   UNL     1      35.369 -19.843 -23.362  0.00  0.00    -0.201 F 
ATOM      6  C   UNL     1      34.913 -16.330 -22.539  0.00  0.00    +0.053 C 
ATOM      7  C   UNL     1      35.604 -18.723 -21.284  0.00  0.00    +0.173 C 
ATOM      8  C   UNL     1      34.970 -17.513 -23.276  0.00  0.00    +0.047 C 
ATOM      9  C   UNL     1      35.202 -16.343 -21.175  0.00  0.00    +0.018 C 
ATOM     10  C   UNL     1      35.315 -18.711 -22.648  0.00  0.00    +0.176 C 
ATOM     11  C   UNL     1      35.547 -17.540 -20.547  0.00  0.00    +0.041 C 
BRANCH   7  12
ATOM     12  O   UNL     1      35.944 -19.909 -20.661  0.00  0.00    -0.451 OA
BRANCH  12  16
ATOM     13  N   UNL     1      34.614 -22.700 -17.180  0.00  0.00    -0.297 N 
ATOM     14  N   UNL     1      32.853 -21.967 -18.651  0.00  0.00    -0.229 NA
ATOM     15  C   UNL     1      35.220 -21.360 -18.860  0.00  0.00    +0.067 C 
ATOM     16  C   UNL     1      34.956 -20.581 -19.999  0.00  0.00    +0.150 C 
ATOM     17  C   UNL     1      34.141 -22.003 -18.261  0.00  0.00    +0.135 C 
ATOM     18  C   UNL     1      36.372 -21.693 -18.099  0.00  0.00    +0.022 C 
ATOM     19  C   UNL     1      35.969 -22.518 -17.073  0.00  0.00    +0.063 C 
ATOM     20  C   UNL     1      33.637 -20.508 -20.446  0.00  0.00    +0.058 C 
ATOM     21  C   UNL     1      32.657 -21.204 -19.751  0.00  0.00    +0.103 C 
ATOM     22  H   UNL     1      34.065 -23.247 -16.572  0.00  0.00    +0.154 HD
ENDBRANCH  12  16
ENDBRANCH   7  12
ENDBRANCH   2   6
BRANCH   3  25
ATOM     23  O   UNL     1      33.305 -12.742 -22.450  0.00  0.00    -0.269 OA
ATOM     24  N   UNL     1      33.365 -11.112 -24.161  0.00  0.00    -0.233 N 
ATOM     25  C   UNL     1      33.577 -13.541 -24.635  0.00  0.00    +0.108 C 
ATOM     26  C   UNL     1      33.419 -12.430 -23.635  0.00  0.00    +0.261 C 
ATOM     27  C   UNL     1      33.384 -10.916 -25.543  0.00  0.00    +0.072 C 
ATOM     28  C   UNL     1      33.596 -13.272 -25.945  0.00  0.00    +0.010 C 
ATOM     29  C   UNL     1      33.487 -11.923 -26.415  0.00  0.00    +0.017 C 
BRANCH  24  31
ATOM     30  F   UNL     1      32.986  -6.754 -20.698  0.00  0.00    -0.204 F 
ATOM     31  C   UNL     1      33.267  -9.979 -23.261  0.00  0.00    +0.059 C 
ATOM     32  C   UNL     1      34.188  -8.935 -23.351  0.00  0.00    +0.018 C 
ATOM     33  C   UNL     1      32.251  -9.934 -22.306  0.00  0.00    +0.018 C 
ATOM     34  C   UNL     1      34.092  -7.845 -22.485  0.00  0.00    +0.031 C 
ATOM     35  C   UNL     1      32.156  -8.844 -21.440  0.00  0.00    +0.031 C 
ATOM     36  C   UNL     1      33.076  -7.800 -21.530  0.00  0.00    +0.140 C 
ENDBRANCH  24  31
ENDBRANCH   3  25
TORSDOF 5
ENDMDL
MODEL 3
REMARK VINA RESULT:     -12.5      2.514     11.502
REMARK  Name = 21081761
REMARK  5 active torsions:
REMARK  status: ('A' for Active; 'I' for Inactive)
REMARK    1  A    between atoms: N_2  and  C_6
REMARK    2  A    between atoms: C_3  and  C_25
REMARK    3  A    between atoms: C_7  and  O_12
REMARK    4  A    between atoms: O_12  and  C_16
REMARK    5  A    between atoms: N_24  and  C_31
REMARK                            x       y       z     vdW  Elec       q    Type
REMARK                         _______ _______ _______ _____ _____    ______ ____
ROOT
ATOM      1  O   UNL     1      32.543 -13.699 -21.486  0.00  0.00    -0.270 OA
ATOM      2  N   UNL     1      34.375 -14.208 -22.882  0.00  0.00    -0.280 N 
ATOM      3  C   UNL     1      33.365 -13.407 -22.346  0.00  0.00    +0.254 C 
ATOM      4  H   UNL     1      34.940 -13.790 -23.571  0.00  0.00    +0.155 HD
ENDROOT
BRANCH   2   6
ATOM      5  F   UNL     1      34.839 -18.794 -24.158  0.00  0.00    -0.201 F 
ATOM      6  C   UNL     1      34.682 -15.530 -22.559  0.00  0.00    +0.053 C 
ATOM      7  C   UNL     1      35.294 -18.174 -21.913  0.00  0.00    +0.173 C 
ATOM      8  C   UNL     1      34.607 -16.523 -23.537  0.00  0.00    +0.047 C 
ATOM      9  C   UNL     1      35.065 -15.860 -21.259  0.00  0.00    +0.018 C 
ATOM     10  C   UNL     1      34.913 -17.846 -23.214  0.00  0.00    +0.176 C 
ATOM     11  C   UNL     1      35.370 -17.182 -20.936  0.00  0.00    +0.041 C 
BRANCH   7  12
ATOM     12  O   UNL     1      35.596 -19.484 -21.592  0.00  0.00    -0.451 OA
BRANCH  12  16
ATOM     13  N   UNL     1      34.927 -22.181 -17.856  0.00  0.00    -0.297 N 
ATOM     14  N   UNL     1      32.927 -21.490 -19.007  0.00  0.00    -0.229 NA
ATOM     15  C   UNL     1      35.215 -20.886 -19.653  0.00  0.00    +0.067 C 
ATOM     16  C   UNL     1      34.746 -20.139 -20.746  0.00  0.00    +0.150 C 
ATOM     17  C   UNL     1      34.265 -21.514 -18.853  0.00  0.00    +0.135 C 
ATOM     18  C   UNL     1      36.487 -21.198 -19.103  0.00  0.00    +0.022 C 
ATOM     19  C   UNL     1      36.279 -21.995 -17.999  0.00  0.00    +0.063 C 
ATOM     20  C   UNL     1      33.369 -20.080 -20.951  0.00  0.00    +0.058 C 
ATOM     21  C   UNL     1      32.533 -20.757 -20.074  0.00  0.00    +0.103 C 
ATOM     22  H   UNL     1      34.500 -22.712 -17.146  0.00  0.00    +0.154 HD
ENDBRANCH  12  16
ENDBRANCH   7  12
ENDBRANCH   2   6
BRANCH   3  25
ATOM     23  O   UNL     1      32.110 -11.096 -21.192  0.00  0.00    -0.269 OA
ATOM     24  N   UNL     1      32.811  -9.637 -22.916  0.00  0.00    -0.233 N 
ATOM     25  C   UNL     1      33.345 -12.062 -22.932  0.00  0.00    +0.108 C 
ATOM     26  C   UNL     1      32.707 -10.886 -22.248  0.00  0.00    +0.261 C 
ATOM     27  C   UNL     1      33.414  -9.571 -24.173  0.00  0.00    +0.072 C 
ATOM     28  C   UNL     1      33.914 -11.918 -24.135  0.00  0.00    +0.010 C 
ATOM     29  C   UNL     1      33.941 -10.639 -24.779  0.00  0.00    +0.017 C 
BRANCH  24  31
ATOM     30  F   UNL     1      30.723  -5.040 -20.543  0.00  0.00    -0.204 F 
ATOM     31  C   UNL     1      32.268  -8.442 -22.300  0.00  0.00    +0.059 C 
ATOM     32  C   UNL     1      32.677  -8.071 -21.019  0.00  0.00    +0.018 C 
ATOM     33  C   UNL     1      31.336  -7.664 -22.987  0.00  0.00    +0.018 C 
ATOM     34  C   UNL     1      32.156  -6.922 -20.426  0.00  0.00    +0.031 C 
ATOM     35  C   UNL     1      30.814  -6.514 -22.394  0.00  0.00    +0.031 C 
ATOM     36  C   UNL     1      31.224  -6.143 -21.114  0.00  0.00    +0.140 C 
ENDBRANCH  24  31
ENDBRANCH   3  25
TORSDOF 5
ENDMDL
MODEL 4
REMARK VINA RESULT:     -12.3      1.138      1.421
REMARK  Name = 21081761
REMARK  5 active torsions:
REMARK  status: ('A' for Active; 'I' for Inactive)
REMARK    1  A    between atoms: N_2  and  C_6
REMARK    2  A    between atoms: C_3  and  C_25
REMARK    3  A    between atoms: C_7  and  O_12
REMARK    4  A    between atoms: O_12  and  C_16
REMARK    5  A    between atoms: N_24  and  C_31
REMARK                            x       y       z     vdW  Elec       q    Type
REMARK                         _______ _______ _______ _____ _____    ______ ____
ROOT
ATOM      1  O   UNL     1      34.961 -14.076 -21.115  0.00  0.00    -0.270 OA
ATOM      2  N   UNL     1      33.790 -13.890 -23.154  0.00  0.00    -0.280 N 
ATOM      3  C   UNL     1      34.507 -14.545 -22.151  0.00  0.00    +0.254 C 
ATOM      4  H   UNL     1      33.509 -14.444 -23.919  0.00  0.00    +0.155 HD
ENDROOT
BRANCH   2   6
ATOM      5  F   UNL     1      34.477  -9.457 -24.812  0.00  0.00    -0.201 F 
ATOM      6  C   UNL     1      33.422 -12.545 -23.206  0.00  0.00    +0.053 C 
ATOM      7  C   UNL     1      32.688  -9.856 -23.307  0.00  0.00    +0.173 C 
ATOM      8  C   UNL     1      34.146 -11.653 -23.998  0.00  0.00    +0.047 C 
ATOM      9  C   UNL     1      32.330 -12.092 -22.465  0.00  0.00    +0.018 C 
ATOM     10  C   UNL     1      33.779 -10.308 -24.048  0.00  0.00    +0.176 C 
ATOM     11  C   UNL     1      31.964 -10.747 -22.514  0.00  0.00    +0.041 C 
BRANCH   7  12
ATOM     12  O   UNL     1      32.324  -8.523 -23.355  0.00  0.00    -0.451 OA
BRANCH  12  16
ATOM     13  N   UNL     1      31.472  -4.589 -21.015  0.00  0.00    -0.297 N 
ATOM     14  N   UNL     1      32.289  -6.427 -19.689  0.00  0.00    -0.229 NA
ATOM     15  C   UNL     1      31.891  -6.491 -22.108  0.00  0.00    +0.067 C 
ATOM     16  C   UNL     1      32.307  -7.831 -22.177  0.00  0.00    +0.150 C 
ATOM     17  C   UNL     1      31.911  -5.878 -20.859  0.00  0.00    +0.135 C 
ATOM     18  C   UNL     1      31.422  -5.522 -23.035  0.00  0.00    +0.022 C 
ATOM     19  C   UNL     1      31.173  -4.362 -22.334  0.00  0.00    +0.063 C 
ATOM     20  C   UNL     1      32.709  -8.449 -20.994  0.00  0.00    +0.058 C 
ATOM     21  C   UNL     1      32.680  -7.717 -19.815  0.00  0.00    +0.103 C 
ATOM     22  H   UNL     1      31.385  -3.927 -20.292  0.00  0.00    +0.154 HD
ENDBRANCH  12  16
ENDBRANCH   7  12
ENDBRANCH   2   6
BRANCH   3  25
ATOM     23  O   UNL     1      35.166 -16.572 -20.227  0.00  0.00    -0.269 OA
ATOM     24  N   UNL     1      35.120 -18.333 -21.804  0.00  0.00    -0.233 N 
ATOM     25  C   UNL     1      34.705 -15.970 -22.443  0.00  0.00    +0.108 C 
ATOM     26  C   UNL     1      35.003 -16.984 -21.376  0.00  0.00    +0.261 C 
ATOM     27  C   UNL     1      35.032 -18.639 -23.163  0.00  0.00    +0.072 C 
ATOM     28  C   UNL     1      34.626 -16.341 -23.726  0.00  0.00    +0.010 C 
ATOM     29  C   UNL     1      34.804 -17.713 -24.100  0.00  0.00    +0.017 C 
BRANCH  24  31
ATOM     30  F   UNL     1      36.024 -22.366 -18.056  0.00  0.00    -0.204 F 
ATOM     31  C   UNL     1      35.355 -19.382 -20.830  0.00  0.00    +0.059 C 
ATOM     32  C   UNL     1      36.648 -19.624 -20.365  0.00  0.00    +0.018 C 
ATOM     33  C   UNL     1      34.288 -20.147 -20.358  0.00  0.00    +0.018 C 
ATOM     34  C   UNL     1      36.874 -20.632 -19.427  0.00  0.00    +0.031 C 
ATOM     35  C   UNL     1      34.514 -21.155 -19.421  0.00  0.00    +0.031 C 
ATOM     36  C   UNL     1      35.807 -21.397 -18.955  0.00  0.00    +0.140 C 
ENDBRANCH  24  31
ENDBRANCH   3  25
TORSDOF 5
ENDMDL
MODEL 5
REMARK VINA RESULT:     -12.3      5.692      9.013
REMARK  Name = 21081761
REMARK  5 active torsions:
REMARK  status: ('A' for Active; 'I' for Inactive)
REMARK    1  A    between atoms: N_2  and  C_6
REMARK    2  A    between atoms: C_3  and  C_25
REMARK    3  A    between atoms: C_7  and  O_12
REMARK    4  A    between atoms: O_12  and  C_16
REMARK    5  A    between atoms: N_24  and  C_31
REMARK                            x       y       z     vdW  Elec       q    Type
REMARK                         _______ _______ _______ _____ _____    ______ ____
ROOT
ATOM      1  O   UNL     1      32.607 -22.360 -19.510  0.00  0.00    -0.270 OA
ATOM      2  N   UNL     1      34.494 -21.143 -18.786  0.00  0.00    -0.280 N 
ATOM      3  C   UNL     1      33.446 -22.059 -18.670  0.00  0.00    +0.254 C 
ATOM      4  H   UNL     1      35.067 -21.038 -17.993  0.00  0.00    +0.155 HD
ENDROOT
BRANCH   2   6
ATOM      5  F   UNL     1      37.698 -18.583 -21.245  0.00  0.00    -0.201 F 
ATOM      6  C   UNL     1      34.827 -20.357 -19.890  0.00  0.00    +0.053 C 
ATOM      7  C   UNL     1      35.492 -18.785 -22.096  0.00  0.00    +0.173 C 
ATOM      8  C   UNL     1      36.120 -19.851 -20.022  0.00  0.00    +0.047 C 
ATOM      9  C   UNL     1      33.866 -20.078 -20.862  0.00  0.00    +0.018 C 
ATOM     10  C   UNL     1      36.453 -19.064 -21.124  0.00  0.00    +0.176 C 
ATOM     11  C   UNL     1      34.199 -19.290 -21.964  0.00  0.00    +0.041 C 
BRANCH   7  12
ATOM     12  O   UNL     1      35.821 -18.004 -23.188  0.00  0.00    -0.451 OA
BRANCH  12  16
ATOM     13  N   UNL     1      33.857 -14.103 -21.574  0.00  0.00    -0.297 N 
ATOM     14  N   UNL     1      33.514 -14.543 -23.917  0.00  0.00    -0.229 NA
ATOM     15  C   UNL     1      34.787 -15.967 -22.379  0.00  0.00    +0.067 C 
ATOM     16  C   UNL     1      35.076 -16.880 -23.407  0.00  0.00    +0.150 C 
ATOM     17  C   UNL     1      34.020 -14.854 -22.709  0.00  0.00    +0.135 C 
ATOM     18  C   UNL     1      35.085 -15.866 -20.994  0.00  0.00    +0.022 C 
ATOM     19  C   UNL     1      34.501 -14.710 -20.526  0.00  0.00    +0.063 C 
ATOM     20  C   UNL     1      34.577 -16.606 -24.680  0.00  0.00    +0.058 C 
ATOM     21  C   UNL     1      33.823 -15.455 -24.868  0.00  0.00    +0.103 C 
ATOM     22  H   UNL     1      33.356 -13.258 -21.519  0.00  0.00    +0.154 HD
ENDBRANCH  12  16
ENDBRANCH   7  12
ENDBRANCH   2   6
BRANCH   3  25
ATOM     23  O   UNL     1      35.731 -22.925 -17.163  0.00  0.00    -0.269 OA
ATOM     24  N   UNL     1      34.454 -23.660 -15.314  0.00  0.00    -0.233 N 
ATOM     25  C   UNL     1      33.408 -22.703 -17.352  0.00  0.00    +0.108 C 
ATOM     26  C   UNL     1      34.649 -23.089 -16.600  0.00  0.00    +0.261 C 
ATOM     27  C   UNL     1      33.159 -23.900 -14.851  0.00  0.00    +0.072 C 
ATOM     28  C   UNL     1      32.199 -22.957 -16.838  0.00  0.00    +0.010 C 
ATOM     29  C   UNL     1      32.069 -23.582 -15.555  0.00  0.00    +0.017 C 
BRANCH  24  31
ATOM     30  F   UNL     1      38.866 -25.015 -12.180  0.00  0.00    -0.204 F 
ATOM     31  C   UNL     1      35.601 -24.012 -14.499  0.00  0.00    +0.059 C 
ATOM     32  C   UNL     1      36.170 -23.064 -13.649  0.00  0.00    +0.018 C 
ATOM     33  C   UNL     1      36.135 -25.300 -14.566  0.00  0.00    +0.018 C 
ATOM     34  C   UNL     1      37.272 -23.403 -12.865  0.00  0.00    +0.031 C 
ATOM     35  C   UNL     1      37.238 -25.639 -13.782  0.00  0.00    +0.031 C 
ATOM     36  C   UNL     1      37.807 -24.690 -12.932  0.00  0.00    +0.140 C 
ENDBRANCH  24  31
ENDBRANCH   3  25
TORSDOF 5
ENDMDL
MODEL 6
REMARK VINA RESULT:     -12.1      1.574      1.658
REMARK  Name = 21081761
REMARK  5 active torsions:
REMARK  status: ('A' for Active; 'I' for Inactive)
REMARK    1  A    between atoms: N_2  and  C_6
REMARK    2  A    between atoms: C_3  and  C_25
REMARK    3  A    between atoms: C_7  and  O_12
REMARK    4  A    between atoms: O_12  and  C_16
REMARK    5  A    between atoms: N_24  and  C_31
REMARK                            x       y       z     vdW  Elec       q    Type
REMARK                         _______ _______ _______ _____ _____    ______ ____
ROOT
ATOM      1  O   UNL     1      35.240 -14.130 -21.276  0.00  0.00    -0.270 OA
ATOM      2  N   UNL     1      33.562 -14.057 -22.933  0.00  0.00    -0.280 N 
ATOM      3  C   UNL     1      34.544 -14.652 -22.138  0.00  0.00    +0.254 C 
ATOM      4  H   UNL     1      33.108 -14.649 -23.576  0.00  0.00    +0.155 HD
ENDROOT
BRANCH   2   6
ATOM      5  F   UNL     1      31.059 -10.495 -20.955  0.00  0.00    -0.201 F 
ATOM      6  C   UNL     1      33.147 -12.725 -22.929  0.00  0.00    +0.053 C 
ATOM      7  C   UNL     1      32.314 -10.063 -22.921  0.00  0.00    +0.173 C 
ATOM      8  C   UNL     1      32.294 -12.263 -21.926  0.00  0.00    +0.047 C 
ATOM      9  C   UNL     1      33.584 -11.855 -23.927  0.00  0.00    +0.018 C 
ATOM     10  C   UNL     1      31.877 -10.932 -21.922  0.00  0.00    +0.176 C 
ATOM     11  C   UNL     1      33.167 -10.524 -23.924  0.00  0.00    +0.041 C 
BRANCH   7  12
ATOM     12  O   UNL     1      31.901  -8.744 -22.918  0.00  0.00    -0.451 OA
BRANCH  12  16
ATOM     13  N   UNL     1      32.962  -4.549 -24.635  0.00  0.00    -0.297 N 
ATOM     14  N   UNL     1      34.825  -5.827 -23.799  0.00  0.00    -0.229 NA
ATOM     15  C   UNL     1      32.486  -6.566 -23.805  0.00  0.00    +0.067 C 
ATOM     16  C   UNL     1      32.835  -7.789 -23.209  0.00  0.00    +0.150 C 
ATOM     17  C   UNL     1      33.514  -5.663 -24.060  0.00  0.00    +0.135 C 
ATOM     18  C   UNL     1      31.283  -5.956 -24.250  0.00  0.00    +0.022 C 
ATOM     19  C   UNL     1      31.607  -4.716 -24.756  0.00  0.00    +0.063 C 
ATOM     20  C   UNL     1      34.180  -8.012 -22.918  0.00  0.00    +0.058 C 
ATOM     21  C   UNL     1      35.102  -7.022 -23.228  0.00  0.00    +0.103 C 
ATOM     22  H   UNL     1      33.462  -3.749 -24.920  0.00  0.00    +0.154 HD
ENDBRANCH  12  16
ENDBRANCH   7  12
ENDBRANCH   2   6
BRANCH   3  25
ATOM     23  O   UNL     1      35.146 -16.689 -20.205  0.00  0.00    -0.269 OA
ATOM     24  N   UNL     1      35.062 -18.453 -21.778  0.00  0.00    -0.233 N 
ATOM     25  C   UNL     1      34.707 -16.082 -22.424  0.00  0.00    +0.108 C 
ATOM     26  C   UNL     1      34.977 -17.100 -21.353  0.00  0.00    +0.261 C 
ATOM     27  C   UNL     1      34.971 -18.760 -23.136  0.00  0.00    +0.072 C 
ATOM     28  C   UNL     1      34.623 -16.455 -23.706  0.00  0.00    +0.010 C 
ATOM     29  C   UNL     1      34.768 -17.832 -24.076  0.00  0.00    +0.017 C 
BRANCH  24  31
ATOM     30  F   UNL     1      35.854 -22.496 -18.015  0.00  0.00    -0.204 F 
ATOM     31  C   UNL     1      35.268 -19.504 -20.800  0.00  0.00    +0.059 C 
ATOM     32  C   UNL     1      36.557 -19.803 -20.359  0.00  0.00    +0.018 C 
ATOM     33  C   UNL     1      34.176 -20.215 -20.300  0.00  0.00    +0.018 C 
ATOM     34  C   UNL     1      36.755 -20.813 -19.418  0.00  0.00    +0.031 C 
ATOM     35  C   UNL     1      34.374 -21.226 -19.359  0.00  0.00    +0.031 C 
ATOM     36  C   UNL     1      35.663 -21.525 -18.918  0.00  0.00    +0.140 C 
ENDBRANCH  24  31
ENDBRANCH   3  25
TORSDOF 5
ENDMDL
MODEL 7
REMARK VINA RESULT:     -12.1      3.671     12.199
REMARK  Name = 21081761
REMARK  5 active torsions:
REMARK  status: ('A' for Active; 'I' for Inactive)
REMARK    1  A    between atoms: N_2  and  C_6
REMARK    2  A    between atoms: C_3  and  C_25
REMARK    3  A    between atoms: C_7  and  O_12
REMARK    4  A    between atoms: O_12  and  C_16
REMARK    5  A    between atoms: N_24  and  C_31
REMARK                            x       y       z     vdW  Elec       q    Type
REMARK                         _______ _______ _______ _____ _____    ______ ____
ROOT
ATOM      1  O   UNL     1      36.122 -17.558 -20.308  0.00  0.00    -0.270 OA
ATOM      2  N   UNL     1      34.446 -19.002 -21.128  0.00  0.00    -0.280 N 
ATOM      3  C   UNL     1      35.236 -17.851 -21.101  0.00  0.00    +0.254 C 
ATOM      4  H   UNL     1      33.780 -19.054 -21.851  0.00  0.00    +0.155 HD
ENDROOT
BRANCH   2   6
ATOM      5  F   UNL     1      36.927 -22.064 -18.418  0.00  0.00    -0.201 F 
ATOM      6  C   UNL     1      34.485 -20.088 -20.253  0.00  0.00    +0.053 C 
ATOM      7  C   UNL     1      34.564 -22.261 -18.505  0.00  0.00    +0.173 C 
ATOM      8  C   UNL     1      35.709 -20.545 -19.761  0.00  0.00    +0.047 C 
ATOM      9  C   UNL     1      33.301 -20.718 -19.869  0.00  0.00    +0.018 C 
ATOM     10  C   UNL     1      35.748 -21.632 -18.888  0.00  0.00    +0.176 C 
ATOM     11  C   UNL     1      33.341 -21.805 -18.996  0.00  0.00    +0.041 C 
BRANCH   7  12
ATOM     12  O   UNL     1      34.603 -23.339 -17.641  0.00  0.00    -0.451 OA
BRANCH  12  16
ATOM     13  N   UNL     1      33.948 -23.634 -13.041  0.00  0.00    -0.297 N 
ATOM     14  N   UNL     1      31.961 -23.257 -14.347  0.00  0.00    -0.229 NA
ATOM     15  C   UNL     1      34.229 -23.488 -15.251  0.00  0.00    +0.067 C 
ATOM     16  C   UNL     1      33.761 -23.315 -16.564  0.00  0.00    +0.150 C 
ATOM     17  C   UNL     1      33.288 -23.446 -14.227  0.00  0.00    +0.135 C 
ATOM     18  C   UNL     1      35.492 -23.710 -14.641  0.00  0.00    +0.022 C 
ATOM     19  C   UNL     1      35.289 -23.796 -13.281  0.00  0.00    +0.063 C 
ATOM     20  C   UNL     1      32.394 -23.114 -16.747  0.00  0.00    +0.058 C 
ATOM     21  C   UNL     1      31.566 -23.097 -15.632  0.00  0.00    +0.103 C 
ATOM     22  H   UNL     1      33.526 -23.650 -12.151  0.00  0.00    +0.154 HD
ENDBRANCH  12  16
ENDBRANCH   7  12
ENDBRANCH   2   6
BRANCH   3  25
ATOM     23  O   UNL     1      34.075 -15.244 -20.783  0.00  0.00    -0.269 OA
ATOM     24  N   UNL     1      34.123 -14.747 -23.095  0.00  0.00    -0.233 N 
ATOM     25  C   UNL     1      34.908 -16.922 -22.189  0.00  0.00    +0.108 C 
ATOM     26  C   UNL     1      34.344 -15.551 -21.945  0.00  0.00    +0.261 C 
ATOM     27  C   UNL     1      34.361 -15.274 -24.365  0.00  0.00    +0.072 C 
ATOM     28  C   UNL     1      35.119 -17.354 -23.438  0.00  0.00    +0.010 C 
ATOM     29  C   UNL     1      34.828 -16.511 -24.559  0.00  0.00    +0.017 C 
BRANCH  24  31
ATOM     30  F   UNL     1      32.224  -9.533 -22.513  0.00  0.00    -0.204 F 
ATOM     31  C   UNL     1      33.629 -13.392 -22.943  0.00  0.00    +0.059 C 
ATOM     32  C   UNL     1      34.121 -12.375 -23.763  0.00  0.00    +0.018 C 
ATOM     33  C   UNL     1      32.663 -13.105 -21.979  0.00  0.00    +0.018 C 
ATOM     34  C   UNL     1      33.645 -11.072 -23.618  0.00  0.00    +0.031 C 
ATOM     35  C   UNL     1      32.187 -11.802 -21.833  0.00  0.00    +0.031 C 
ATOM     36  C   UNL     1      32.679 -10.785 -22.653  0.00  0.00    +0.140 C 
ENDBRANCH  24  31
ENDBRANCH   3  25
TORSDOF 5
ENDMDL
MODEL 8
REMARK VINA RESULT:     -12.0      2.877     11.427
REMARK  Name = 21081761
REMARK  5 active torsions:
REMARK  status: ('A' for Active; 'I' for Inactive)
REMARK    1  A    between atoms: N_2  and  C_6
REMARK    2  A    between atoms: C_3  and  C_25
REMARK    3  A    between atoms: C_7  and  O_12
REMARK    4  A    between atoms: O_12  and  C_16
REMARK    5  A    between atoms: N_24  and  C_31
REMARK                            x       y       z     vdW  Elec       q    Type
REMARK                         _______ _______ _______ _____ _____    ______ ____
ROOT
ATOM      1  O   UNL     1      31.260 -12.648 -21.948  0.00  0.00    -0.270 OA
ATOM      2  N   UNL     1      33.616 -12.549 -22.038  0.00  0.00    -0.280 N 
ATOM      3  C   UNL     1      32.323 -12.042 -21.888  0.00  0.00    +0.254 C 
ATOM      4  H   UNL     1      34.349 -11.897 -21.955  0.00  0.00    +0.155 HD
ENDROOT
BRANCH   2   6
ATOM      5  F   UNL     1      34.175 -16.199 -25.076  0.00  0.00    -0.201 F 
ATOM      6  C   UNL     1      33.995 -13.867 -22.290  0.00  0.00    +0.053 C 
ATOM      7  C   UNL     1      34.751 -16.505 -22.795  0.00  0.00    +0.173 C 
ATOM      8  C   UNL     1      33.895 -14.388 -23.581  0.00  0.00    +0.047 C 
ATOM      9  C   UNL     1      34.474 -14.667 -21.252  0.00  0.00    +0.018 C 
ATOM     10  C   UNL     1      34.273 -15.706 -23.834  0.00  0.00    +0.176 C 
ATOM     11  C   UNL     1      34.851 -15.986 -21.504  0.00  0.00    +0.041 C 
BRANCH   7  12
ATOM     12  O   UNL     1      35.125 -17.812 -23.044  0.00  0.00    -0.451 OA
BRANCH  12  16
ATOM     13  N   UNL     1      34.539 -20.886 -19.597  0.00  0.00    -0.297 N 
ATOM     14  N   UNL     1      36.770 -20.009 -19.835  0.00  0.00    -0.229 NA
ATOM     15  C   UNL     1      34.853 -19.409 -21.242  0.00  0.00    +0.067 C 
ATOM     16  C   UNL     1      35.641 -18.530 -22.003  0.00  0.00    +0.150 C 
ATOM     17  C   UNL     1      35.478 -20.092 -20.203  0.00  0.00    +0.135 C 
ATOM     18  C   UNL     1      33.493 -19.818 -21.245  0.00  0.00    +0.022 C 
ATOM     19  C   UNL     1      33.329 -20.727 -20.222  0.00  0.00    +0.063 C 
ATOM     20  C   UNL     1      36.988 -18.406 -21.665  0.00  0.00    +0.058 C 
ATOM     21  C   UNL     1      37.481 -19.149 -20.601  0.00  0.00    +0.103 C 
ATOM     22  H   UNL     1      34.707 -21.480 -18.830  0.00  0.00    +0.154 HD
ENDBRANCH  12  16
ENDBRANCH   7  12
ENDBRANCH   2   6
BRANCH   3  25
ATOM     23  O   UNL     1      33.281 -10.013 -23.679  0.00  0.00    -0.269 OA
ATOM     24  N   UNL     1      32.675  -8.223 -22.257  0.00  0.00    -0.233 N 
ATOM     25  C   UNL     1      32.314 -10.598 -21.628  0.00  0.00    +0.108 C 
ATOM     26  C   UNL     1      32.790  -9.588 -22.633  0.00  0.00    +0.261 C 
ATOM     27  C   UNL     1      32.210  -7.891 -20.984  0.00  0.00    +0.072 C 
ATOM     28  C   UNL     1      31.872 -10.202 -20.429  0.00  0.00    +0.010 C 
ATOM     29  C   UNL     1      31.827  -8.810 -20.092  0.00  0.00    +0.017 C 
BRANCH  24  31
ATOM     30  F   UNL     1      34.168  -4.221 -25.846  0.00  0.00    -0.204 F 
ATOM     31  C   UNL     1      33.063  -7.183 -23.191  0.00  0.00    +0.059 C 
ATOM     32  C   UNL     1      32.092  -6.528 -23.948  0.00  0.00    +0.018 C 
ATOM     33  C   UNL     1      34.408  -6.837 -23.329  0.00  0.00    +0.018 C 
ATOM     34  C   UNL     1      32.466  -5.527 -24.845  0.00  0.00    +0.031 C 
ATOM     35  C   UNL     1      34.781  -5.836 -24.226  0.00  0.00    +0.031 C 
ATOM     36  C   UNL     1      33.810  -5.181 -24.984  0.00  0.00    +0.140 C 
ENDBRANCH  24  31
ENDBRANCH   3  25
TORSDOF 5
ENDMDL
MODEL 9
REMARK VINA RESULT:     -12.0      2.587     11.362
REMARK  Name = 21081761
REMARK  5 active torsions:
REMARK  status: ('A' for Active; 'I' for Inactive)
REMARK    1  A    between atoms: N_2  and  C_6
REMARK    2  A    between atoms: C_3  and  C_25
REMARK    3  A    between atoms: C_7  and  O_12
REMARK    4  A    between atoms: O_12  and  C_16
REMARK    5  A    between atoms: N_24  and  C_31
REMARK                            x       y       z     vdW  Elec       q    Type
REMARK                         _______ _______ _______ _____ _____    ______ ____
ROOT
ATOM      1  O   UNL     1      32.139 -13.016 -22.529  0.00  0.00    -0.270 OA
ATOM      2  N   UNL     1      34.335 -13.450 -23.276  0.00  0.00    -0.280 N 
ATOM      3  C   UNL     1      33.226 -12.659 -22.966  0.00  0.00    +0.254 C 
ATOM      4  H   UNL     1      35.125 -12.973 -23.619  0.00  0.00    +0.155 HD
ENDROOT
BRANCH   2   6
ATOM      5  F   UNL     1      33.967 -17.827 -25.167  0.00  0.00    -0.201 F 
ATOM      6  C   UNL     1      34.459 -14.835 -23.159  0.00  0.00    +0.053 C 
ATOM      7  C   UNL     1      34.704 -17.604 -22.923  0.00  0.00    +0.173 C 
ATOM      8  C   UNL     1      34.146 -15.658 -24.241  0.00  0.00    +0.047 C 
ATOM      9  C   UNL     1      34.896 -15.397 -21.959  0.00  0.00    +0.018 C 
ATOM     10  C   UNL     1      34.268 -17.043 -24.123  0.00  0.00    +0.176 C 
ATOM     11  C   UNL     1      35.018 -16.781 -21.841  0.00  0.00    +0.041 C 
BRANCH   7  12
ATOM     12  O   UNL     1      34.825 -18.975 -22.805  0.00  0.00    -0.451 OA
BRANCH  12  16
ATOM     13  N   UNL     1      34.291 -21.277 -18.794  0.00  0.00    -0.297 N 
ATOM     14  N   UNL     1      36.516 -20.468 -19.235  0.00  0.00    -0.229 NA
ATOM     15  C   UNL     1      34.580 -20.169 -20.710  0.00  0.00    +0.067 C 
ATOM     16  C   UNL     1      35.357 -19.465 -21.646  0.00  0.00    +0.150 C 
ATOM     17  C   UNL     1      35.219 -20.624 -19.562  0.00  0.00    +0.135 C 
ATOM     18  C   UNL     1      33.221 -20.569 -20.612  0.00  0.00    +0.022 C 
ATOM     19  C   UNL     1      33.073 -21.249 -19.423  0.00  0.00    +0.063 C 
ATOM     20  C   UNL     1      36.708 -19.274 -21.358  0.00  0.00    +0.058 C 
ATOM     21  C   UNL     1      37.215 -19.783 -20.170  0.00  0.00    +0.103 C 
ATOM     22  H   UNL     1      34.470 -21.701 -17.923  0.00  0.00    +0.154 HD
ENDBRANCH  12  16
ENDBRANCH   7  12
ENDBRANCH   2   6
BRANCH   3  25
ATOM     23  O   UNL     1      31.755 -10.482 -21.809  0.00  0.00    -0.269 OA
ATOM     24  N   UNL     1      33.065  -8.811 -22.850  0.00  0.00    -0.233 N 
ATOM     25  C   UNL     1      33.467 -11.234 -23.219  0.00  0.00    +0.108 C 
ATOM     26  C   UNL     1      32.685 -10.144 -22.541  0.00  0.00    +0.261 C 
ATOM     27  C   UNL     1      34.063  -8.576 -23.796  0.00  0.00    +0.072 C 
ATOM     28  C   UNL     1      34.418 -10.929 -24.109  0.00  0.00    +0.010 C 
ATOM     29  C   UNL     1      34.719  -9.562 -24.415  0.00  0.00    +0.017 C 
BRANCH  24  31
ATOM     30  F   UNL     1      30.493  -4.541 -20.344  0.00  0.00    -0.204 F 
ATOM     31  C   UNL     1      32.396  -7.701 -22.199  0.00  0.00    +0.059 C 
ATOM     32  C   UNL     1      32.737  -7.351 -20.892  0.00  0.00    +0.018 C 
ATOM     33  C   UNL     1      31.411  -6.983 -22.879  0.00  0.00    +0.018 C 
ATOM     34  C   UNL     1      32.095  -6.283 -20.266  0.00  0.00    +0.031 C 
ATOM     35  C   UNL     1      30.769  -5.916 -22.253  0.00  0.00    +0.031 C 
ATOM     36  C   UNL     1      31.110  -5.566 -20.946  0.00  0.00    +0.140 C 
ENDBRANCH  24  31
ENDBRANCH   3  25
TORSDOF 5
ENDMDL
