MODEL 1
REMARK VINA RESULT:     -11.3      0.000      0.000
REMARK  Name = 447546
REMARK  10 active torsions:
REMARK  status: ('A' for Active; 'I' for Inactive)
REMARK    1  A    between atoms: N_1  and  C_23
REMARK    2  A    between atoms: C_8  and  N_11
REMARK    3  A    between atoms: N_12  and  C_16
REMARK    4  A    between atoms: C_16  and  C_17
REMARK    5  A    between atoms: C_23  and  C_24
REMARK    6  A    between atoms: C_24  and  C_25
REMARK    7  A    between atoms: C_25  and  N_26
REMARK    8  A    between atoms: C_25  and  C_36
REMARK    9  A    between atoms: C_30  and  C_33
REMARK   10  A    between atoms: C_36  and  O_37
REMARK                            x       y       z     vdW  Elec       q    Type
REMARK                         _______ _______ _______ _____ _____    ______ ____
ROOT
ATOM      1  N   UNL     1      35.346 -24.542 -14.145  0.00  0.00    -0.286 N 
ATOM      2  C   UNL     1      36.097 -23.747 -14.981  0.00  0.00    +0.053 C 
ATOM      3  C   UNL     1      37.432 -23.892 -14.594  0.00  0.00    +0.015 C 
ATOM      4  C   UNL     1      36.157 -25.183 -13.247  0.00  0.00    +0.065 C 
ATOM      5  C   UNL     1      37.454 -24.801 -13.500  0.00  0.00    +0.017 C 
ATOM      6  C   UNL     1      35.702 -22.919 -16.037  0.00  0.00    +0.030 C 
ATOM      7  C   UNL     1      38.422 -23.175 -15.295  0.00  0.00    +0.003 C 
ATOM      8  C   UNL     1      36.703 -22.219 -16.718  0.00  0.00    +0.053 C 
ATOM      9  C   UNL     1      38.042 -22.345 -16.356  0.00  0.00    +0.015 C 
ENDROOT
BRANCH   8  11
ATOM     10  O   UNL     1      34.926 -22.726 -19.084  0.00  0.00    -0.252 OA
ATOM     11  N   UNL     1      36.352 -21.384 -17.781  0.00  0.00    -0.268 N 
ATOM     12  N   UNL     1      35.412 -20.558 -19.726  0.00  0.00    -0.285 N 
ATOM     13  C   UNL     1      35.509 -21.665 -18.875  0.00  0.00    +0.305 C 
ATOM     14  H   UNL     1      36.743 -20.481 -17.762  0.00  0.00    +0.156 HD
ATOM     15  H   UNL     1      35.909 -19.742 -19.492  0.00  0.00    +0.151 HD
BRANCH  12  16
ATOM     16  C   UNL     1      34.615 -20.558 -20.931  0.00  0.00    +0.118 C 
BRANCH  16  17
ATOM     17  C   UNL     1      34.801 -19.300 -21.728  0.00  0.00    -0.003 C 
ATOM     18  C   UNL     1      34.371 -19.242 -23.052  0.00  0.00    -0.003 C 
ATOM     19  C   UNL     1      35.404 -18.186 -21.141  0.00  0.00    -0.003 C 
ATOM     20  C   UNL     1      34.544 -18.072 -23.792  0.00  0.00    -0.000 C 
ATOM     21  C   UNL     1      35.577 -17.016 -21.881  0.00  0.00    -0.000 C 
ATOM     22  C   UNL     1      35.147 -16.960 -23.207  0.00  0.00    -0.000 C 
ENDBRANCH  16  17
ENDBRANCH  12  16
ENDBRANCH   8  11
BRANCH   1  23
ATOM     23  C   UNL     1      33.907 -24.690 -14.194  0.00  0.00    +0.097 C 
BRANCH  23  24
ATOM     24  C   UNL     1      33.129 -23.440 -13.759  0.00  0.00    +0.040 C 
BRANCH  24  25
ATOM     25  C   UNL     1      31.615 -23.655 -13.536  0.00  0.00    +0.091 C 
BRANCH  25  26
ATOM     26  N   UNL     1      30.791 -23.296 -14.703  0.00  0.00    -0.246 NA
ATOM     27  N   UNL     1      30.124 -22.638 -16.716  0.00  0.00    -0.251 NA
ATOM     28  C   UNL     1      29.421 -23.341 -14.784  0.00  0.00    +0.125 C 
ATOM     29  C   UNL     1      31.182 -22.869 -15.883  0.00  0.00    +0.201 C 
ATOM     30  C   UNL     1      28.984 -22.938 -16.024  0.00  0.00    +0.124 C 
BRANCH  30  33
ATOM     31  O   UNL     1      27.305 -23.261 -17.656  0.00  0.00    -0.269 OA
ATOM     32  N   UNL     1      26.685 -22.246 -15.712  0.00  0.00    -0.324 N 
ATOM     33  C   UNL     1      27.656 -22.836 -16.530  0.00  0.00    +0.257 C 
ATOM     34  H   UNL     1      25.758 -22.160 -16.032  0.00  0.00    +0.145 HD
ATOM     35  H   UNL     1      26.928 -21.917 -14.816  0.00  0.00    +0.145 HD
ENDBRANCH  30  33
ENDBRANCH  25  26
BRANCH  25  36
ATOM     36  C   UNL     1      31.332 -25.104 -13.105  0.00  0.00    +0.153 C 
BRANCH  36  37
ATOM     37  O   UNL     1      30.444 -25.108 -11.992  0.00  0.00    -0.381 OA
ATOM     38  H   UNL     1      29.632 -25.581 -12.230  0.00  0.00    +0.210 HD
ENDBRANCH  36  37
ENDBRANCH  25  36
ENDBRANCH  24  25
ENDBRANCH  23  24
ENDBRANCH   1  23
TORSDOF 10
ENDMDL
MODEL 2
REMARK VINA RESULT:     -11.2      2.618      6.357
REMARK  Name = 447546
REMARK  10 active torsions:
REMARK  status: ('A' for Active; 'I' for Inactive)
REMARK    1  A    between atoms: N_1  and  C_23
REMARK    2  A    between atoms: C_8  and  N_11
REMARK    3  A    between atoms: N_12  and  C_16
REMARK    4  A    between atoms: C_16  and  C_17
REMARK    5  A    between atoms: C_23  and  C_24
REMARK    6  A    between atoms: C_24  and  C_25
REMARK    7  A    between atoms: C_25  and  N_26
REMARK    8  A    between atoms: C_25  and  C_36
REMARK    9  A    between atoms: C_30  and  C_33
REMARK   10  A    between atoms: C_36  and  O_37
REMARK                            x       y       z     vdW  Elec       q    Type
REMARK                         _______ _______ _______ _____ _____    ______ ____
ROOT
ATOM      1  N   UNL     1      32.706 -24.627 -13.806  0.00  0.00    -0.286 N 
ATOM      2  C   UNL     1      32.133 -23.948 -14.857  0.00  0.00    +0.053 C 
ATOM      3  C   UNL     1      30.748 -24.064 -14.714  0.00  0.00    +0.015 C 
ATOM      4  C   UNL     1      31.734 -25.165 -13.005  0.00  0.00    +0.065 C 
ATOM      5  C   UNL     1      30.513 -24.833 -13.541  0.00  0.00    +0.017 C 
ATOM      6  C   UNL     1      32.728 -23.248 -15.913  0.00  0.00    +0.030 C 
ATOM      7  C   UNL     1      29.915 -23.451 -15.672  0.00  0.00    +0.003 C 
ATOM      8  C   UNL     1      31.880 -22.649 -16.850  0.00  0.00    +0.053 C 
ATOM      9  C   UNL     1      30.496 -22.747 -16.732  0.00  0.00    +0.015 C 
ENDROOT
BRANCH   8  11
ATOM     10  O   UNL     1      34.685 -22.618 -17.919  0.00  0.00    -0.252 OA
ATOM     11  N   UNL     1      32.433 -21.939 -17.917  0.00  0.00    -0.268 N 
ATOM     12  N   UNL     1      33.913 -21.101 -19.484  0.00  0.00    -0.285 N 
ATOM     13  C   UNL     1      33.762 -21.956 -18.387  0.00  0.00    +0.305 C 
ATOM     14  H   UNL     1      31.813 -21.351 -18.407  0.00  0.00    +0.156 HD
ATOM     15  H   UNL     1      33.127 -20.603 -19.803  0.00  0.00    +0.151 HD
BRANCH  12  16
ATOM     16  C   UNL     1      35.170 -20.917 -20.172  0.00  0.00    +0.118 C 
BRANCH  16  17
ATOM     17  C   UNL     1      35.137 -19.735 -21.098  0.00  0.00    -0.003 C 
ATOM     18  C   UNL     1      34.587 -19.863 -22.372  0.00  0.00    -0.003 C 
ATOM     19  C   UNL     1      35.655 -18.508 -20.681  0.00  0.00    -0.003 C 
ATOM     20  C   UNL     1      34.556 -18.765 -23.232  0.00  0.00    -0.000 C 
ATOM     21  C   UNL     1      35.623 -17.410 -21.541  0.00  0.00    -0.000 C 
ATOM     22  C   UNL     1      35.074 -17.539 -22.816  0.00  0.00    -0.000 C 
ENDBRANCH  16  17
ENDBRANCH  12  16
ENDBRANCH   8  11
BRANCH   1  23
ATOM     23  C   UNL     1      34.127 -24.763 -13.567  0.00  0.00    +0.097 C 
BRANCH  23  24
ATOM     24  C   UNL     1      34.588 -24.252 -12.195  0.00  0.00    +0.040 C 
BRANCH  24  25
ATOM     25  C   UNL     1      35.895 -24.885 -11.664  0.00  0.00    +0.091 C 
BRANCH  25  26
ATOM     26  N   UNL     1      37.016 -24.806 -12.617  0.00  0.00    -0.246 NA
ATOM     27  N   UNL     1      38.528 -24.074 -14.068  0.00  0.00    -0.251 NA
ATOM     28  C   UNL     1      37.830 -25.839 -13.011  0.00  0.00    +0.125 C 
ATOM     29  C   UNL     1      37.463 -23.758 -13.271  0.00  0.00    +0.201 C 
ATOM     30  C   UNL     1      38.776 -25.408 -13.911  0.00  0.00    +0.124 C 
BRANCH  30  33
ATOM     31  O   UNL     1      41.005 -25.776 -14.606  0.00  0.00    -0.269 OA
ATOM     32  N   UNL     1      39.464 -27.353 -15.179  0.00  0.00    -0.324 N 
ATOM     33  C   UNL     1      39.806 -26.142 -14.566  0.00  0.00    +0.257 C 
ATOM     34  H   UNL     1      40.152 -27.884 -15.640  0.00  0.00    +0.145 HD
ATOM     35  H   UNL     1      38.533 -27.674 -15.150  0.00  0.00    +0.145 HD
ENDBRANCH  30  33
ENDBRANCH  25  26
BRANCH  25  36
ATOM     36  C   UNL     1      36.290 -24.259 -10.316  0.00  0.00    +0.153 C 
BRANCH  36  37
ATOM     37  O   UNL     1      35.431 -24.746  -9.292  0.00  0.00    -0.381 OA
ATOM     38  H   UNL     1      34.780 -25.352  -9.678  0.00  0.00    +0.210 HD
ENDBRANCH  36  37
ENDBRANCH  25  36
ENDBRANCH  24  25
ENDBRANCH  23  24
ENDBRANCH   1  23
TORSDOF 10
ENDMDL
MODEL 3
REMARK VINA RESULT:     -11.1      1.812      2.728
REMARK  Name = 447546
REMARK  10 active torsions:
REMARK  status: ('A' for Active; 'I' for Inactive)
REMARK    1  A    between atoms: N_1  and  C_23
REMARK    2  A    between atoms: C_8  and  N_11
REMARK    3  A    between atoms: N_12  and  C_16
REMARK    4  A    between atoms: C_16  and  C_17
REMARK    5  A    between atoms: C_23  and  C_24
REMARK    6  A    between atoms: C_24  and  C_25
REMARK    7  A    between atoms: C_25  and  N_26
REMARK    8  A    between atoms: C_25  and  C_36
REMARK    9  A    between atoms: C_30  and  C_33
REMARK   10  A    between atoms: C_36  and  O_37
REMARK                            x       y       z     vdW  Elec       q    Type
REMARK                         _______ _______ _______ _____ _____    ______ ____
ROOT
ATOM      1  N   UNL     1      33.376 -23.407 -15.921  0.00  0.00    -0.286 N 
ATOM      2  C   UNL     1      34.233 -22.770 -16.791  0.00  0.00    +0.053 C 
ATOM      3  C   UNL     1      35.524 -22.923 -16.280  0.00  0.00    +0.015 C 
ATOM      4  C   UNL     1      34.080 -23.956 -14.882  0.00  0.00    +0.065 C 
ATOM      5  C   UNL     1      35.411 -23.673 -15.077  0.00  0.00    +0.017 C 
ATOM      6  C   UNL     1      33.966 -22.078 -17.977  0.00  0.00    +0.030 C 
ATOM      7  C   UNL     1      36.604 -22.357 -16.987  0.00  0.00    +0.003 C 
ATOM      8  C   UNL     1      35.054 -21.526 -18.661  0.00  0.00    +0.053 C 
ATOM      9  C   UNL     1      36.353 -21.663 -18.176  0.00  0.00    +0.015 C 
ENDROOT
BRANCH   8  11
ATOM     10  O   UNL     1      36.799 -19.570 -20.123  0.00  0.00    -0.252 OA
ATOM     11  N   UNL     1      34.832 -20.829 -19.850  0.00  0.00    -0.268 N 
ATOM     12  N   UNL     1      35.092 -19.434 -21.676  0.00  0.00    -0.285 N 
ATOM     13  C   UNL     1      35.684 -19.917 -20.504  0.00  0.00    +0.305 C 
ATOM     14  H   UNL     1      33.968 -20.999 -20.291  0.00  0.00    +0.156 HD
ATOM     15  H   UNL     1      34.195 -19.759 -21.916  0.00  0.00    +0.151 HD
BRANCH  12  16
ATOM     16  C   UNL     1      35.737 -18.482 -22.550  0.00  0.00    +0.118 C 
BRANCH  16  17
ATOM     17  C   UNL     1      35.212 -17.090 -22.350  0.00  0.00    -0.003 C 
ATOM     18  C   UNL     1      35.082 -16.571 -21.063  0.00  0.00    -0.003 C 
ATOM     19  C   UNL     1      34.855 -16.314 -23.453  0.00  0.00    -0.003 C 
ATOM     20  C   UNL     1      34.595 -15.278 -20.877  0.00  0.00    -0.000 C 
ATOM     21  C   UNL     1      34.367 -15.020 -23.268  0.00  0.00    -0.000 C 
ATOM     22  C   UNL     1      34.237 -14.502 -21.979  0.00  0.00    -0.000 C 
ENDBRANCH  16  17
ENDBRANCH  12  16
ENDBRANCH   8  11
BRANCH   1  23
ATOM     23  C   UNL     1      31.939 -23.492 -16.067  0.00  0.00    +0.097 C 
BRANCH  23  24
ATOM     24  C   UNL     1      31.149 -22.973 -14.858  0.00  0.00    +0.040 C 
BRANCH  24  25
ATOM     25  C   UNL     1      29.827 -23.720 -14.569  0.00  0.00    +0.091 C 
BRANCH  25  26
ATOM     26  N   UNL     1      28.809 -23.542 -15.619  0.00  0.00    -0.246 NA
ATOM     27  N   UNL     1      27.404 -23.892 -17.301  0.00  0.00    -0.251 NA
ATOM     28  C   UNL     1      28.127 -22.387 -15.912  0.00  0.00    +0.125 C 
ATOM     29  C   UNL     1      28.350 -24.429 -16.474  0.00  0.00    +0.201 C 
ATOM     30  C   UNL     1      27.248 -22.580 -16.953  0.00  0.00    +0.124 C 
BRANCH  30  33
ATOM     31  O   UNL     1      26.144 -20.499 -17.140  0.00  0.00    -0.269 OA
ATOM     32  N   UNL     1      25.692 -22.063 -18.735  0.00  0.00    -0.324 N 
ATOM     33  C   UNL     1      26.355 -21.658 -17.569  0.00  0.00    +0.257 C 
ATOM     34  H   UNL     1      25.068 -21.450 -19.184  0.00  0.00    +0.145 HD
ATOM     35  H   UNL     1      25.850 -22.962 -19.104  0.00  0.00    +0.145 HD
ENDBRANCH  30  33
ENDBRANCH  25  26
BRANCH  25  36
ATOM     36  C   UNL     1      30.091 -25.215 -14.326  0.00  0.00    +0.153 C 
BRANCH  36  37
ATOM     37  O   UNL     1      30.613 -25.401 -13.015  0.00  0.00    -0.381 OA
ATOM     38  H   UNL     1      30.543 -24.571 -12.519  0.00  0.00    +0.210 HD
ENDBRANCH  36  37
ENDBRANCH  25  36
ENDBRANCH  24  25
ENDBRANCH  23  24
ENDBRANCH   1  23
TORSDOF 10
ENDMDL
MODEL 4
REMARK VINA RESULT:     -10.7      2.018      3.251
REMARK  Name = 447546
REMARK  10 active torsions:
REMARK  status: ('A' for Active; 'I' for Inactive)
REMARK    1  A    between atoms: N_1  and  C_23
REMARK    2  A    between atoms: C_8  and  N_11
REMARK    3  A    between atoms: N_12  and  C_16
REMARK    4  A    between atoms: C_16  and  C_17
REMARK    5  A    between atoms: C_23  and  C_24
REMARK    6  A    between atoms: C_24  and  C_25
REMARK    7  A    between atoms: C_25  and  N_26
REMARK    8  A    between atoms: C_25  and  C_36
REMARK    9  A    between atoms: C_30  and  C_33
REMARK   10  A    between atoms: C_36  and  O_37
REMARK                            x       y       z     vdW  Elec       q    Type
REMARK                         _______ _______ _______ _____ _____    ______ ____
ROOT
ATOM      1  N   UNL     1      34.029 -22.773 -16.918  0.00  0.00    -0.286 N 
ATOM      2  C   UNL     1      34.669 -22.043 -17.894  0.00  0.00    +0.053 C 
ATOM      3  C   UNL     1      36.024 -22.006 -17.556  0.00  0.00    +0.015 C 
ATOM      4  C   UNL     1      34.930 -23.199 -15.979  0.00  0.00    +0.065 C 
ATOM      5  C   UNL     1      36.173 -22.740 -16.347  0.00  0.00    +0.017 C 
ATOM      6  C   UNL     1      34.157 -21.418 -19.037  0.00  0.00    +0.030 C 
ATOM      7  C   UNL     1      36.914 -21.311 -18.400  0.00  0.00    +0.003 C 
ATOM      8  C   UNL     1      35.060 -20.735 -19.858  0.00  0.00    +0.053 C 
ATOM      9  C   UNL     1      36.417 -20.683 -19.547  0.00  0.00    +0.015 C 
ENDROOT
BRANCH   8  11
ATOM     10  O   UNL     1      36.447 -18.857 -21.743  0.00  0.00    -0.252 OA
ATOM     11  N   UNL     1      34.591 -20.100 -21.009  0.00  0.00    -0.268 N 
ATOM     12  N   UNL     1      34.455 -18.799 -22.917  0.00  0.00    -0.285 N 
ATOM     13  C   UNL     1      35.281 -19.222 -21.869  0.00  0.00    +0.305 C 
ATOM     14  H   UNL     1      33.656 -20.292 -21.254  0.00  0.00    +0.156 HD
ATOM     15  H   UNL     1      33.532 -19.136 -22.951  0.00  0.00    +0.151 HD
BRANCH  12  16
ATOM     16  C   UNL     1      34.898 -17.893 -23.952  0.00  0.00    +0.118 C 
BRANCH  16  17
ATOM     17  C   UNL     1      34.505 -16.474 -23.660  0.00  0.00    -0.003 C 
ATOM     18  C   UNL     1      34.852 -15.889 -22.443  0.00  0.00    -0.003 C 
ATOM     19  C   UNL     1      33.794 -15.738 -24.609  0.00  0.00    -0.003 C 
ATOM     20  C   UNL     1      34.488 -14.570 -22.173  0.00  0.00    -0.000 C 
ATOM     21  C   UNL     1      33.429 -14.419 -24.339  0.00  0.00    -0.000 C 
ATOM     22  C   UNL     1      33.777 -13.836 -23.121  0.00  0.00    -0.000 C 
ENDBRANCH  16  17
ENDBRANCH  12  16
ENDBRANCH   8  11
BRANCH   1  23
ATOM     23  C   UNL     1      32.611 -23.059 -16.875  0.00  0.00    +0.097 C 
BRANCH  23  24
ATOM     24  C   UNL     1      32.214 -24.136 -15.855  0.00  0.00    +0.040 C 
BRANCH  24  25
ATOM     25  C   UNL     1      31.169 -23.693 -14.806  0.00  0.00    +0.091 C 
BRANCH  25  26
ATOM     26  N   UNL     1      29.797 -23.617 -15.338  0.00  0.00    -0.246 NA
ATOM     27  N   UNL     1      27.869 -24.099 -16.326  0.00  0.00    -0.251 NA
ATOM     28  C   UNL     1      28.940 -22.550 -15.244  0.00  0.00    +0.125 C 
ATOM     29  C   UNL     1      29.121 -24.534 -15.994  0.00  0.00    +0.201 C 
ATOM     30  C   UNL     1      27.736 -22.825 -15.850  0.00  0.00    +0.124 C 
BRANCH  30  33
ATOM     31  O   UNL     1      26.341 -21.292 -16.986  0.00  0.00    -0.269 OA
ATOM     32  N   UNL     1      25.641 -22.018 -14.942  0.00  0.00    -0.324 N 
ATOM     33  C   UNL     1      26.578 -22.006 -15.983  0.00  0.00    +0.257 C 
ATOM     34  H   UNL     1      24.831 -21.463 -15.003  0.00  0.00    +0.145 HD
ATOM     35  H   UNL     1      25.794 -22.581 -14.149  0.00  0.00    +0.145 HD
ENDBRANCH  30  33
ENDBRANCH  25  26
BRANCH  25  36
ATOM     36  C   UNL     1      31.218 -24.611 -13.573  0.00  0.00    +0.153 C 
BRANCH  36  37
ATOM     37  O   UNL     1      30.837 -23.877 -12.415  0.00  0.00    -0.381 OA
ATOM     38  H   UNL     1      30.852 -22.928 -12.615  0.00  0.00    +0.210 HD
ENDBRANCH  36  37
ENDBRANCH  25  36
ENDBRANCH  24  25
ENDBRANCH  23  24
ENDBRANCH   1  23
TORSDOF 10
ENDMDL
MODEL 5
REMARK VINA RESULT:     -10.5      3.009      9.116
REMARK  Name = 447546
REMARK  10 active torsions:
REMARK  status: ('A' for Active; 'I' for Inactive)
REMARK    1  A    between atoms: N_1  and  C_23
REMARK    2  A    between atoms: C_8  and  N_11
REMARK    3  A    between atoms: N_12  and  C_16
REMARK    4  A    between atoms: C_16  and  C_17
REMARK    5  A    between atoms: C_23  and  C_24
REMARK    6  A    between atoms: C_24  and  C_25
REMARK    7  A    between atoms: C_25  and  N_26
REMARK    8  A    between atoms: C_25  and  C_36
REMARK    9  A    between atoms: C_30  and  C_33
REMARK   10  A    between atoms: C_36  and  O_37
REMARK                            x       y       z     vdW  Elec       q    Type
REMARK                         _______ _______ _______ _____ _____    ______ ____
ROOT
ATOM      1  N   UNL     1      35.583 -21.619 -18.754  0.00  0.00    -0.286 N 
ATOM      2  C   UNL     1      34.992 -22.275 -17.698  0.00  0.00    +0.053 C 
ATOM      3  C   UNL     1      35.940 -22.341 -16.674  0.00  0.00    +0.015 C 
ATOM      4  C   UNL     1      36.867 -21.268 -18.433  0.00  0.00    +0.065 C 
ATOM      5  C   UNL     1      37.116 -21.702 -17.153  0.00  0.00    +0.017 C 
ATOM      6  C   UNL     1      33.704 -22.810 -17.573  0.00  0.00    +0.030 C 
ATOM      7  C   UNL     1      35.587 -22.972 -15.465  0.00  0.00    +0.003 C 
ATOM      8  C   UNL     1      33.378 -23.430 -16.363  0.00  0.00    +0.053 C 
ATOM      9  C   UNL     1      34.303 -23.511 -15.324  0.00  0.00    +0.015 C 
ENDROOT
BRANCH   8  11
ATOM     10  O   UNL     1      31.076 -22.505 -14.675  0.00  0.00    -0.252 OA
ATOM     11  N   UNL     1      32.103 -23.975 -16.196  0.00  0.00    -0.268 N 
ATOM     12  N   UNL     1      29.928 -24.336 -15.499  0.00  0.00    -0.285 N 
ATOM     13  C   UNL     1      31.048 -23.504 -15.389  0.00  0.00    +0.305 C 
ATOM     14  H   UNL     1      31.917 -24.794 -16.710  0.00  0.00    +0.156 HD
ATOM     15  H   UNL     1      29.982 -25.119 -16.092  0.00  0.00    +0.151 HD
BRANCH  12  16
ATOM     16  C   UNL     1      28.697 -24.097 -14.782  0.00  0.00    +0.118 C 
BRANCH  16  17
ATOM     17  C   UNL     1      27.747 -23.238 -15.567  0.00  0.00    -0.003 C 
ATOM     18  C   UNL     1      26.808 -22.450 -14.904  0.00  0.00    -0.003 C 
ATOM     19  C   UNL     1      27.806 -23.229 -16.961  0.00  0.00    -0.003 C 
ATOM     20  C   UNL     1      25.926 -21.653 -15.634  0.00  0.00    -0.000 C 
ATOM     21  C   UNL     1      26.925 -22.431 -17.691  0.00  0.00    -0.000 C 
ATOM     22  C   UNL     1      25.985 -21.643 -17.027  0.00  0.00    -0.000 C 
ENDBRANCH  16  17
ENDBRANCH  12  16
ENDBRANCH   8  11
BRANCH   1  23
ATOM     23  C   UNL     1      34.954 -21.333 -20.026  0.00  0.00    +0.097 C 
BRANCH  23  24
ATOM     24  C   UNL     1      34.902 -19.841 -20.384  0.00  0.00    +0.040 C 
BRANCH  24  25
ATOM     25  C   UNL     1      35.871 -19.402 -21.505  0.00  0.00    +0.091 C 
BRANCH  25  26
ATOM     26  N   UNL     1      35.214 -18.656 -22.592  0.00  0.00    -0.246 NA
ATOM     27  N   UNL     1      34.100 -18.123 -24.437  0.00  0.00    -0.251 NA
ATOM     28  C   UNL     1      35.131 -17.291 -22.716  0.00  0.00    +0.125 C 
ATOM     29  C   UNL     1      34.582 -19.126 -23.644  0.00  0.00    +0.201 C 
ATOM     30  C   UNL     1      34.444 -16.937 -23.853  0.00  0.00    +0.124 C 
BRANCH  30  33
ATOM     31  O   UNL     1      33.811 -15.418 -25.551  0.00  0.00    -0.269 OA
ATOM     32  N   UNL     1      34.162 -14.563 -23.468  0.00  0.00    -0.324 N 
ATOM     33  C   UNL     1      34.131 -15.642 -24.359  0.00  0.00    +0.257 C 
ATOM     34  H   UNL     1      33.952 -13.656 -23.786  0.00  0.00    +0.145 HD
ATOM     35  H   UNL     1      34.395 -14.711 -22.522  0.00  0.00    +0.145 HD
ENDBRANCH  30  33
ENDBRANCH  25  26
BRANCH  25  36
ATOM     36  C   UNL     1      37.037 -18.586 -20.922  0.00  0.00    +0.153 C 
BRANCH  36  37
ATOM     37  O   UNL     1      38.105 -18.541 -21.862  0.00  0.00    -0.381 OA
ATOM     38  H   UNL     1      38.575 -17.697 -21.775  0.00  0.00    +0.210 HD
ENDBRANCH  36  37
ENDBRANCH  25  36
ENDBRANCH  24  25
ENDBRANCH  23  24
ENDBRANCH   1  23
TORSDOF 10
ENDMDL
MODEL 6
REMARK VINA RESULT:     -10.5      8.220     13.517
REMARK  Name = 447546
REMARK  10 active torsions:
REMARK  status: ('A' for Active; 'I' for Inactive)
REMARK    1  A    between atoms: N_1  and  C_23
REMARK    2  A    between atoms: C_8  and  N_11
REMARK    3  A    between atoms: N_12  and  C_16
REMARK    4  A    between atoms: C_16  and  C_17
REMARK    5  A    between atoms: C_23  and  C_24
REMARK    6  A    between atoms: C_24  and  C_25
REMARK    7  A    between atoms: C_25  and  N_26
REMARK    8  A    between atoms: C_25  and  C_36
REMARK    9  A    between atoms: C_30  and  C_33
REMARK   10  A    between atoms: C_36  and  O_37
REMARK                            x       y       z     vdW  Elec       q    Type
REMARK                         _______ _______ _______ _____ _____    ______ ____
ROOT
ATOM      1  N   UNL     1      33.574 -11.898 -23.987  0.00  0.00    -0.286 N 
ATOM      2  C   UNL     1      33.843 -13.246 -23.919  0.00  0.00    +0.053 C 
ATOM      3  C   UNL     1      33.599 -13.778 -25.188  0.00  0.00    +0.015 C 
ATOM      4  C   UNL     1      33.172 -11.559 -25.252  0.00  0.00    +0.065 C 
ATOM      5  C   UNL     1      33.178 -12.702 -26.017  0.00  0.00    +0.017 C 
ATOM      6  C   UNL     1      34.277 -14.028 -22.842  0.00  0.00    +0.030 C 
ATOM      7  C   UNL     1      33.799 -15.157 -25.394  0.00  0.00    +0.003 C 
ATOM      8  C   UNL     1      34.468 -15.394 -23.072  0.00  0.00    +0.053 C 
ATOM      9  C   UNL     1      34.234 -15.952 -24.327  0.00  0.00    +0.015 C 
ENDROOT
BRANCH   8  11
ATOM     10  O   UNL     1      35.628 -18.161 -23.118  0.00  0.00    -0.252 OA
ATOM     11  N   UNL     1      34.903 -16.209 -22.026  0.00  0.00    -0.268 N 
ATOM     12  N   UNL     1      35.757 -17.985 -20.816  0.00  0.00    -0.285 N 
ATOM     13  C   UNL     1      35.444 -17.509 -22.094  0.00  0.00    +0.305 C 
ATOM     14  H   UNL     1      34.822 -15.826 -21.122  0.00  0.00    +0.156 HD
ATOM     15  H   UNL     1      35.581 -17.404 -20.042  0.00  0.00    +0.151 HD
BRANCH  12  16
ATOM     16  C   UNL     1      36.328 -19.292 -20.580  0.00  0.00    +0.118 C 
BRANCH  16  17
ATOM     17  C   UNL     1      35.324 -20.248 -20.006  0.00  0.00    -0.003 C 
ATOM     18  C   UNL     1      33.971 -20.104 -20.308  0.00  0.00    -0.003 C 
ATOM     19  C   UNL     1      35.745 -21.283 -19.171  0.00  0.00    -0.003 C 
ATOM     20  C   UNL     1      33.038 -20.993 -19.774  0.00  0.00    -0.000 C 
ATOM     21  C   UNL     1      34.813 -22.173 -18.637  0.00  0.00    -0.000 C 
ATOM     22  C   UNL     1      33.459 -22.027 -18.939  0.00  0.00    -0.000 C 
ENDBRANCH  16  17
ENDBRANCH  12  16
ENDBRANCH   8  11
BRANCH   1  23
ATOM     23  C   UNL     1      33.694 -10.960 -22.891  0.00  0.00    +0.097 C 
BRANCH  23  24
ATOM     24  C   UNL     1      32.406 -10.183 -22.582  0.00  0.00    +0.040 C 
BRANCH  24  25
ATOM     25  C   UNL     1      32.278  -9.679 -21.127  0.00  0.00    +0.091 C 
BRANCH  25  26
ATOM     26  N   UNL     1      32.076  -8.224 -21.023  0.00  0.00    -0.246 NA
ATOM     27  N   UNL     1      32.010  -6.133 -20.281  0.00  0.00    -0.251 NA
ATOM     28  C   UNL     1      31.578  -7.394 -21.996  0.00  0.00    +0.125 C 
ATOM     29  C   UNL     1      32.327  -7.432 -20.003  0.00  0.00    +0.201 C 
ATOM     30  C   UNL     1      31.527  -6.091 -21.559  0.00  0.00    +0.124 C 
BRANCH  30  33
ATOM     31  O   UNL     1      30.942  -4.851 -23.484  0.00  0.00    -0.269 OA
ATOM     32  N   UNL     1      30.761  -3.795 -21.473  0.00  0.00    -0.324 N 
ATOM     33  C   UNL     1      31.082  -4.922 -22.240  0.00  0.00    +0.257 C 
ATOM     34  H   UNL     1      30.451  -2.972 -21.913  0.00  0.00    +0.145 HD
ATOM     35  H   UNL     1      30.846  -3.827 -20.492  0.00  0.00    +0.145 HD
ENDBRANCH  30  33
ENDBRANCH  25  26
BRANCH  25  36
ATOM     36  C   UNL     1      31.155 -10.431 -20.391  0.00  0.00    +0.153 C 
BRANCH  36  37
ATOM     37  O   UNL     1      30.713 -11.526 -21.186  0.00  0.00    -0.381 OA
ATOM     38  H   UNL     1      29.875 -11.864 -20.831  0.00  0.00    +0.210 HD
ENDBRANCH  36  37
ENDBRANCH  25  36
ENDBRANCH  24  25
ENDBRANCH  23  24
ENDBRANCH   1  23
TORSDOF 10
ENDMDL
MODEL 7
REMARK VINA RESULT:     -10.4     10.935     15.797
REMARK  Name = 447546
REMARK  10 active torsions:
REMARK  status: ('A' for Active; 'I' for Inactive)
REMARK    1  A    between atoms: N_1  and  C_23
REMARK    2  A    between atoms: C_8  and  N_11
REMARK    3  A    between atoms: N_12  and  C_16
REMARK    4  A    between atoms: C_16  and  C_17
REMARK    5  A    between atoms: C_23  and  C_24
REMARK    6  A    between atoms: C_24  and  C_25
REMARK    7  A    between atoms: C_25  and  N_26
REMARK    8  A    between atoms: C_25  and  C_36
REMARK    9  A    between atoms: C_30  and  C_33
REMARK   10  A    between atoms: C_36  and  O_37
REMARK                            x       y       z     vdW  Elec       q    Type
REMARK                         _______ _______ _______ _____ _____    ______ ____
ROOT
ATOM      1  N   UNL     1      31.755 -10.278 -20.966  0.00  0.00    -0.286 N 
ATOM      2  C   UNL     1      32.066  -8.939 -21.029  0.00  0.00    +0.053 C 
ATOM      3  C   UNL     1      32.133  -8.470 -19.715  0.00  0.00    +0.015 C 
ATOM      4  C   UNL     1      31.625 -10.672 -19.661  0.00  0.00    +0.065 C 
ATOM      5  C   UNL     1      31.853  -9.575 -18.864  0.00  0.00    +0.017 C 
ATOM      6  C   UNL     1      32.290  -8.114 -22.138  0.00  0.00    +0.030 C 
ATOM      7  C   UNL     1      32.438  -7.112 -19.494  0.00  0.00    +0.003 C 
ATOM      8  C   UNL     1      32.592  -6.771 -21.893  0.00  0.00    +0.053 C 
ATOM      9  C   UNL     1      32.666  -6.276 -20.593  0.00  0.00    +0.015 C 
ENDROOT
BRANCH   8  11
ATOM     10  O   UNL     1      30.800  -4.740 -23.185  0.00  0.00    -0.252 OA
ATOM     11  N   UNL     1      32.825  -5.915 -22.971  0.00  0.00    -0.268 N 
ATOM     12  N   UNL     1      32.566  -4.310 -24.615  0.00  0.00    -0.285 N 
ATOM     13  C   UNL     1      31.951  -4.972 -23.546  0.00  0.00    +0.305 C 
ATOM     14  H   UNL     1      33.718  -5.978 -23.382  0.00  0.00    +0.156 HD
ATOM     15  H   UNL     1      33.491  -4.550 -24.846  0.00  0.00    +0.151 HD
BRANCH  12  16
ATOM     16  C   UNL     1      31.904  -3.288 -25.394  0.00  0.00    +0.118 C 
BRANCH  16  17
ATOM     17  C   UNL     1      32.353  -3.295 -26.826  0.00  0.00    -0.003 C 
ATOM     18  C   UNL     1      31.869  -2.336 -27.714  0.00  0.00    -0.003 C 
ATOM     19  C   UNL     1      33.257  -4.262 -27.269  0.00  0.00    -0.003 C 
ATOM     20  C   UNL     1      32.286  -2.344 -29.045  0.00  0.00    -0.000 C 
ATOM     21  C   UNL     1      33.674  -4.269 -28.600  0.00  0.00    -0.000 C 
ATOM     22  C   UNL     1      33.189  -3.309 -29.488  0.00  0.00    -0.000 C 
ENDBRANCH  16  17
ENDBRANCH  12  16
ENDBRANCH   8  11
BRANCH   1  23
ATOM     23  C   UNL     1      31.586 -11.157 -22.103  0.00  0.00    +0.097 C 
BRANCH  23  24
ATOM     24  C   UNL     1      32.412 -12.449 -22.031  0.00  0.00    +0.040 C 
BRANCH  24  25
ATOM     25  C   UNL     1      33.632 -12.502 -22.978  0.00  0.00    +0.091 C 
BRANCH  25  26
ATOM     26  N   UNL     1      33.764 -13.780 -23.698  0.00  0.00    -0.246 NA
ATOM     27  N   UNL     1      33.719 -15.356 -25.260  0.00  0.00    -0.251 NA
ATOM     28  C   UNL     1      34.252 -14.959 -23.192  0.00  0.00    +0.125 C 
ATOM     29  C   UNL     1      33.452 -14.054 -24.946  0.00  0.00    +0.201 C 
ATOM     30  C   UNL     1      34.234 -15.952 -24.144  0.00  0.00    +0.124 C 
BRANCH  30  33
ATOM     31  O   UNL     1      34.193 -18.232 -24.767  0.00  0.00    -0.269 OA
ATOM     32  N   UNL     1      35.629 -17.634 -23.100  0.00  0.00    -0.324 N 
ATOM     33  C   UNL     1      34.646 -17.312 -24.044  0.00  0.00    +0.257 C 
ATOM     34  H   UNL     1      35.935 -18.565 -23.006  0.00  0.00    +0.145 HD
ATOM     35  H   UNL     1      36.014 -16.930 -22.529  0.00  0.00    +0.145 HD
ENDBRANCH  30  33
ENDBRANCH  25  26
BRANCH  25  36
ATOM     36  C   UNL     1      33.597 -11.327 -23.970  0.00  0.00    +0.153 C 
BRANCH  36  37
ATOM     37  O   UNL     1      34.667 -10.432 -23.690  0.00  0.00    -0.381 OA
ATOM     38  H   UNL     1      34.501  -9.985 -22.845  0.00  0.00    +0.210 HD
ENDBRANCH  36  37
ENDBRANCH  25  36
ENDBRANCH  24  25
ENDBRANCH  23  24
ENDBRANCH   1  23
TORSDOF 10
ENDMDL
MODEL 8
REMARK VINA RESULT:     -10.4      6.778     11.414
REMARK  Name = 447546
REMARK  10 active torsions:
REMARK  status: ('A' for Active; 'I' for Inactive)
REMARK    1  A    between atoms: N_1  and  C_23
REMARK    2  A    between atoms: C_8  and  N_11
REMARK    3  A    between atoms: N_12  and  C_16
REMARK    4  A    between atoms: C_16  and  C_17
REMARK    5  A    between atoms: C_23  and  C_24
REMARK    6  A    between atoms: C_24  and  C_25
REMARK    7  A    between atoms: C_25  and  N_26
REMARK    8  A    between atoms: C_25  and  C_36
REMARK    9  A    between atoms: C_30  and  C_33
REMARK   10  A    between atoms: C_36  and  O_37
REMARK                            x       y       z     vdW  Elec       q    Type
REMARK                         _______ _______ _______ _____ _____    ______ ____
ROOT
ATOM      1  N   UNL     1      34.829 -16.301 -22.770  0.00  0.00    -0.286 N 
ATOM      2  C   UNL     1      34.387 -15.133 -23.349  0.00  0.00    +0.053 C 
ATOM      3  C   UNL     1      33.876 -15.466 -24.606  0.00  0.00    +0.015 C 
ATOM      4  C   UNL     1      34.616 -17.357 -23.615  0.00  0.00    +0.065 C 
ATOM      5  C   UNL     1      34.027 -16.872 -24.759  0.00  0.00    +0.017 C 
ATOM      6  C   UNL     1      34.399 -13.821 -22.861  0.00  0.00    +0.030 C 
ATOM      7  C   UNL     1      33.352 -14.440 -25.418  0.00  0.00    +0.003 C 
ATOM      8  C   UNL     1      33.873 -12.821 -23.685  0.00  0.00    +0.053 C 
ATOM      9  C   UNL     1      33.357 -13.124 -24.943  0.00  0.00    +0.015 C 
ENDROOT
BRANCH   8  11
ATOM     10  O   UNL     1      34.976 -10.332 -24.948  0.00  0.00    -0.252 OA
ATOM     11  N   UNL     1      33.864 -11.499 -23.236  0.00  0.00    -0.268 N 
ATOM     12  N   UNL     1      34.181  -9.213 -23.086  0.00  0.00    -0.285 N 
ATOM     13  C   UNL     1      34.396 -10.356 -23.865  0.00  0.00    +0.305 C 
ATOM     14  H   UNL     1      33.428 -11.346 -22.366  0.00  0.00    +0.156 HD
ATOM     15  H   UNL     1      33.708  -9.312 -22.230  0.00  0.00    +0.151 HD
BRANCH  12  16
ATOM     16  C   UNL     1      34.620  -7.895 -23.483  0.00  0.00    +0.118 C 
BRANCH  16  17
ATOM     17  C   UNL     1      33.712  -6.820 -22.961  0.00  0.00    -0.003 C 
ATOM     18  C   UNL     1      33.130  -6.949 -21.701  0.00  0.00    -0.003 C 
ATOM     19  C   UNL     1      33.452  -5.689 -23.737  0.00  0.00    -0.003 C 
ATOM     20  C   UNL     1      32.287  -5.949 -21.216  0.00  0.00    -0.000 C 
ATOM     21  C   UNL     1      32.609  -4.690 -23.252  0.00  0.00    -0.000 C 
ATOM     22  C   UNL     1      32.026  -4.820 -21.992  0.00  0.00    -0.000 C 
ENDBRANCH  16  17
ENDBRANCH  12  16
ENDBRANCH   8  11
BRANCH   1  23
ATOM     23  C   UNL     1      35.435 -16.414 -21.461  0.00  0.00    +0.097 C 
BRANCH  23  24
ATOM     24  C   UNL     1      35.130 -17.731 -20.734  0.00  0.00    +0.040 C 
BRANCH  24  25
ATOM     25  C   UNL     1      36.344 -18.664 -20.529  0.00  0.00    +0.091 C 
BRANCH  25  26
ATOM     26  N   UNL     1      36.000 -19.947 -19.892  0.00  0.00    -0.246 NA
ATOM     27  N   UNL     1      36.101 -21.861 -18.772  0.00  0.00    -0.251 NA
ATOM     28  C   UNL     1      34.767 -20.550 -19.878  0.00  0.00    +0.125 C 
ATOM     29  C   UNL     1      36.780 -20.762 -19.217  0.00  0.00    +0.201 C 
ATOM     30  C   UNL     1      34.805 -21.740 -19.189  0.00  0.00    +0.124 C 
BRANCH  30  33
ATOM     31  O   UNL     1      33.864 -23.908 -19.145  0.00  0.00    -0.269 OA
ATOM     32  N   UNL     1      32.561 -22.193 -18.399  0.00  0.00    -0.324 N 
ATOM     33  C   UNL     1      33.761 -22.675 -18.935  0.00  0.00    +0.257 C 
ATOM     34  H   UNL     1      31.821 -22.813 -18.212  0.00  0.00    +0.145 HD
ATOM     35  H   UNL     1      32.458 -21.232 -18.209  0.00  0.00    +0.145 HD
ENDBRANCH  30  33
ENDBRANCH  25  26
BRANCH  25  36
ATOM     36  C   UNL     1      37.072 -18.906 -21.862  0.00  0.00    +0.153 C 
BRANCH  36  37
ATOM     37  O   UNL     1      38.398 -18.396 -21.783  0.00  0.00    -0.381 OA
ATOM     38  H   UNL     1      38.420 -17.648 -21.165  0.00  0.00    +0.210 HD
ENDBRANCH  36  37
ENDBRANCH  25  36
ENDBRANCH  24  25
ENDBRANCH  23  24
ENDBRANCH   1  23
TORSDOF 10
ENDMDL
MODEL 9
REMARK VINA RESULT:     -10.0      8.650     13.519
REMARK  Name = 447546
REMARK  10 active torsions:
REMARK  status: ('A' for Active; 'I' for Inactive)
REMARK    1  A    between atoms: N_1  and  C_23
REMARK    2  A    between atoms: C_8  and  N_11
REMARK    3  A    between atoms: N_12  and  C_16
REMARK    4  A    between atoms: C_16  and  C_17
REMARK    5  A    between atoms: C_23  and  C_24
REMARK    6  A    between atoms: C_24  and  C_25
REMARK    7  A    between atoms: C_25  and  N_26
REMARK    8  A    between atoms: C_25  and  C_36
REMARK    9  A    between atoms: C_30  and  C_33
REMARK   10  A    between atoms: C_36  and  O_37
REMARK                            x       y       z     vdW  Elec       q    Type
REMARK                         _______ _______ _______ _____ _____    ______ ____
ROOT
ATOM      1  N   UNL     1      33.215 -13.317 -21.972  0.00  0.00    -0.286 N 
ATOM      2  C   UNL     1      32.667 -12.059 -21.854  0.00  0.00    +0.053 C 
ATOM      3  C   UNL     1      32.034 -12.003 -20.610  0.00  0.00    +0.015 C 
ATOM      4  C   UNL     1      32.952 -14.055 -20.849  0.00  0.00    +0.065 C 
ATOM      5  C   UNL     1      32.223 -13.269 -19.988  0.00  0.00    +0.017 C 
ATOM      6  C   UNL     1      32.683 -10.979 -22.743  0.00  0.00    +0.030 C 
ATOM      7  C   UNL     1      31.384 -10.811 -20.234  0.00  0.00    +0.003 C 
ATOM      8  C   UNL     1      32.032  -9.807 -22.347  0.00  0.00    +0.053 C 
ATOM      9  C   UNL     1      31.393  -9.722 -21.112  0.00  0.00    +0.015 C 
ENDROOT
BRANCH   8  11
ATOM     10  O   UNL     1      33.117  -7.036 -21.957  0.00  0.00    -0.252 OA
ATOM     11  N   UNL     1      32.026  -8.705 -23.204  0.00  0.00    -0.268 N 
ATOM     12  N   UNL     1      32.342  -6.592 -24.090  0.00  0.00    -0.285 N 
ATOM     13  C   UNL     1      32.550  -7.416 -22.978  0.00  0.00    +0.305 C 
ATOM     14  H   UNL     1      31.601  -8.847 -24.081  0.00  0.00    +0.156 HD
ATOM     15  H   UNL     1      31.880  -6.969 -24.873  0.00  0.00    +0.151 HD
BRANCH  12  16
ATOM     16  C   UNL     1      32.776  -5.215 -24.142  0.00  0.00    +0.118 C 
BRANCH  16  17
ATOM     17  C   UNL     1      33.547  -4.915 -25.395  0.00  0.00    -0.003 C 
ATOM     18  C   UNL     1      32.871  -4.581 -26.567  0.00  0.00    -0.003 C 
ATOM     19  C   UNL     1      34.941  -4.971 -25.386  0.00  0.00    -0.003 C 
ATOM     20  C   UNL     1      33.587  -4.302 -27.731  0.00  0.00    -0.000 C 
ATOM     21  C   UNL     1      35.658  -4.693 -26.550  0.00  0.00    -0.000 C 
ATOM     22  C   UNL     1      34.980  -4.358 -27.722  0.00  0.00    -0.000 C 
ENDBRANCH  16  17
ENDBRANCH  12  16
ENDBRANCH   8  11
BRANCH   1  23
ATOM     23  C   UNL     1      33.962 -13.805 -23.111  0.00  0.00    +0.097 C 
BRANCH  23  24
ATOM     24  C   UNL     1      34.910 -14.970 -22.793  0.00  0.00    +0.040 C 
BRANCH  24  25
ATOM     25  C   UNL     1      34.841 -16.159 -23.778  0.00  0.00    +0.091 C 
BRANCH  25  26
ATOM     26  N   UNL     1      34.909 -17.474 -23.118  0.00  0.00    -0.246 NA
ATOM     27  N   UNL     1      34.705 -19.636 -22.656  0.00  0.00    -0.251 NA
ATOM     28  C   UNL     1      35.474 -17.751 -21.899  0.00  0.00    +0.125 C 
ATOM     29  C   UNL     1      34.455 -18.631 -23.547  0.00  0.00    +0.201 C 
ATOM     30  C   UNL     1      35.360 -19.087 -21.591  0.00  0.00    +0.124 C 
BRANCH  30  33
ATOM     31  O   UNL     1      36.918 -19.605 -19.890  0.00  0.00    -0.269 OA
ATOM     32  N   UNL     1      34.940 -20.737 -19.868  0.00  0.00    -0.324 N 
ATOM     33  C   UNL     1      35.805 -19.794 -20.437  0.00  0.00    +0.257 C 
ATOM     34  H   UNL     1      35.218 -21.242 -19.071  0.00  0.00    +0.145 HD
ATOM     35  H   UNL     1      34.054 -20.895 -20.267  0.00  0.00    +0.145 HD
ENDBRANCH  30  33
ENDBRANCH  25  26
BRANCH  25  36
ATOM     36  C   UNL     1      33.582 -16.062 -24.656  0.00  0.00    +0.153 C 
BRANCH  36  37
ATOM     37  O   UNL     1      33.823 -15.172 -25.740  0.00  0.00    -0.381 OA
ATOM     38  H   UNL     1      34.105 -14.311 -25.394  0.00  0.00    +0.210 HD
ENDBRANCH  36  37
ENDBRANCH  25  36
ENDBRANCH  24  25
ENDBRANCH  23  24
ENDBRANCH   1  23
TORSDOF 10
ENDMDL
