MODEL 1
REMARK VINA RESULT:     -11.6      0.000      0.000
REMARK  Name = 24755471
REMARK  13 active torsions:
REMARK  status: ('A' for Active; 'I' for Inactive)
REMARK    1  A    between atoms: C_1  and  S_11
REMARK    2  A    between atoms: C_9  and  O_27
REMARK    3  A    between atoms: S_11  and  N_14
REMARK    4  A    between atoms: N_14  and  C_16
REMARK    5  A    between atoms: C_16  and  C_18
REMARK    6  A    between atoms: C_16  and  C_21
REMARK    7  A    between atoms: C_18  and  O_19
REMARK    8  A    between atoms: C_21  and  C_22
REMARK    9  A    between atoms: C_22  and  C_24
REMARK   10  A    between atoms: C_24  and  O_25
REMARK   11  A    between atoms: O_27  and  C_28
REMARK   12  A    between atoms: C_28  and  C_29
REMARK   13  A    between atoms: C_34  and  C_36
REMARK                            x       y       z     vdW  Elec       q    Type
REMARK                         _______ _______ _______ _____ _____    ______ ____
ROOT
ATOM      1  C   UNL     1      33.032 -23.676 -14.909  0.00  0.00    +0.122 C 
ATOM      2  C   UNL     1      34.410 -22.727 -16.675  0.00  0.00    +0.002 C 
ATOM      3  C   UNL     1      34.286 -23.328 -15.412  0.00  0.00    +0.020 C 
ATOM      4  C   UNL     1      33.246 -22.475 -17.439  0.00  0.00    +0.003 C 
ATOM      5  C   UNL     1      31.887 -23.427 -15.660  0.00  0.00    +0.020 C 
ATOM      6  C   UNL     1      31.992 -22.831 -16.917  0.00  0.00    +0.001 C 
ATOM      7  C   UNL     1      33.370 -21.873 -18.702  0.00  0.00    +0.037 C 
ATOM      8  C   UNL     1      35.665 -22.370 -17.197  0.00  0.00    +0.003 C 
ATOM      9  C   UNL     1      34.625 -21.526 -19.204  0.00  0.00    +0.139 C 
ATOM     10  C   UNL     1      35.770 -21.773 -18.453  0.00  0.00    +0.037 C 
ENDROOT
BRANCH   1  11
ATOM     11  S   UNL     1      32.898 -24.433 -13.317  0.00  0.00    +0.061 S 
ATOM     12  O   UNL     1      32.493 -23.411 -12.370  0.00  0.00    -0.153 OA
ATOM     13  O   UNL     1      32.099 -25.631 -13.485  0.00  0.00    -0.153 OA
BRANCH  11  14
ATOM     14  N   UNL     1      34.508 -24.883 -13.007  0.00  0.00    -0.170 NA
ATOM     15  H   UNL     1      35.010 -24.804 -13.891  0.00  0.00    +0.149 HD
BRANCH  14  16
ATOM     16  C   UNL     1      35.299 -24.146 -11.998  0.00  0.00    +0.174 C 
BRANCH  16  18
ATOM     17  O   UNL     1      35.210 -25.056  -9.744  0.00  0.00    -0.249 OA
ATOM     18  C   UNL     1      35.650 -25.106 -10.886  0.00  0.00    +0.330 C 
BRANCH  18  19
ATOM     19  O   UNL     1      36.513 -26.071 -11.297  0.00  0.00    -0.479 OA
ATOM     20  H   UNL     1      36.897 -26.024 -12.150  0.00  0.00    +0.295 HD
ENDBRANCH  18  19
ENDBRANCH  16  18
BRANCH  16  21
ATOM     21  C   UNL     1      36.504 -23.464 -12.656  0.00  0.00    +0.040 C 
BRANCH  21  22
ATOM     22  C   UNL     1      37.044 -24.118 -13.932  0.00  0.00    +0.111 C 
BRANCH  22  24
ATOM     23  O   UNL     1      39.020 -24.843 -12.746  0.00  0.00    -0.250 OA
ATOM     24  C   UNL     1      38.465 -24.607 -13.812  0.00  0.00    +0.314 C 
BRANCH  24  25
ATOM     25  O   UNL     1      39.077 -24.744 -15.015  0.00  0.00    -0.480 OA
ATOM     26  H   UNL     1      39.030 -25.560 -15.474  0.00  0.00    +0.295 HD
ENDBRANCH  24  25
ENDBRANCH  22  24
ENDBRANCH  21  22
ENDBRANCH  16  21
ENDBRANCH  14  16
ENDBRANCH  11  14
ENDBRANCH   1  11
BRANCH   9  27
ATOM     27  O   UNL     1      34.729 -20.945 -20.431  0.00  0.00    -0.471 OA
BRANCH  27  28
ATOM     28  C   UNL     1      35.779 -19.997 -20.614  0.00  0.00    +0.232 C 
BRANCH  28  29
ATOM     29  C   UNL     1      35.364 -19.001 -21.657  0.00  0.00    +0.021 C 
ATOM     30  C   UNL     1      34.732 -19.434 -22.822  0.00  0.00    -0.000 C 
ATOM     31  C   UNL     1      35.612 -17.642 -21.462  0.00  0.00    -0.000 C 
ATOM     32  C   UNL     1      34.347 -18.509 -23.792  0.00  0.00    +0.010 C 
ATOM     33  C   UNL     1      35.227 -16.717 -22.431  0.00  0.00    +0.010 C 
ATOM     34  C   UNL     1      34.595 -17.150 -23.597  0.00  0.00    +0.068 C 
BRANCH  34  36
ATOM     35  N   UNL     1      33.878 -15.432 -25.397  0.00  0.00    -0.191 NA
ATOM     36  C   UNL     1      34.199 -16.202 -24.590  0.00  0.00    +0.100 C 
ENDBRANCH  34  36
ENDBRANCH  28  29
ENDBRANCH  27  28
ENDBRANCH   9  27
TORSDOF 13
ENDMDL
MODEL 2
REMARK VINA RESULT:     -11.5      1.660      3.293
REMARK  Name = 24755471
REMARK  13 active torsions:
REMARK  status: ('A' for Active; 'I' for Inactive)
REMARK    1  A    between atoms: C_1  and  S_11
REMARK    2  A    between atoms: C_9  and  O_27
REMARK    3  A    between atoms: S_11  and  N_14
REMARK    4  A    between atoms: N_14  and  C_16
REMARK    5  A    between atoms: C_16  and  C_18
REMARK    6  A    between atoms: C_16  and  C_21
REMARK    7  A    between atoms: C_18  and  O_19
REMARK    8  A    between atoms: C_21  and  C_22
REMARK    9  A    between atoms: C_22  and  C_24
REMARK   10  A    between atoms: C_24  and  O_25
REMARK   11  A    between atoms: O_27  and  C_28
REMARK   12  A    between atoms: C_28  and  C_29
REMARK   13  A    between atoms: C_34  and  C_36
REMARK                            x       y       z     vdW  Elec       q    Type
REMARK                         _______ _______ _______ _____ _____    ______ ____
ROOT
ATOM      1  C   UNL     1      35.638 -23.117 -16.025  0.00  0.00    +0.122 C 
ATOM      2  C   UNL     1      34.645 -22.095 -17.998  0.00  0.00    +0.002 C 
ATOM      3  C   UNL     1      34.529 -22.880 -16.839  0.00  0.00    +0.020 C 
ATOM      4  C   UNL     1      35.903 -21.542 -18.337  0.00  0.00    +0.003 C 
ATOM      5  C   UNL     1      36.875 -22.573 -16.359  0.00  0.00    +0.020 C 
ATOM      6  C   UNL     1      37.008 -21.791 -17.507  0.00  0.00    +0.001 C 
ATOM      7  C   UNL     1      36.019 -20.758 -19.495  0.00  0.00    +0.037 C 
ATOM      8  C   UNL     1      33.539 -21.847 -18.828  0.00  0.00    +0.003 C 
ATOM      9  C   UNL     1      34.910 -20.522 -20.309  0.00  0.00    +0.139 C 
ATOM     10  C   UNL     1      33.673 -21.065 -19.976  0.00  0.00    +0.037 C 
ENDROOT
BRANCH   1  11
ATOM     11  S   UNL     1      35.470 -24.107 -14.570  0.00  0.00    +0.061 S 
ATOM     12  O   UNL     1      34.382 -23.562 -13.783  0.00  0.00    -0.153 OA
ATOM     13  O   UNL     1      35.438 -25.491 -15.003  0.00  0.00    -0.153 OA
BRANCH  11  14
ATOM     14  N   UNL     1      36.945 -23.813 -13.776  0.00  0.00    -0.170 NA
ATOM     15  H   UNL     1      36.767 -23.084 -13.087  0.00  0.00    +0.149 HD
BRANCH  14  16
ATOM     16  C   UNL     1      37.633 -24.914 -13.067  0.00  0.00    +0.174 C 
BRANCH  16  18
ATOM     17  O   UNL     1      40.031 -24.951 -13.472  0.00  0.00    -0.249 OA
ATOM     18  C   UNL     1      38.896 -25.243 -13.828  0.00  0.00    +0.330 C 
BRANCH  18  19
ATOM     19  O   UNL     1      38.641 -25.932 -14.970  0.00  0.00    -0.479 OA
ATOM     20  H   UNL     1      39.258 -25.915 -15.674  0.00  0.00    +0.295 HD
ENDBRANCH  18  19
ENDBRANCH  16  18
BRANCH  16  21
ATOM     21  C   UNL     1      37.852 -24.548 -11.595  0.00  0.00    +0.040 C 
BRANCH  21  22
ATOM     22  C   UNL     1      36.751 -23.717 -10.929  0.00  0.00    +0.111 C 
BRANCH  22  24
ATOM     23  O   UNL     1      35.507 -24.716  -9.115  0.00  0.00    -0.250 OA
ATOM     24  C   UNL     1      35.647 -24.543 -10.319  0.00  0.00    +0.314 C 
BRANCH  24  25
ATOM     25  O   UNL     1      34.828 -25.094 -11.250  0.00  0.00    -0.480 OA
ATOM     26  H   UNL     1      34.036 -25.519 -10.983  0.00  0.00    +0.295 HD
ENDBRANCH  24  25
ENDBRANCH  22  24
ENDBRANCH  21  22
ENDBRANCH  16  21
ENDBRANCH  14  16
ENDBRANCH  11  14
ENDBRANCH   1  11
BRANCH   9  27
ATOM     27  O   UNL     1      35.038 -19.758 -21.428  0.00  0.00    -0.471 OA
BRANCH  27  28
ATOM     28  C   UNL     1      35.816 -18.567 -21.315  0.00  0.00    +0.232 C 
BRANCH  28  29
ATOM     29  C   UNL     1      35.247 -17.522 -22.229  0.00  0.00    +0.021 C 
ATOM     30  C   UNL     1      35.101 -16.209 -21.781  0.00  0.00    -0.000 C 
ATOM     31  C   UNL     1      34.863 -17.863 -23.526  0.00  0.00    -0.000 C 
ATOM     32  C   UNL     1      34.571 -15.238 -22.630  0.00  0.00    +0.010 C 
ATOM     33  C   UNL     1      34.334 -16.892 -24.375  0.00  0.00    +0.010 C 
ATOM     34  C   UNL     1      34.187 -15.579 -23.927  0.00  0.00    +0.068 C 
BRANCH  34  36
ATOM     35  N   UNL     1      33.205 -13.774 -25.503  0.00  0.00    -0.191 NA
ATOM     36  C   UNL     1      33.645 -14.583 -24.797  0.00  0.00    +0.100 C 
ENDBRANCH  34  36
ENDBRANCH  28  29
ENDBRANCH  27  28
ENDBRANCH   9  27
TORSDOF 13
ENDMDL
MODEL 3
REMARK VINA RESULT:     -11.4      3.117      5.640
REMARK  Name = 24755471
REMARK  13 active torsions:
REMARK  status: ('A' for Active; 'I' for Inactive)
REMARK    1  A    between atoms: C_1  and  S_11
REMARK    2  A    between atoms: C_9  and  O_27
REMARK    3  A    between atoms: S_11  and  N_14
REMARK    4  A    between atoms: N_14  and  C_16
REMARK    5  A    between atoms: C_16  and  C_18
REMARK    6  A    between atoms: C_16  and  C_21
REMARK    7  A    between atoms: C_18  and  O_19
REMARK    8  A    between atoms: C_21  and  C_22
REMARK    9  A    between atoms: C_22  and  C_24
REMARK   10  A    between atoms: C_24  and  O_25
REMARK   11  A    between atoms: O_27  and  C_28
REMARK   12  A    between atoms: C_28  and  C_29
REMARK   13  A    between atoms: C_34  and  C_36
REMARK                            x       y       z     vdW  Elec       q    Type
REMARK                         _______ _______ _______ _____ _____    ______ ____
ROOT
ATOM      1  C   UNL     1      34.066 -22.021 -18.564  0.00  0.00    +0.122 C 
ATOM      2  C   UNL     1      35.495 -20.535 -19.856  0.00  0.00    +0.002 C 
ATOM      3  C   UNL     1      35.333 -21.521 -18.870  0.00  0.00    +0.020 C 
ATOM      4  C   UNL     1      34.358 -20.050 -20.544  0.00  0.00    +0.003 C 
ATOM      5  C   UNL     1      32.948 -21.543 -19.240  0.00  0.00    +0.020 C 
ATOM      6  C   UNL     1      33.090 -20.564 -20.224  0.00  0.00    +0.001 C 
ATOM      7  C   UNL     1      34.521 -19.064 -21.531  0.00  0.00    +0.037 C 
ATOM      8  C   UNL     1      36.763 -20.021 -20.176  0.00  0.00    +0.003 C 
ATOM      9  C   UNL     1      35.787 -18.565 -21.836  0.00  0.00    +0.139 C 
ATOM     10  C   UNL     1      36.906 -19.042 -21.160  0.00  0.00    +0.037 C 
ENDROOT
BRANCH   1  11
ATOM     11  S   UNL     1      33.883 -23.261 -17.318  0.00  0.00    +0.061 S 
ATOM     12  O   UNL     1      33.487 -24.494 -17.970  0.00  0.00    -0.153 OA
ATOM     13  O   UNL     1      35.081 -23.219 -16.501  0.00  0.00    -0.153 OA
BRANCH  11  14
ATOM     14  N   UNL     1      32.577 -22.657 -16.412  0.00  0.00    -0.170 NA
ATOM     15  H   UNL     1      31.919 -22.253 -17.078  0.00  0.00    +0.149 HD
BRANCH  14  16
ATOM     16  C   UNL     1      31.802 -23.565 -15.539  0.00  0.00    +0.174 C 
BRANCH  16  18
ATOM     17  O   UNL     1      33.360 -24.649 -14.019  0.00  0.00    -0.249 OA
ATOM     18  C   UNL     1      32.568 -23.743 -14.251  0.00  0.00    +0.330 C 
BRANCH  18  19
ATOM     19  O   UNL     1      32.300 -22.759 -13.355  0.00  0.00    -0.479 OA
ATOM     20  H   UNL     1      32.566 -22.853 -12.462  0.00  0.00    +0.295 HD
ENDBRANCH  18  19
ENDBRANCH  16  18
BRANCH  16  21
ATOM     21  C   UNL     1      30.370 -23.044 -15.363  0.00  0.00    +0.040 C 
BRANCH  21  22
ATOM     22  C   UNL     1      29.243 -24.041 -15.650  0.00  0.00    +0.111 C 
BRANCH  22  24
ATOM     23  O   UNL     1      27.475 -24.184 -17.289  0.00  0.00    -0.250 OA
ATOM     24  C   UNL     1      28.158 -23.495 -16.544  0.00  0.00    +0.314 C 
BRANCH  24  25
ATOM     25  O   UNL     1      28.028 -22.147 -16.449  0.00  0.00    -0.480 OA
ATOM     26  H   UNL     1      28.686 -21.643 -16.012  0.00  0.00    +0.295 HD
ENDBRANCH  24  25
ENDBRANCH  22  24
ENDBRANCH  21  22
ENDBRANCH  16  21
ENDBRANCH  14  16
ENDBRANCH  11  14
ENDBRANCH   1  11
BRANCH   9  27
ATOM     27  O   UNL     1      35.929 -17.611 -22.797  0.00  0.00    -0.471 OA
BRANCH  27  28
ATOM     28  C   UNL     1      34.803 -17.364 -23.637  0.00  0.00    +0.232 C 
BRANCH  28  29
ATOM     29  C   UNL     1      34.414 -15.919 -23.524  0.00  0.00    +0.021 C 
ATOM     30  C   UNL     1      33.799 -15.276 -24.598  0.00  0.00    -0.000 C 
ATOM     31  C   UNL     1      34.670 -15.218 -22.346  0.00  0.00    -0.000 C 
ATOM     32  C   UNL     1      33.439 -13.934 -24.494  0.00  0.00    +0.010 C 
ATOM     33  C   UNL     1      34.310 -13.875 -22.241  0.00  0.00    +0.010 C 
ATOM     34  C   UNL     1      33.695 -13.232 -23.315  0.00  0.00    +0.068 C 
BRANCH  34  36
ATOM     35  N   UNL     1      33.024 -10.738 -23.121  0.00  0.00    -0.191 NA
ATOM     36  C   UNL     1      33.325 -11.856 -23.208  0.00  0.00    +0.100 C 
ENDBRANCH  34  36
ENDBRANCH  28  29
ENDBRANCH  27  28
ENDBRANCH   9  27
TORSDOF 13
ENDMDL
MODEL 4
REMARK VINA RESULT:     -11.3      1.814      2.656
REMARK  Name = 24755471
REMARK  13 active torsions:
REMARK  status: ('A' for Active; 'I' for Inactive)
REMARK    1  A    between atoms: C_1  and  S_11
REMARK    2  A    between atoms: C_9  and  O_27
REMARK    3  A    between atoms: S_11  and  N_14
REMARK    4  A    between atoms: N_14  and  C_16
REMARK    5  A    between atoms: C_16  and  C_18
REMARK    6  A    between atoms: C_16  and  C_21
REMARK    7  A    between atoms: C_18  and  O_19
REMARK    8  A    between atoms: C_21  and  C_22
REMARK    9  A    between atoms: C_22  and  C_24
REMARK   10  A    between atoms: C_24  and  O_25
REMARK   11  A    between atoms: O_27  and  C_28
REMARK   12  A    between atoms: C_28  and  C_29
REMARK   13  A    between atoms: C_34  and  C_36
REMARK                            x       y       z     vdW  Elec       q    Type
REMARK                         _______ _______ _______ _____ _____    ______ ____
ROOT
ATOM      1  C   UNL     1      36.008 -23.222 -15.376  0.00  0.00    +0.122 C 
ATOM      2  C   UNL     1      34.809 -22.415 -17.333  0.00  0.00    +0.002 C 
ATOM      3  C   UNL     1      34.829 -23.110 -16.113  0.00  0.00    +0.020 C 
ATOM      4  C   UNL     1      36.002 -21.824 -17.812  0.00  0.00    +0.003 C 
ATOM      5  C   UNL     1      37.182 -22.641 -15.848  0.00  0.00    +0.020 C 
ATOM      6  C   UNL     1      37.180 -21.947 -17.058  0.00  0.00    +0.001 C 
ATOM      7  C   UNL     1      35.982 -21.129 -19.032  0.00  0.00    +0.037 C 
ATOM      8  C   UNL     1      33.630 -22.293 -18.088  0.00  0.00    +0.003 C 
ATOM      9  C   UNL     1      34.802 -21.017 -19.768  0.00  0.00    +0.139 C 
ATOM     10  C   UNL     1      33.629 -21.598 -19.298  0.00  0.00    +0.037 C 
ENDROOT
BRANCH   1  11
ATOM     11  S   UNL     1      36.012 -24.102 -13.843  0.00  0.00    +0.061 S 
ATOM     12  O   UNL     1      34.939 -23.573 -13.022  0.00  0.00    -0.153 OA
ATOM     13  O   UNL     1      36.055 -25.515 -14.167  0.00  0.00    -0.153 OA
BRANCH  11  14
ATOM     14  N   UNL     1      37.509 -23.643 -13.180  0.00  0.00    -0.170 NA
ATOM     15  H   UNL     1      37.336 -22.816 -12.610  0.00  0.00    +0.149 HD
BRANCH  14  16
ATOM     16  C   UNL     1      38.265 -24.595 -12.337  0.00  0.00    +0.174 C 
BRANCH  16  18
ATOM     17  O   UNL     1      37.108 -24.249 -10.225  0.00  0.00    -0.249 OA
ATOM     18  C   UNL     1      37.391 -24.980 -11.167  0.00  0.00    +0.330 C 
BRANCH  18  19
ATOM     19  O   UNL     1      36.920 -26.249 -11.276  0.00  0.00    -0.479 OA
ATOM     20  H   UNL     1      36.927 -26.682 -12.106  0.00  0.00    +0.295 HD
ENDBRANCH  18  19
ENDBRANCH  16  18
BRANCH  16  21
ATOM     21  C   UNL     1      38.763 -25.776 -13.178  0.00  0.00    +0.040 C 
BRANCH  21  22
ATOM     22  C   UNL     1      39.681 -25.435 -14.355  0.00  0.00    +0.111 C 
BRANCH  22  24
ATOM     23  O   UNL     1      41.349 -27.144 -13.993  0.00  0.00    -0.250 OA
ATOM     24  C   UNL     1      40.595 -26.563 -14.763  0.00  0.00    +0.314 C 
BRANCH  24  25
ATOM     25  O   UNL     1      40.509 -26.857 -16.085  0.00  0.00    -0.480 OA
ATOM     26  H   UNL     1      40.704 -26.200 -16.724  0.00  0.00    +0.295 HD
ENDBRANCH  24  25
ENDBRANCH  22  24
ENDBRANCH  21  22
ENDBRANCH  16  21
ENDBRANCH  14  16
ENDBRANCH  11  14
ENDBRANCH   1  11
BRANCH   9  27
ATOM     27  O   UNL     1      34.799 -20.338 -20.948  0.00  0.00    -0.471 OA
BRANCH  27  28
ATOM     28  C   UNL     1      35.809 -19.347 -21.130  0.00  0.00    +0.232 C 
BRANCH  28  29
ATOM     29  C   UNL     1      35.317 -18.320 -22.107  0.00  0.00    +0.021 C 
ATOM     30  C   UNL     1      35.439 -16.962 -21.811  0.00  0.00    -0.000 C 
ATOM     31  C   UNL     1      34.738 -18.722 -23.310  0.00  0.00    -0.000 C 
ATOM     32  C   UNL     1      34.982 -16.007 -22.719  0.00  0.00    +0.010 C 
ATOM     33  C   UNL     1      34.281 -17.768 -24.218  0.00  0.00    +0.010 C 
ATOM     34  C   UNL     1      34.402 -16.410 -23.922  0.00  0.00    +0.068 C 
BRANCH  34  36
ATOM     35  N   UNL     1      33.554 -14.635 -25.608  0.00  0.00    -0.191 NA
ATOM     36  C   UNL     1      33.934 -15.431 -24.853  0.00  0.00    +0.100 C 
ENDBRANCH  34  36
ENDBRANCH  28  29
ENDBRANCH  27  28
ENDBRANCH   9  27
TORSDOF 13
ENDMDL
MODEL 5
REMARK VINA RESULT:     -11.1      2.136      4.486
REMARK  Name = 24755471
REMARK  13 active torsions:
REMARK  status: ('A' for Active; 'I' for Inactive)
REMARK    1  A    between atoms: C_1  and  S_11
REMARK    2  A    between atoms: C_9  and  O_27
REMARK    3  A    between atoms: S_11  and  N_14
REMARK    4  A    between atoms: N_14  and  C_16
REMARK    5  A    between atoms: C_16  and  C_18
REMARK    6  A    between atoms: C_16  and  C_21
REMARK    7  A    between atoms: C_18  and  O_19
REMARK    8  A    between atoms: C_21  and  C_22
REMARK    9  A    between atoms: C_22  and  C_24
REMARK   10  A    between atoms: C_24  and  O_25
REMARK   11  A    between atoms: O_27  and  C_28
REMARK   12  A    between atoms: C_28  and  C_29
REMARK   13  A    between atoms: C_34  and  C_36
REMARK                            x       y       z     vdW  Elec       q    Type
REMARK                         _______ _______ _______ _____ _____    ______ ____
ROOT
ATOM      1  C   UNL     1      35.668 -22.584 -16.595  0.00  0.00    +0.122 C 
ATOM      2  C   UNL     1      34.371 -21.697 -18.452  0.00  0.00    +0.002 C 
ATOM      3  C   UNL     1      34.444 -22.400 -17.239  0.00  0.00    +0.020 C 
ATOM      4  C   UNL     1      35.556 -21.173 -19.021  0.00  0.00    +0.003 C 
ATOM      5  C   UNL     1      36.833 -22.069 -17.155  0.00  0.00    +0.020 C 
ATOM      6  C   UNL     1      36.779 -21.368 -18.360  0.00  0.00    +0.001 C 
ATOM      7  C   UNL     1      35.482 -20.470 -20.235  0.00  0.00    +0.037 C 
ATOM      8  C   UNL     1      33.146 -21.503 -19.114  0.00  0.00    +0.003 C 
ATOM      9  C   UNL     1      34.258 -20.287 -20.878  0.00  0.00    +0.139 C 
ATOM     10  C   UNL     1      33.092 -20.802 -20.319  0.00  0.00    +0.037 C 
ENDROOT
BRANCH   1  11
ATOM     11  S   UNL     1      35.738 -23.472 -15.068  0.00  0.00    +0.061 S 
ATOM     12  O   UNL     1      35.572 -24.882 -15.364  0.00  0.00    -0.153 OA
ATOM     13  O   UNL     1      36.917 -23.008 -14.363  0.00  0.00    -0.153 OA
BRANCH  11  14
ATOM     14  N   UNL     1      34.354 -22.896 -14.266  0.00  0.00    -0.170 NA
ATOM     15  H   UNL     1      34.097 -22.019 -14.716  0.00  0.00    +0.149 HD
BRANCH  14  16
ATOM     16  C   UNL     1      33.131 -23.727 -14.215  0.00  0.00    +0.174 C 
BRANCH  16  18
ATOM     17  O   UNL     1      33.978 -24.373 -12.028  0.00  0.00    -0.249 OA
ATOM     18  C   UNL     1      33.139 -24.492 -12.913  0.00  0.00    +0.330 C 
BRANCH  18  19
ATOM     19  O   UNL     1      32.079 -25.334 -12.808  0.00  0.00    -0.479 OA
ATOM     20  H   UNL     1      32.219 -26.244 -12.635  0.00  0.00    +0.295 HD
ENDBRANCH  18  19
ENDBRANCH  16  18
BRANCH  16  21
ATOM     21  C   UNL     1      31.886 -22.861 -14.440  0.00  0.00    +0.040 C 
BRANCH  21  22
ATOM     22  C   UNL     1      31.058 -23.171 -15.690  0.00  0.00    +0.111 C 
BRANCH  22  24
ATOM     23  O   UNL     1      29.089 -22.326 -14.572  0.00  0.00    -0.250 OA
ATOM     24  C   UNL     1      29.628 -22.697 -15.607  0.00  0.00    +0.314 C 
BRANCH  24  25
ATOM     25  O   UNL     1      28.991 -22.740 -16.804  0.00  0.00    -0.480 OA
ATOM     26  H   UNL     1      29.393 -23.168 -17.533  0.00  0.00    +0.295 HD
ENDBRANCH  24  25
ENDBRANCH  22  24
ENDBRANCH  21  22
ENDBRANCH  16  21
ENDBRANCH  14  16
ENDBRANCH  11  14
ENDBRANCH   1  11
BRANCH   9  27
ATOM     27  O   UNL     1      34.204 -19.601 -22.053  0.00  0.00    -0.471 OA
BRANCH  27  28
ATOM     28  C   UNL     1      35.371 -18.877 -22.437  0.00  0.00    +0.232 C 
BRANCH  28  29
ATOM     29  C   UNL     1      34.987 -17.462 -22.757  0.00  0.00    +0.021 C 
ATOM     30  C   UNL     1      34.602 -17.121 -24.054  0.00  0.00    -0.000 C 
ATOM     31  C   UNL     1      35.017 -16.488 -21.759  0.00  0.00    -0.000 C 
ATOM     32  C   UNL     1      34.245 -15.807 -24.352  0.00  0.00    +0.010 C 
ATOM     33  C   UNL     1      34.660 -15.173 -22.057  0.00  0.00    +0.010 C 
ATOM     34  C   UNL     1      34.275 -14.832 -23.354  0.00  0.00    +0.068 C 
BRANCH  34  36
ATOM     35  N   UNL     1      33.612 -12.391 -23.909  0.00  0.00    -0.191 NA
ATOM     36  C   UNL     1      33.909 -13.485 -23.660  0.00  0.00    +0.100 C 
ENDBRANCH  34  36
ENDBRANCH  28  29
ENDBRANCH  27  28
ENDBRANCH   9  27
TORSDOF 13
ENDMDL
MODEL 6
REMARK VINA RESULT:     -10.8      1.430      2.053
REMARK  Name = 24755471
REMARK  13 active torsions:
REMARK  status: ('A' for Active; 'I' for Inactive)
REMARK    1  A    between atoms: C_1  and  S_11
REMARK    2  A    between atoms: C_9  and  O_27
REMARK    3  A    between atoms: S_11  and  N_14
REMARK    4  A    between atoms: N_14  and  C_16
REMARK    5  A    between atoms: C_16  and  C_18
REMARK    6  A    between atoms: C_16  and  C_21
REMARK    7  A    between atoms: C_18  and  O_19
REMARK    8  A    between atoms: C_21  and  C_22
REMARK    9  A    between atoms: C_22  and  C_24
REMARK   10  A    between atoms: C_24  and  O_25
REMARK   11  A    between atoms: O_27  and  C_28
REMARK   12  A    between atoms: C_28  and  C_29
REMARK   13  A    between atoms: C_34  and  C_36
REMARK                            x       y       z     vdW  Elec       q    Type
REMARK                         _______ _______ _______ _____ _____    ______ ____
ROOT
ATOM      1  C   UNL     1      34.424 -23.362 -16.102  0.00  0.00    +0.122 C 
ATOM      2  C   UNL     1      35.407 -22.029 -17.885  0.00  0.00    +0.002 C 
ATOM      3  C   UNL     1      35.541 -22.787 -16.710  0.00  0.00    +0.020 C 
ATOM      4  C   UNL     1      34.122 -21.852 -18.451  0.00  0.00    +0.003 C 
ATOM      5  C   UNL     1      33.161 -23.187 -16.659  0.00  0.00    +0.020 C 
ATOM      6  C   UNL     1      33.009 -22.438 -17.826  0.00  0.00    +0.001 C 
ATOM      7  C   UNL     1      33.988 -21.095 -19.626  0.00  0.00    +0.037 C 
ATOM      8  C   UNL     1      36.520 -21.443 -18.510  0.00  0.00    +0.003 C 
ATOM      9  C   UNL     1      35.104 -20.520 -20.234  0.00  0.00    +0.139 C 
ATOM     10  C   UNL     1      36.368 -20.693 -19.677  0.00  0.00    +0.037 C 
ENDROOT
BRANCH   1  11
ATOM     11  S   UNL     1      34.615 -24.312 -14.623  0.00  0.00    +0.061 S 
ATOM     12  O   UNL     1      33.326 -24.375 -13.963  0.00  0.00    -0.153 OA
ATOM     13  O   UNL     1      35.307 -25.532 -14.992  0.00  0.00    -0.153 OA
BRANCH  11  14
ATOM     14  N   UNL     1      35.668 -23.335 -13.714  0.00  0.00    -0.170 NA
ATOM     15  H   UNL     1      35.086 -22.671 -13.204  0.00  0.00    +0.149 HD
BRANCH  14  16
ATOM     16  C   UNL     1      36.580 -23.952 -12.726  0.00  0.00    +0.174 C 
BRANCH  16  18
ATOM     17  O   UNL     1      36.012 -25.476 -10.917  0.00  0.00    -0.249 OA
ATOM     18  C   UNL     1      35.743 -24.487 -11.588  0.00  0.00    +0.330 C 
BRANCH  18  19
ATOM     19  O   UNL     1      34.641 -23.727 -11.362  0.00  0.00    -0.479 OA
ATOM     20  H   UNL     1      33.989 -24.015 -10.754  0.00  0.00    +0.295 HD
ENDBRANCH  18  19
ENDBRANCH  16  18
BRANCH  16  21
ATOM     21  C   UNL     1      37.476 -24.995 -13.404  0.00  0.00    +0.040 C 
BRANCH  21  22
ATOM     22  C   UNL     1      38.936 -25.040 -12.946  0.00  0.00    +0.111 C 
BRANCH  22  24
ATOM     23  O   UNL     1      39.645 -26.909 -14.303  0.00  0.00    -0.250 OA
ATOM     24  C   UNL     1      39.851 -25.773 -13.894  0.00  0.00    +0.314 C 
BRANCH  24  25
ATOM     25  O   UNL     1      40.945 -25.046 -14.236  0.00  0.00    -0.480 OA
ATOM     26  H   UNL     1      41.605 -25.424 -14.783  0.00  0.00    +0.295 HD
ENDBRANCH  24  25
ENDBRANCH  22  24
ENDBRANCH  21  22
ENDBRANCH  16  21
ENDBRANCH  14  16
ENDBRANCH  11  14
ENDBRANCH   1  11
BRANCH   9  27
ATOM     27  O   UNL     1      34.958 -19.790 -21.373  0.00  0.00    -0.471 OA
BRANCH  27  28
ATOM     28  C   UNL     1      35.941 -18.790 -21.635  0.00  0.00    +0.232 C 
BRANCH  28  29
ATOM     29  C   UNL     1      35.328 -17.708 -22.475  0.00  0.00    +0.021 C 
ATOM     30  C   UNL     1      35.303 -16.393 -22.008  0.00  0.00    -0.000 C 
ATOM     31  C   UNL     1      34.783 -18.016 -23.721  0.00  0.00    -0.000 C 
ATOM     32  C   UNL     1      34.733 -15.388 -22.788  0.00  0.00    +0.010 C 
ATOM     33  C   UNL     1      34.213 -17.011 -24.501  0.00  0.00    +0.010 C 
ATOM     34  C   UNL     1      34.188 -15.697 -24.035  0.00  0.00    +0.068 C 
BRANCH  34  36
ATOM     35  N   UNL     1      33.131 -13.828 -25.484  0.00  0.00    -0.191 NA
ATOM     36  C   UNL     1      33.605 -14.665 -24.834  0.00  0.00    +0.100 C 
ENDBRANCH  34  36
ENDBRANCH  28  29
ENDBRANCH  27  28
ENDBRANCH   9  27
TORSDOF 13
ENDMDL
MODEL 7
REMARK VINA RESULT:     -10.2      3.835     11.127
REMARK  Name = 24755471
REMARK  13 active torsions:
REMARK  status: ('A' for Active; 'I' for Inactive)
REMARK    1  A    between atoms: C_1  and  S_11
REMARK    2  A    between atoms: C_9  and  O_27
REMARK    3  A    between atoms: S_11  and  N_14
REMARK    4  A    between atoms: N_14  and  C_16
REMARK    5  A    between atoms: C_16  and  C_18
REMARK    6  A    between atoms: C_16  and  C_21
REMARK    7  A    between atoms: C_18  and  O_19
REMARK    8  A    between atoms: C_21  and  C_22
REMARK    9  A    between atoms: C_22  and  C_24
REMARK   10  A    between atoms: C_24  and  O_25
REMARK   11  A    between atoms: O_27  and  C_28
REMARK   12  A    between atoms: C_28  and  C_29
REMARK   13  A    between atoms: C_34  and  C_36
REMARK                            x       y       z     vdW  Elec       q    Type
REMARK                         _______ _______ _______ _____ _____    ______ ____
ROOT
ATOM      1  C   UNL     1      35.472 -19.816 -20.767  0.00  0.00    +0.122 C 
ATOM      2  C   UNL     1      34.233 -21.239 -19.231  0.00  0.00    +0.002 C 
ATOM      3  C   UNL     1      34.263 -20.346 -20.314  0.00  0.00    +0.020 C 
ATOM      4  C   UNL     1      35.446 -21.601 -18.598  0.00  0.00    +0.003 C 
ATOM      5  C   UNL     1      36.664 -20.171 -20.143  0.00  0.00    +0.020 C 
ATOM      6  C   UNL     1      36.653 -21.058 -19.066  0.00  0.00    +0.001 C 
ATOM      7  C   UNL     1      35.415 -22.494 -17.515  0.00  0.00    +0.037 C 
ATOM      8  C   UNL     1      33.024 -21.782 -18.762  0.00  0.00    +0.003 C 
ATOM      9  C   UNL     1      34.206 -23.024 -17.063  0.00  0.00    +0.139 C 
ATOM     10  C   UNL     1      33.013 -22.669 -17.685  0.00  0.00    +0.037 C 
ENDROOT
BRANCH   1  11
ATOM     11  S   UNL     1      35.488 -18.693 -22.132  0.00  0.00    +0.061 S 
ATOM     12  O   UNL     1      36.768 -18.821 -22.800  0.00  0.00    -0.153 OA
ATOM     13  O   UNL     1      34.256 -18.905 -22.867  0.00  0.00    -0.153 OA
BRANCH  11  14
ATOM     14  N   UNL     1      35.409 -17.187 -21.346  0.00  0.00    -0.170 NA
ATOM     15  H   UNL     1      36.363 -16.833 -21.293  0.00  0.00    +0.149 HD
BRANCH  14  16
ATOM     16  C   UNL     1      34.580 -16.101 -21.914  0.00  0.00    +0.174 C 
BRANCH  16  18
ATOM     17  O   UNL     1      34.210 -13.824 -21.144  0.00  0.00    -0.249 OA
ATOM     18  C   UNL     1      34.510 -14.986 -20.898  0.00  0.00    +0.330 C 
BRANCH  18  19
ATOM     19  O   UNL     1      34.803 -15.417 -19.644  0.00  0.00    -0.479 OA
ATOM     20  H   UNL     1      35.419 -14.946 -19.119  0.00  0.00    +0.295 HD
ENDBRANCH  18  19
ENDBRANCH  16  18
BRANCH  16  21
ATOM     21  C   UNL     1      35.117 -15.681 -23.287  0.00  0.00    +0.040 C 
BRANCH  21  22
ATOM     22  C   UNL     1      34.143 -15.796 -24.463  0.00  0.00    +0.111 C 
BRANCH  22  24
ATOM     23  O   UNL     1      33.498 -14.003 -25.948  0.00  0.00    -0.250 OA
ATOM     24  C   UNL     1      33.470 -14.496 -24.828  0.00  0.00    +0.314 C 
BRANCH  24  25
ATOM     25  O   UNL     1      32.841 -13.917 -23.775  0.00  0.00    -0.480 OA
ATOM     26  H   UNL     1      32.372 -14.447 -23.161  0.00  0.00    +0.295 HD
ENDBRANCH  24  25
ENDBRANCH  22  24
ENDBRANCH  21  22
ENDBRANCH  16  21
ENDBRANCH  14  16
ENDBRANCH  11  14
ENDBRANCH   1  11
BRANCH   9  27
ATOM     27  O   UNL     1      34.194 -23.890 -16.013  0.00  0.00    -0.471 OA
BRANCH  27  28
ATOM     28  C   UNL     1      34.830 -23.462 -14.810  0.00  0.00    +0.232 C 
BRANCH  28  29
ATOM     29  C   UNL     1      36.143 -24.174 -14.670  0.00  0.00    +0.021 C 
ATOM     30  C   UNL     1      37.332 -23.445 -14.638  0.00  0.00    -0.000 C 
ATOM     31  C   UNL     1      36.176 -25.566 -14.574  0.00  0.00    -0.000 C 
ATOM     32  C   UNL     1      38.552 -24.107 -14.508  0.00  0.00    +0.010 C 
ATOM     33  C   UNL     1      37.396 -26.228 -14.444  0.00  0.00    +0.010 C 
ATOM     34  C   UNL     1      38.585 -25.498 -14.412  0.00  0.00    +0.068 C 
BRANCH  34  36
ATOM     35  N   UNL     1      40.852 -26.727 -14.171  0.00  0.00    -0.191 NA
ATOM     36  C   UNL     1      39.836 -26.177 -14.278  0.00  0.00    +0.100 C 
ENDBRANCH  34  36
ENDBRANCH  28  29
ENDBRANCH  27  28
ENDBRANCH   9  27
TORSDOF 13
ENDMDL
MODEL 8
REMARK VINA RESULT:     -10.2      7.385     13.634
REMARK  Name = 24755471
REMARK  13 active torsions:
REMARK  status: ('A' for Active; 'I' for Inactive)
REMARK    1  A    between atoms: C_1  and  S_11
REMARK    2  A    between atoms: C_9  and  O_27
REMARK    3  A    between atoms: S_11  and  N_14
REMARK    4  A    between atoms: N_14  and  C_16
REMARK    5  A    between atoms: C_16  and  C_18
REMARK    6  A    between atoms: C_16  and  C_21
REMARK    7  A    between atoms: C_18  and  O_19
REMARK    8  A    between atoms: C_21  and  C_22
REMARK    9  A    between atoms: C_22  and  C_24
REMARK   10  A    between atoms: C_24  and  O_25
REMARK   11  A    between atoms: O_27  and  C_28
REMARK   12  A    between atoms: C_28  and  C_29
REMARK   13  A    between atoms: C_34  and  C_36
REMARK                            x       y       z     vdW  Elec       q    Type
REMARK                         _______ _______ _______ _____ _____    ______ ____
ROOT
ATOM      1  C   UNL     1      33.978 -12.813 -23.362  0.00  0.00    +0.122 C 
ATOM      2  C   UNL     1      34.288 -15.181 -23.828  0.00  0.00    +0.002 C 
ATOM      3  C   UNL     1      33.983 -13.880 -24.261  0.00  0.00    +0.020 C 
ATOM      4  C   UNL     1      34.593 -15.402 -22.464  0.00  0.00    +0.003 C 
ATOM      5  C   UNL     1      34.277 -13.031 -22.021  0.00  0.00    +0.020 C 
ATOM      6  C   UNL     1      34.583 -14.316 -21.573  0.00  0.00    +0.001 C 
ATOM      7  C   UNL     1      34.899 -16.703 -22.031  0.00  0.00    +0.037 C 
ATOM      8  C   UNL     1      34.298 -16.267 -24.719  0.00  0.00    +0.003 C 
ATOM      9  C   UNL     1      34.904 -17.769 -22.930  0.00  0.00    +0.139 C 
ATOM     10  C   UNL     1      34.604 -17.552 -24.271  0.00  0.00    +0.037 C 
ENDROOT
BRANCH   1  11
ATOM     11  S   UNL     1      33.590 -11.183 -23.928  0.00  0.00    +0.061 S 
ATOM     12  O   UNL     1      34.745 -10.340 -23.685  0.00  0.00    -0.153 OA
ATOM     13  O   UNL     1      33.054 -11.319 -25.269  0.00  0.00    -0.153 OA
BRANCH  11  14
ATOM     14  N   UNL     1      32.333 -10.737 -22.875  0.00  0.00    -0.170 NA
ATOM     15  H   UNL     1      32.232 -11.495 -22.200  0.00  0.00    +0.149 HD
BRANCH  14  16
ATOM     16  C   UNL     1      32.431  -9.482 -22.098  0.00  0.00    +0.174 C 
BRANCH  16  18
ATOM     17  O   UNL     1      32.872  -7.725 -23.721  0.00  0.00    -0.249 OA
ATOM     18  C   UNL     1      32.078  -8.336 -23.015  0.00  0.00    +0.330 C 
BRANCH  18  19
ATOM     19  O   UNL     1      30.750  -8.053 -22.994  0.00  0.00    -0.479 OA
ATOM     20  H   UNL     1      30.251  -8.085 -23.786  0.00  0.00    +0.295 HD
ENDBRANCH  18  19
ENDBRANCH  16  18
BRANCH  16  21
ATOM     21  C   UNL     1      31.576  -9.570 -20.828  0.00  0.00    +0.040 C 
BRANCH  21  22
ATOM     22  C   UNL     1      32.167  -8.939 -19.564  0.00  0.00    +0.111 C 
BRANCH  22  24
ATOM     23  O   UNL     1      31.655  -6.685 -20.266  0.00  0.00    -0.250 OA
ATOM     24  C   UNL     1      32.404  -7.454 -19.678  0.00  0.00    +0.314 C 
BRANCH  24  25
ATOM     25  O   UNL     1      33.551  -7.057 -19.070  0.00  0.00    -0.480 OA
ATOM     26  H   UNL     1      33.512  -6.537 -18.292  0.00  0.00    +0.295 HD
ENDBRANCH  24  25
ENDBRANCH  22  24
ENDBRANCH  21  22
ENDBRANCH  16  21
ENDBRANCH  14  16
ENDBRANCH  11  14
ENDBRANCH   1  11
BRANCH   9  27
ATOM     27  O   UNL     1      35.204 -19.024 -22.494  0.00  0.00    -0.471 OA
BRANCH  27  28
ATOM     28  C   UNL     1      35.935 -19.130 -21.274  0.00  0.00    +0.232 C 
BRANCH  28  29
ATOM     29  C   UNL     1      35.240 -20.104 -20.369  0.00  0.00    +0.021 C 
ATOM     30  C   UNL     1      35.987 -20.929 -19.528  0.00  0.00    -0.000 C 
ATOM     31  C   UNL     1      33.847 -20.184 -20.369  0.00  0.00    -0.000 C 
ATOM     32  C   UNL     1      35.341 -21.834 -18.687  0.00  0.00    +0.010 C 
ATOM     33  C   UNL     1      33.201 -21.089 -19.528  0.00  0.00    +0.010 C 
ATOM     34  C   UNL     1      33.948 -21.915 -18.687  0.00  0.00    +0.068 C 
BRANCH  34  36
ATOM     35  N   UNL     1      32.749 -23.595 -17.123  0.00  0.00    -0.191 NA
ATOM     36  C   UNL     1      33.286 -22.842 -17.824  0.00  0.00    +0.100 C 
ENDBRANCH  34  36
ENDBRANCH  28  29
ENDBRANCH  27  28
ENDBRANCH   9  27
TORSDOF 13
ENDMDL
MODEL 9
REMARK VINA RESULT:     -10.1      4.275     10.858
REMARK  Name = 24755471
REMARK  13 active torsions:
REMARK  status: ('A' for Active; 'I' for Inactive)
REMARK    1  A    between atoms: C_1  and  S_11
REMARK    2  A    between atoms: C_9  and  O_27
REMARK    3  A    between atoms: S_11  and  N_14
REMARK    4  A    between atoms: N_14  and  C_16
REMARK    5  A    between atoms: C_16  and  C_18
REMARK    6  A    between atoms: C_16  and  C_21
REMARK    7  A    between atoms: C_18  and  O_19
REMARK    8  A    between atoms: C_21  and  C_22
REMARK    9  A    between atoms: C_22  and  C_24
REMARK   10  A    between atoms: C_24  and  O_25
REMARK   11  A    between atoms: O_27  and  C_28
REMARK   12  A    between atoms: C_28  and  C_29
REMARK   13  A    between atoms: C_34  and  C_36
REMARK                            x       y       z     vdW  Elec       q    Type
REMARK                         _______ _______ _______ _____ _____    ______ ____
ROOT
ATOM      1  C   UNL     1      35.199 -19.677 -20.771  0.00  0.00    +0.122 C 
ATOM      2  C   UNL     1      35.082 -21.295 -18.957  0.00  0.00    +0.002 C 
ATOM      3  C   UNL     1      35.823 -20.418 -19.766  0.00  0.00    +0.020 C 
ATOM      4  C   UNL     1      33.689 -21.423 -19.170  0.00  0.00    +0.003 C 
ATOM      5  C   UNL     1      33.829 -19.804 -20.980  0.00  0.00    +0.020 C 
ATOM      6  C   UNL     1      33.077 -20.670 -20.186  0.00  0.00    +0.001 C 
ATOM      7  C   UNL     1      32.949 -22.300 -18.361  0.00  0.00    +0.037 C 
ATOM      8  C   UNL     1      35.695 -22.049 -17.941  0.00  0.00    +0.003 C 
ATOM      9  C   UNL     1      33.573 -23.040 -17.357  0.00  0.00    +0.139 C 
ATOM     10  C   UNL     1      34.943 -22.915 -17.147  0.00  0.00    +0.037 C 
ENDROOT
BRANCH   1  11
ATOM     11  S   UNL     1      36.150 -18.579 -21.778  0.00  0.00    +0.061 S 
ATOM     12  O   UNL     1      36.941 -17.739 -20.899  0.00  0.00    -0.153 OA
ATOM     13  O   UNL     1      36.797 -19.389 -22.792  0.00  0.00    -0.153 OA
BRANCH  11  14
ATOM     14  N   UNL     1      34.937 -17.641 -22.513  0.00  0.00    -0.170 NA
ATOM     15  H   UNL     1      35.036 -16.694 -22.149  0.00  0.00    +0.149 HD
BRANCH  14  16
ATOM     16  C   UNL     1      34.883 -17.529 -23.987  0.00  0.00    +0.174 C 
BRANCH  16  18
ATOM     17  O   UNL     1      32.772 -18.265 -24.945  0.00  0.00    -0.249 OA
ATOM     18  C   UNL     1      33.879 -18.536 -24.497  0.00  0.00    +0.330 C 
BRANCH  18  19
ATOM     19  O   UNL     1      34.348 -19.808 -24.423  0.00  0.00    -0.479 OA
ATOM     20  H   UNL     1      34.925 -20.056 -23.728  0.00  0.00    +0.295 HD
ENDBRANCH  18  19
ENDBRANCH  16  18
BRANCH  16  21
ATOM     21  C   UNL     1      34.602 -16.081 -24.404  0.00  0.00    +0.040 C 
BRANCH  21  22
ATOM     22  C   UNL     1      34.325 -15.088 -23.272  0.00  0.00    +0.111 C 
BRANCH  22  24
ATOM     23  O   UNL     1      33.111 -13.027 -22.932  0.00  0.00    -0.250 OA
ATOM     24  C   UNL     1      33.355 -13.995 -23.642  0.00  0.00    +0.314 C 
BRANCH  24  25
ATOM     25  O   UNL     1      32.761 -14.205 -24.844  0.00  0.00    -0.480 OA
ATOM     26  H   UNL     1      32.331 -15.019 -25.018  0.00  0.00    +0.295 HD
ENDBRANCH  24  25
ENDBRANCH  22  24
ENDBRANCH  21  22
ENDBRANCH  16  21
ENDBRANCH  14  16
ENDBRANCH  11  14
ENDBRANCH   1  11
BRANCH   9  27
ATOM     27  O   UNL     1      32.841 -23.885 -16.580  0.00  0.00    -0.471 OA
BRANCH  27  28
ATOM     28  C   UNL     1      32.452 -23.410 -15.292  0.00  0.00    +0.232 C 
BRANCH  28  29
ATOM     29  C   UNL     1      30.975 -23.146 -15.292  0.00  0.00    +0.021 C 
ATOM     30  C   UNL     1      30.354 -22.661 -14.141  0.00  0.00    -0.000 C 
ATOM     31  C   UNL     1      30.224 -23.385 -16.442  0.00  0.00    -0.000 C 
ATOM     32  C   UNL     1      28.981 -22.416 -14.141  0.00  0.00    +0.010 C 
ATOM     33  C   UNL     1      28.851 -23.140 -16.442  0.00  0.00    +0.010 C 
ATOM     34  C   UNL     1      28.230 -22.656 -15.291  0.00  0.00    +0.068 C 
BRANCH  34  36
ATOM     35  N   UNL     1      25.680 -22.198 -15.290  0.00  0.00    -0.191 NA
ATOM     36  C   UNL     1      26.823 -22.403 -15.291  0.00  0.00    +0.100 C 
ENDBRANCH  34  36
ENDBRANCH  28  29
ENDBRANCH  27  28
ENDBRANCH   9  27
TORSDOF 13
ENDMDL
