MODEL 1
REMARK VINA RESULT:     -13.2      0.000      0.000
REMARK  Name = 6105620
REMARK  4 active torsions:
REMARK  status: ('A' for Active; 'I' for Inactive)
REMARK    1  A    between atoms: N_2  and  C_7
REMARK    2  A    between atoms: N_3  and  C_21
REMARK    3  A    between atoms: C_9  and  C_29
REMARK    4  A    between atoms: C_30  and  C_31
REMARK                            x       y       z     vdW  Elec       q    Type
REMARK                         _______ _______ _______ _____ _____    ______ ____
ROOT
ATOM      1  N   UNL     1      35.724 -22.664 -16.878  0.00  0.00    -0.086 NA
ATOM      2  N   UNL     1      34.305 -22.676 -17.218  0.00  0.00    -0.132 N 
ATOM      3  N   UNL     1      36.348 -21.836 -17.854  0.00  0.00    -0.240 N 
ATOM      4  N   UNL     1      34.128 -21.966 -18.399  0.00  0.00    -0.146 NA
ATOM      5  C   UNL     1      35.328 -21.509 -18.720  0.00  0.00    +0.162 C 
ATOM      6  H   UNL     1      37.293 -21.562 -17.900  0.00  0.00    +0.170 HD
ENDROOT
BRANCH   2  11
ATOM      7  O   UNL     1      33.449 -24.723 -12.622  0.00  0.00    -0.220 OA
ATOM      8  O   UNL     1      28.670 -24.056 -14.557  0.00  0.00    -0.220 OA
ATOM      9  N   UNL     1      31.186 -24.911 -12.405  0.00  0.00    -0.062 NA
ATOM     10  N   UNL     1      30.039 -24.751 -12.869  0.00  0.00    -0.062 NA
ATOM     11  C   UNL     1      33.179 -23.053 -16.458  0.00  0.00    +0.089 C 
ATOM     12  C   UNL     1      33.330 -23.609 -15.175  0.00  0.00    +0.030 C 
ATOM     13  C   UNL     1      31.878 -22.880 -16.965  0.00  0.00    +0.019 C 
ATOM     14  C   UNL     1      32.208 -23.980 -14.429  0.00  0.00    +0.097 C 
ATOM     15  C   UNL     1      30.938 -23.803 -14.943  0.00  0.00    +0.096 C 
ATOM     16  C   UNL     1      30.762 -23.252 -16.216  0.00  0.00    +0.014 C 
ATOM     17  C   UNL     1      32.325 -24.563 -13.088  0.00  0.00    +0.174 C 
ATOM     18  C   UNL     1      29.803 -24.211 -14.109  0.00  0.00    +0.174 C 
ENDBRANCH   2  11
BRANCH   1  21
ATOM     19  S   UNL     1      37.985 -22.886 -15.463  0.00  0.00    -0.074 S 
ATOM     20  N   UNL     1      35.899 -24.471 -15.385  0.00  0.00    -0.310 N 
ATOM     21  C   UNL     1      36.371 -23.369 -15.977  0.00  0.00    +0.222 C 
ATOM     22  C   UNL     1      36.777 -25.000 -14.494  0.00  0.00    +0.052 C 
ATOM     23  C   UNL     1      37.979 -24.293 -14.378  0.00  0.00    +0.041 C 
ATOM     24  C   UNL     1      36.553 -26.139 -13.735  0.00  0.00    +0.015 C 
ATOM     25  C   UNL     1      38.977 -24.706 -13.510  0.00  0.00    +0.007 C 
ATOM     26  C   UNL     1      37.551 -26.565 -12.856  0.00  0.00    +0.001 C 
ATOM     27  C   UNL     1      38.755 -25.853 -12.745  0.00  0.00    +0.001 C 
ATOM     28  H   UNL     1      35.012 -24.857 -15.574  0.00  0.00    +0.149 HD
ENDBRANCH   1  21
BRANCH   5  29
ATOM     29  C   UNL     1      35.527 -20.709 -19.937  0.00  0.00    +0.037 C 
ATOM     30  C   UNL     1      34.588 -19.901 -20.402  0.00  0.00    +0.003 C 
BRANCH  30  31
ATOM     31  C   UNL     1      34.737 -19.087 -21.621  0.00  0.00    +0.000 C 
ATOM     32  C   UNL     1      34.198 -19.546 -22.813  0.00  0.00    +0.000 C 
ATOM     33  C   UNL     1      35.414 -17.881 -21.553  0.00  0.00    +0.000 C 
ATOM     34  C   UNL     1      34.339 -18.775 -23.967  0.00  0.00    +0.000 C 
ATOM     35  C   UNL     1      35.555 -17.110 -22.708  0.00  0.00    +0.000 C 
ATOM     36  C   UNL     1      35.017 -17.557 -23.915  0.00  0.00    +0.000 C 
ENDBRANCH  30  31
ENDBRANCH   5  29
TORSDOF 4
ENDMDL
MODEL 2
REMARK VINA RESULT:     -12.5      1.363      2.226
REMARK  Name = 6105620
REMARK  4 active torsions:
REMARK  status: ('A' for Active; 'I' for Inactive)
REMARK    1  A    between atoms: N_2  and  C_7
REMARK    2  A    between atoms: N_3  and  C_21
REMARK    3  A    between atoms: C_9  and  C_29
REMARK    4  A    between atoms: C_30  and  C_31
REMARK                            x       y       z     vdW  Elec       q    Type
REMARK                         _______ _______ _______ _____ _____    ______ ____
ROOT
ATOM      1  N   UNL     1      35.938 -22.719 -16.384  0.00  0.00    -0.086 NA
ATOM      2  N   UNL     1      34.543 -22.903 -16.771  0.00  0.00    -0.132 N 
ATOM      3  N   UNL     1      36.509 -21.882 -17.385  0.00  0.00    -0.240 N 
ATOM      4  N   UNL     1      34.339 -22.281 -17.996  0.00  0.00    -0.146 NA
ATOM      5  C   UNL     1      35.496 -21.715 -18.302  0.00  0.00    +0.162 C 
ATOM      6  H   UNL     1      37.420 -21.510 -17.414  0.00  0.00    +0.170 HD
ENDROOT
BRANCH   2  11
ATOM      7  O   UNL     1      29.469 -22.384 -16.983  0.00  0.00    -0.220 OA
ATOM      8  O   UNL     1      30.200 -25.433 -12.837  0.00  0.00    -0.220 OA
ATOM      9  N   UNL     1      28.620 -23.578 -15.235  0.00  0.00    -0.062 NA
ATOM     10  N   UNL     1      28.796 -24.309 -14.240  0.00  0.00    -0.062 NA
ATOM     11  C   UNL     1      33.434 -23.358 -16.029  0.00  0.00    +0.089 C 
ATOM     12  C   UNL     1      32.125 -22.998 -16.396  0.00  0.00    +0.030 C 
ATOM     13  C   UNL     1      33.612 -24.183 -14.904  0.00  0.00    +0.019 C 
ATOM     14  C   UNL     1      31.032 -23.455 -15.654  0.00  0.00    +0.097 C 
ATOM     15  C   UNL     1      31.226 -24.265 -14.551  0.00  0.00    +0.096 C 
ATOM     16  C   UNL     1      32.518 -24.637 -14.166  0.00  0.00    +0.014 C 
ATOM     17  C   UNL     1      29.653 -23.102 -16.004  0.00  0.00    +0.174 C 
ATOM     18  C   UNL     1      30.038 -24.711 -13.816  0.00  0.00    +0.174 C 
ENDBRANCH   2  11
BRANCH   1  21
ATOM     19  S   UNL     1      36.194 -23.020 -13.737  0.00  0.00    -0.074 S 
ATOM     20  N   UNL     1      37.656 -24.124 -15.611  0.00  0.00    -0.310 N 
ATOM     21  C   UNL     1      36.620 -23.300 -15.422  0.00  0.00    +0.222 C 
ATOM     22  C   UNL     1      38.175 -24.583 -14.443  0.00  0.00    +0.052 C 
ATOM     23  C   UNL     1      37.529 -24.107 -13.296  0.00  0.00    +0.041 C 
ATOM     24  C   UNL     1      39.253 -25.450 -14.336  0.00  0.00    +0.015 C 
ATOM     25  C   UNL     1      37.941 -24.484 -12.029  0.00  0.00    +0.007 C 
ATOM     26  C   UNL     1      39.676 -25.837 -13.063  0.00  0.00    +0.001 C 
ATOM     27  C   UNL     1      39.025 -25.356 -11.917  0.00  0.00    +0.001 C 
ATOM     28  H   UNL     1      38.004 -24.371 -16.499  0.00  0.00    +0.149 HD
ENDBRANCH   1  21
BRANCH   5  29
ATOM     29  C   UNL     1      35.657 -20.964 -19.556  0.00  0.00    +0.037 C 
ATOM     30  C   UNL     1      34.708 -20.168 -20.019  0.00  0.00    +0.003 C 
BRANCH  30  31
ATOM     31  C   UNL     1      34.819 -19.404 -21.274  0.00  0.00    +0.000 C 
ATOM     32  C   UNL     1      35.601 -18.260 -21.305  0.00  0.00    +0.000 C 
ATOM     33  C   UNL     1      34.139 -19.842 -22.398  0.00  0.00    +0.000 C 
ATOM     34  C   UNL     1      35.707 -17.536 -22.493  0.00  0.00    +0.000 C 
ATOM     35  C   UNL     1      34.245 -19.119 -23.587  0.00  0.00    +0.000 C 
ATOM     36  C   UNL     1      35.029 -17.966 -23.634  0.00  0.00    +0.000 C 
ENDBRANCH  30  31
ENDBRANCH   5  29
TORSDOF 4
ENDMDL
MODEL 3
REMARK VINA RESULT:     -12.4      2.361      5.483
REMARK  Name = 6105620
REMARK  4 active torsions:
REMARK  status: ('A' for Active; 'I' for Inactive)
REMARK    1  A    between atoms: N_2  and  C_7
REMARK    2  A    between atoms: N_3  and  C_21
REMARK    3  A    between atoms: C_9  and  C_29
REMARK    4  A    between atoms: C_30  and  C_31
REMARK                            x       y       z     vdW  Elec       q    Type
REMARK                         _______ _______ _______ _____ _____    ______ ____
ROOT
ATOM      1  N   UNL     1      33.756 -22.760 -17.121  0.00  0.00    -0.086 NA
ATOM      2  N   UNL     1      35.140 -22.510 -16.732  0.00  0.00    -0.132 N 
ATOM      3  N   UNL     1      33.622 -22.228 -18.435  0.00  0.00    -0.240 N 
ATOM      4  N   UNL     1      35.757 -21.777 -17.738  0.00  0.00    -0.146 NA
ATOM      5  C   UNL     1      34.843 -21.642 -18.687  0.00  0.00    +0.162 C 
ATOM      6  H   UNL     1      32.837 -22.269 -19.028  0.00  0.00    +0.170 HD
ENDROOT
BRANCH   2  11
ATOM      7  O   UNL     1      36.608 -27.188 -15.313  0.00  0.00    -0.220 OA
ATOM      8  O   UNL     1      38.806 -24.101 -11.755  0.00  0.00    -0.220 OA
ATOM      9  N   UNL     1      37.890 -26.929 -13.445  0.00  0.00    -0.062 NA
ATOM     10  N   UNL     1      38.418 -26.188 -12.591  0.00  0.00    -0.062 NA
ATOM     11  C   UNL     1      35.922 -23.071 -15.701  0.00  0.00    +0.089 C 
ATOM     12  C   UNL     1      36.117 -24.461 -15.620  0.00  0.00    +0.030 C 
ATOM     13  C   UNL     1      36.524 -22.251 -14.729  0.00  0.00    +0.019 C 
ATOM     14  C   UNL     1      36.894 -25.007 -14.595  0.00  0.00    +0.097 C 
ATOM     15  C   UNL     1      37.477 -24.187 -13.648  0.00  0.00    +0.096 C 
ATOM     16  C   UNL     1      37.298 -22.802 -13.707  0.00  0.00    +0.014 C 
ATOM     17  C   UNL     1      37.121 -26.451 -14.477  0.00  0.00    +0.174 C 
ATOM     18  C   UNL     1      38.281 -24.822 -12.598  0.00  0.00    +0.174 C 
ENDBRANCH   2  11
BRANCH   1  21
ATOM     19  S   UNL     1      33.047 -23.850 -14.782  0.00  0.00    -0.074 S 
ATOM     20  N   UNL     1      31.483 -23.268 -16.802  0.00  0.00    -0.310 N 
ATOM     21  C   UNL     1      32.758 -23.224 -16.402  0.00  0.00    +0.222 C 
ATOM     22  C   UNL     1      30.660 -23.796 -15.860  0.00  0.00    +0.052 C 
ATOM     23  C   UNL     1      31.304 -24.180 -14.679  0.00  0.00    +0.041 C 
ATOM     24  C   UNL     1      29.290 -23.962 -16.002  0.00  0.00    +0.015 C 
ATOM     25  C   UNL     1      30.601 -24.735 -13.622  0.00  0.00    +0.007 C 
ATOM     26  C   UNL     1      28.571 -24.521 -14.943  0.00  0.00    +0.001 C 
ATOM     27  C   UNL     1      29.222 -24.905 -13.762  0.00  0.00    +0.001 C 
ATOM     28  H   UNL     1      31.175 -22.952 -17.683  0.00  0.00    +0.149 HD
ENDBRANCH   1  21
BRANCH   5  29
ATOM     29  C   UNL     1      35.145 -20.901 -19.920  0.00  0.00    +0.037 C 
ATOM     30  C   UNL     1      34.368 -19.922 -20.354  0.00  0.00    +0.003 C 
BRANCH  30  31
ATOM     31  C   UNL     1      34.624 -19.159 -21.587  0.00  0.00    +0.000 C 
ATOM     32  C   UNL     1      35.408 -18.017 -21.529  0.00  0.00    +0.000 C 
ATOM     33  C   UNL     1      34.075 -19.595 -22.782  0.00  0.00    +0.000 C 
ATOM     34  C   UNL     1      35.650 -17.294 -22.697  0.00  0.00    +0.000 C 
ATOM     35  C   UNL     1      34.317 -18.872 -23.950  0.00  0.00    +0.000 C 
ATOM     36  C   UNL     1      35.104 -17.722 -23.908  0.00  0.00    +0.000 C 
ENDBRANCH  30  31
ENDBRANCH   5  29
TORSDOF 4
ENDMDL
MODEL 4
REMARK VINA RESULT:     -12.4      2.570      5.585
REMARK  Name = 6105620
REMARK  4 active torsions:
REMARK  status: ('A' for Active; 'I' for Inactive)
REMARK    1  A    between atoms: N_2  and  C_7
REMARK    2  A    between atoms: N_3  and  C_21
REMARK    3  A    between atoms: C_9  and  C_29
REMARK    4  A    between atoms: C_30  and  C_31
REMARK                            x       y       z     vdW  Elec       q    Type
REMARK                         _______ _______ _______ _____ _____    ______ ____
ROOT
ATOM      1  N   UNL     1      33.817 -23.197 -16.507  0.00  0.00    -0.086 NA
ATOM      2  N   UNL     1      35.185 -23.086 -16.009  0.00  0.00    -0.132 N 
ATOM      3  N   UNL     1      33.826 -22.593 -17.797  0.00  0.00    -0.240 N 
ATOM      4  N   UNL     1      35.932 -22.361 -16.929  0.00  0.00    -0.146 NA
ATOM      5  C   UNL     1      35.107 -22.103 -17.931  0.00  0.00    +0.162 C 
ATOM      6  H   UNL     1      33.086 -22.537 -18.445  0.00  0.00    +0.170 HD
ENDROOT
BRANCH   2  11
ATOM      7  O   UNL     1      37.696 -21.784 -11.760  0.00  0.00    -0.220 OA
ATOM      8  O   UNL     1      37.878 -26.979 -11.729  0.00  0.00    -0.220 OA
ATOM      9  N   UNL     1      38.357 -23.731 -10.774  0.00  0.00    -0.062 NA
ATOM     10  N   UNL     1      38.402 -24.978 -10.767  0.00  0.00    -0.062 NA
ATOM     11  C   UNL     1      35.839 -23.760 -14.958  0.00  0.00    +0.089 C 
ATOM     12  C   UNL     1      36.445 -23.044 -13.910  0.00  0.00    +0.030 C 
ATOM     13  C   UNL     1      35.898 -25.165 -14.933  0.00  0.00    +0.019 C 
ATOM     14  C   UNL     1      37.091 -23.722 -12.873  0.00  0.00    +0.097 C 
ATOM     15  C   UNL     1      37.140 -25.102 -12.864  0.00  0.00    +0.096 C 
ATOM     16  C   UNL     1      36.544 -25.837 -13.894  0.00  0.00    +0.014 C 
ATOM     17  C   UNL     1      37.735 -23.011 -11.763  0.00  0.00    +0.174 C 
ATOM     18  C   UNL     1      37.832 -25.753 -11.746  0.00  0.00    +0.174 C 
ENDBRANCH   2  11
BRANCH   1  21
ATOM     19  S   UNL     1      32.832 -24.212 -14.235  0.00  0.00    -0.074 S 
ATOM     20  N   UNL     1      31.505 -23.609 -16.413  0.00  0.00    -0.310 N 
ATOM     21  C   UNL     1      32.734 -23.607 -15.886  0.00  0.00    +0.222 C 
ATOM     22  C   UNL     1      30.570 -24.086 -15.551  0.00  0.00    +0.052 C 
ATOM     23  C   UNL     1      31.076 -24.471 -14.305  0.00  0.00    +0.041 C 
ATOM     24  C   UNL     1      29.216 -24.202 -15.829  0.00  0.00    +0.015 C 
ATOM     25  C   UNL     1      30.248 -24.977 -13.316  0.00  0.00    +0.007 C 
ATOM     26  C   UNL     1      28.371 -24.710 -14.840  0.00  0.00    +0.001 C 
ATOM     27  C   UNL     1      28.884 -25.096 -13.593  0.00  0.00    +0.001 C 
ATOM     28  H   UNL     1      31.300 -23.299 -17.326  0.00  0.00    +0.149 HD
ENDBRANCH   1  21
BRANCH   5  29
ATOM     29  C   UNL     1      35.559 -21.332 -19.098  0.00  0.00    +0.037 C 
ATOM     30  C   UNL     1      34.737 -20.551 -19.779  0.00  0.00    +0.003 C 
BRANCH  30  31
ATOM     31  C   UNL     1      35.142 -19.769 -20.960  0.00  0.00    +0.000 C 
ATOM     32  C   UNL     1      36.371 -19.128 -20.962  0.00  0.00    +0.000 C 
ATOM     33  C   UNL     1      34.286 -19.687 -22.046  0.00  0.00    +0.000 C 
ATOM     34  C   UNL     1      36.754 -18.387 -22.080  0.00  0.00    +0.000 C 
ATOM     35  C   UNL     1      34.669 -18.946 -23.165  0.00  0.00    +0.000 C 
ATOM     36  C   UNL     1      35.903 -18.296 -23.181  0.00  0.00    +0.000 C 
ENDBRANCH  30  31
ENDBRANCH   5  29
TORSDOF 4
ENDMDL
