MODEL 1
REMARK VINA RESULT:     -13.0      0.000      0.000
REMARK  Name = 208951
REMARK  4 active torsions:
REMARK  status: ('A' for Active; 'I' for Inactive)
REMARK    1  A    between atoms: N_1  and  C_19
REMARK    2  A    between atoms: N_2  and  C_11
REMARK    3  A    between atoms: C_19  and  C_20
REMARK    4  A    between atoms: C_23  and  C_26
REMARK                            x       y       z     vdW  Elec       q    Type
REMARK                         _______ _______ _______ _____ _____    ______ ____
ROOT
ATOM      1  N   UNL     1      34.816 -16.525 -23.593  0.00  0.00    +0.392 N 
ATOM      2  N   UNL     1      33.530 -14.067 -22.909  0.00  0.00    -0.309 N 
ATOM      3  C   UNL     1      34.633 -16.148 -22.186  0.00  0.00    -0.055 C 
ATOM      4  C   UNL     1      33.690 -16.029 -24.393  0.00  0.00    -0.055 C 
ATOM      5  C   UNL     1      34.560 -14.627 -22.028  0.00  0.00    +0.068 C 
ATOM      6  C   UNL     1      33.586 -14.504 -24.310  0.00  0.00    +0.068 C 
ATOM      7  H   UNL     1      35.677 -16.100 -23.938  0.00  0.00    -0.079 HD
ENDROOT
BRANCH   2  11
ATOM      8  O   UNL     1      34.436 -11.595 -24.229  0.00  0.00    -0.406 OA
ATOM      9  O   UNL     1      35.268  -9.758 -25.362  0.00  0.00    -0.223 OA
ATOM     10  N   UNL     1      33.563  -9.514 -23.790  0.00  0.00    -0.287 N 
ATOM     11  C   UNL     1      32.994 -12.804 -22.636  0.00  0.00    +0.084 C 
ATOM     12  C   UNL     1      33.436 -11.650 -23.270  0.00  0.00    +0.179 A 
ATOM     13  C   UNL     1      31.962 -12.627 -21.691  0.00  0.00    +0.018 C 
ATOM     14  C   UNL     1      32.900 -10.411 -22.994  0.00  0.00    +0.098 A 
ATOM     15  C   UNL     1      31.421 -11.354 -21.416  0.00  0.00    +0.003 C 
ATOM     16  C   UNL     1      31.893 -10.218 -22.076  0.00  0.00    +0.020 C 
ATOM     17  C   UNL     1      34.490 -10.223 -24.537  0.00  0.00    +0.419 A 
ATOM     18  H   UNL     1      33.409  -8.544 -23.826  0.00  0.00    +0.172 HD
ENDBRANCH   2  11
BRANCH   1  19
ATOM     19  C   UNL     1      34.938 -17.976 -23.723  0.00  0.00    -0.050 C 
BRANCH  19  20
ATOM     20  C   UNL     1      35.580 -18.578 -22.503  0.00  0.00    -0.043 C 
ATOM     21  C   UNL     1      34.832 -19.400 -21.671  0.00  0.00    -0.006 C 
ATOM     22  C   UNL     1      36.912 -18.304 -22.225  0.00  0.00    -0.006 C 
ATOM     23  C   UNL     1      35.428 -19.959 -20.541  0.00  0.00    -0.000 C 
ATOM     24  C   UNL     1      37.508 -18.862 -21.095  0.00  0.00    -0.000 C 
ATOM     25  C   UNL     1      36.766 -19.689 -20.253  0.00  0.00    -0.000 C 
BRANCH  23  26
ATOM     26  C   UNL     1      34.659 -20.819 -19.667  0.00  0.00    -0.000 C 
ATOM     27  C   UNL     1      35.311 -21.708 -18.813  0.00  0.00    -0.000 C 
ATOM     28  C   UNL     1      33.265 -20.758 -19.678  0.00  0.00    -0.000 C 
ATOM     29  C   UNL     1      34.570 -22.537 -17.970  0.00  0.00    -0.000 C 
ATOM     30  C   UNL     1      32.524 -21.587 -18.836  0.00  0.00    -0.000 C 
ATOM     31  C   UNL     1      33.177 -22.476 -17.982  0.00  0.00    +0.000 C 
ENDBRANCH  23  26
ENDBRANCH  19  20
ENDBRANCH   1  19
TORSDOF 4
ENDMDL
MODEL 2
REMARK VINA RESULT:     -11.8      1.424      2.188
REMARK  Name = 208951
REMARK  4 active torsions:
REMARK  status: ('A' for Active; 'I' for Inactive)
REMARK    1  A    between atoms: N_1  and  C_19
REMARK    2  A    between atoms: N_2  and  C_11
REMARK    3  A    between atoms: C_19  and  C_20
REMARK    4  A    between atoms: C_23  and  C_26
REMARK                            x       y       z     vdW  Elec       q    Type
REMARK                         _______ _______ _______ _____ _____    ______ ____
ROOT
ATOM      1  N   UNL     1      34.564 -16.295 -23.761  0.00  0.00    +0.392 N 
ATOM      2  N   UNL     1      33.938 -13.509 -23.683  0.00  0.00    -0.309 N 
ATOM      3  C   UNL     1      34.341 -15.619 -22.478  0.00  0.00    -0.055 C 
ATOM      4  C   UNL     1      33.712 -15.697 -24.796  0.00  0.00    -0.055 C 
ATOM      5  C   UNL     1      34.673 -14.129 -22.575  0.00  0.00    +0.068 C 
ATOM      6  C   UNL     1      34.024 -14.208 -24.972  0.00  0.00    +0.068 C 
ATOM      7  H   UNL     1      35.541 -16.176 -24.031  0.00  0.00    -0.079 HD
ENDROOT
BRANCH   2  11
ATOM      8  O   UNL     1      32.051 -12.110 -21.907  0.00  0.00    -0.406 OA
ATOM      9  O   UNL     1      30.526 -11.176 -20.439  0.00  0.00    -0.223 OA
ATOM     10  N   UNL     1      31.724  -9.835 -21.922  0.00  0.00    -0.287 N 
ATOM     11  C   UNL     1      33.744 -12.123 -23.699  0.00  0.00    +0.084 C 
ATOM     12  C   UNL     1      32.848 -11.483 -22.852  0.00  0.00    +0.179 A 
ATOM     13  C   UNL     1      34.455 -11.287 -24.584  0.00  0.00    +0.018 C 
ATOM     14  C   UNL     1      32.666 -10.117 -22.876  0.00  0.00    +0.098 A 
ATOM     15  C   UNL     1      34.260  -9.891 -24.601  0.00  0.00    +0.003 C 
ATOM     16  C   UNL     1      33.350  -9.285 -23.732  0.00  0.00    +0.020 C 
ATOM     17  C   UNL     1      31.350 -11.032 -21.335  0.00  0.00    +0.419 A 
ATOM     18  H   UNL     1      31.376  -8.943 -21.695  0.00  0.00    +0.172 HD
ENDBRANCH   2  11
BRANCH   1  19
ATOM     19  C   UNL     1      34.296 -17.727 -23.641  0.00  0.00    -0.050 C 
BRANCH  19  20
ATOM     20  C   UNL     1      35.150 -18.351 -22.571  0.00  0.00    -0.043 C 
ATOM     21  C   UNL     1      34.578 -19.240 -21.671  0.00  0.00    -0.006 C 
ATOM     22  C   UNL     1      36.499 -18.029 -22.498  0.00  0.00    -0.006 C 
ATOM     23  C   UNL     1      35.372 -19.819 -20.679  0.00  0.00    -0.000 C 
ATOM     24  C   UNL     1      37.291 -18.608 -21.507  0.00  0.00    -0.000 C 
ATOM     25  C   UNL     1      36.728 -19.502 -20.598  0.00  0.00    -0.000 C 
BRANCH  23  26
ATOM     26  C   UNL     1      34.788 -20.748 -19.736  0.00  0.00    -0.000 C 
ATOM     27  C   UNL     1      35.611 -21.505 -18.902  0.00  0.00    -0.000 C 
ATOM     28  C   UNL     1      33.401 -20.887 -19.661  0.00  0.00    -0.000 C 
ATOM     29  C   UNL     1      35.048 -22.401 -17.993  0.00  0.00    -0.000 C 
ATOM     30  C   UNL     1      32.839 -21.783 -18.752  0.00  0.00    -0.000 C 
ATOM     31  C   UNL     1      33.663 -22.540 -17.918  0.00  0.00    +0.000 C 
ENDBRANCH  23  26
ENDBRANCH  19  20
ENDBRANCH   1  19
TORSDOF 4
ENDMDL
MODEL 3
REMARK VINA RESULT:     -11.6      6.860     12.098
REMARK  Name = 208951
REMARK  4 active torsions:
REMARK  status: ('A' for Active; 'I' for Inactive)
REMARK    1  A    between atoms: N_1  and  C_19
REMARK    2  A    between atoms: N_2  and  C_11
REMARK    3  A    between atoms: C_19  and  C_20
REMARK    4  A    between atoms: C_23  and  C_26
REMARK                            x       y       z     vdW  Elec       q    Type
REMARK                         _______ _______ _______ _____ _____    ______ ____
ROOT
ATOM      1  N   UNL     1      34.404 -22.256 -17.530  0.00  0.00    +0.392 N 
ATOM      2  N   UNL     1      35.245 -23.598 -15.153  0.00  0.00    -0.309 N 
ATOM      3  C   UNL     1      35.831 -22.475 -17.265  0.00  0.00    -0.055 C 
ATOM      4  C   UNL     1      33.619 -23.373 -16.991  0.00  0.00    -0.055 C 
ATOM      5  C   UNL     1      36.103 -22.577 -15.763  0.00  0.00    +0.068 C 
ATOM      6  C   UNL     1      33.816 -23.505 -15.479  0.00  0.00    +0.068 C 
ATOM      7  H   UNL     1      34.112 -21.395 -17.067  0.00  0.00    -0.079 HD
ENDROOT
BRANCH   2  11
ATOM      8  O   UNL     1      37.334 -25.651 -14.849  0.00  0.00    -0.406 OA
ATOM      9  O   UNL     1      39.002 -27.254 -14.794  0.00  0.00    -0.223 OA
ATOM     10  N   UNL     1      37.932 -26.583 -12.835  0.00  0.00    -0.287 N 
ATOM     11  C   UNL     1      35.602 -24.162 -13.922  0.00  0.00    +0.084 C 
ATOM     12  C   UNL     1      36.592 -25.129 -13.801  0.00  0.00    +0.179 A 
ATOM     13  C   UNL     1      34.973 -23.774 -12.721  0.00  0.00    +0.018 C 
ATOM     14  C   UNL     1      36.936 -25.676 -12.584  0.00  0.00    +0.098 A 
ATOM     15  C   UNL     1      35.333 -24.342 -11.482  0.00  0.00    +0.003 C 
ATOM     16  C   UNL     1      36.334 -25.312 -11.402  0.00  0.00    +0.020 C 
ATOM     17  C   UNL     1      38.176 -26.572 -14.198  0.00  0.00    +0.419 A 
ATOM     18  H   UNL     1      38.391 -27.141 -12.167  0.00  0.00    +0.172 HD
ENDBRANCH   2  11
BRANCH   1  19
ATOM     19  C   UNL     1      34.166 -22.106 -18.965  0.00  0.00    -0.050 C 
BRANCH  19  20
ATOM     20  C   UNL     1      35.103 -21.096 -19.567  0.00  0.00    -0.043 C 
ATOM     21  C   UNL     1      34.669 -20.303 -20.622  0.00  0.00    -0.006 C 
ATOM     22  C   UNL     1      36.389 -20.968 -19.061  0.00  0.00    -0.006 C 
ATOM     23  C   UNL     1      35.539 -19.366 -21.180  0.00  0.00    -0.000 C 
ATOM     24  C   UNL     1      37.258 -20.031 -19.619  0.00  0.00    -0.000 C 
ATOM     25  C   UNL     1      36.833 -19.230 -20.678  0.00  0.00    -0.000 C 
BRANCH  23  26
ATOM     26  C   UNL     1      35.097 -18.533 -22.278  0.00  0.00    -0.000 C 
ATOM     27  C   UNL     1      34.405 -19.099 -23.348  0.00  0.00    -0.000 C 
ATOM     28  C   UNL     1      35.364 -17.163 -22.266  0.00  0.00    -0.000 C 
ATOM     29  C   UNL     1      33.979 -18.296 -24.407  0.00  0.00    -0.000 C 
ATOM     30  C   UNL     1      34.939 -16.361 -23.324  0.00  0.00    -0.000 C 
ATOM     31  C   UNL     1      34.246 -16.928 -24.395  0.00  0.00    +0.000 C 
ENDBRANCH  23  26
ENDBRANCH  19  20
ENDBRANCH   1  19
TORSDOF 4
ENDMDL
MODEL 4
REMARK VINA RESULT:     -11.5      5.012     10.321
REMARK  Name = 208951
REMARK  4 active torsions:
REMARK  status: ('A' for Active; 'I' for Inactive)
REMARK    1  A    between atoms: N_1  and  C_19
REMARK    2  A    between atoms: N_2  and  C_11
REMARK    3  A    between atoms: C_19  and  C_20
REMARK    4  A    between atoms: C_23  and  C_26
REMARK                            x       y       z     vdW  Elec       q    Type
REMARK                         _______ _______ _______ _____ _____    ______ ____
ROOT
ATOM      1  N   UNL     1      35.675 -20.349 -20.606  0.00  0.00    +0.392 N 
ATOM      2  N   UNL     1      34.411 -21.669 -18.411  0.00  0.00    -0.309 N 
ATOM      3  C   UNL     1      34.327 -19.956 -20.178  0.00  0.00    -0.055 C 
ATOM      4  C   UNL     1      36.463 -20.776 -19.444  0.00  0.00    -0.055 C 
ATOM      5  C   UNL     1      33.601 -21.122 -19.504  0.00  0.00    +0.068 C 
ATOM      6  C   UNL     1      35.809 -21.971 -18.745  0.00  0.00    +0.068 C 
ATOM      7  H   UNL     1      35.598 -21.131 -21.257  0.00  0.00    -0.079 HD
ENDROOT
BRANCH   2  11
ATOM      8  O   UNL     1      35.897 -22.993 -16.240  0.00  0.00    -0.406 OA
ATOM      9  O   UNL     1      37.221 -23.964 -14.610  0.00  0.00    -0.223 OA
ATOM     10  N   UNL     1      34.906 -24.232 -14.578  0.00  0.00    -0.287 N 
ATOM     11  C   UNL     1      33.799 -22.423 -17.402  0.00  0.00    +0.084 C 
ATOM     12  C   UNL     1      34.520 -23.039 -16.387  0.00  0.00    +0.179 A 
ATOM     13  C   UNL     1      32.402 -22.601 -17.357  0.00  0.00    +0.018 C 
ATOM     14  C   UNL     1      33.907 -23.778 -15.399  0.00  0.00    +0.098 A 
ATOM     15  C   UNL     1      31.785 -23.360 -16.342  0.00  0.00    +0.003 C 
ATOM     16  C   UNL     1      32.545 -23.963 -15.338  0.00  0.00    +0.020 C 
ATOM     17  C   UNL     1      36.108 -23.761 -15.081  0.00  0.00    +0.419 A 
ATOM     18  H   UNL     1      34.790 -24.791 -13.776  0.00  0.00    +0.172 HD
ENDBRANCH   2  11
BRANCH   1  19
ATOM     19  C   UNL     1      36.337 -19.244 -21.297  0.00  0.00    -0.050 C 
BRANCH  19  20
ATOM     20  C   UNL     1      35.481 -18.712 -22.415  0.00  0.00    -0.043 C 
ATOM     21  C   UNL     1      35.225 -17.350 -22.492  0.00  0.00    -0.006 C 
ATOM     22  C   UNL     1      34.960 -19.591 -23.355  0.00  0.00    -0.006 C 
ATOM     23  C   UNL     1      34.432 -16.858 -23.529  0.00  0.00    -0.000 C 
ATOM     24  C   UNL     1      34.168 -19.099 -24.391  0.00  0.00    -0.000 C 
ATOM     25  C   UNL     1      33.904 -17.733 -24.478  0.00  0.00    -0.000 C 
BRANCH  23  26
ATOM     26  C   UNL     1      34.159 -15.440 -23.621  0.00  0.00    -0.000 C 
ATOM     27  C   UNL     1      33.617 -14.908 -24.791  0.00  0.00    -0.000 C 
ATOM     28  C   UNL     1      34.438 -14.604 -22.539  0.00  0.00    -0.000 C 
ATOM     29  C   UNL     1      33.353 -13.541 -24.880  0.00  0.00    -0.000 C 
ATOM     30  C   UNL     1      34.175 -13.237 -22.628  0.00  0.00    -0.000 C 
ATOM     31  C   UNL     1      33.632 -12.706 -23.798  0.00  0.00    +0.000 C 
ENDBRANCH  23  26
ENDBRANCH  19  20
ENDBRANCH   1  19
TORSDOF 4
ENDMDL
MODEL 5
REMARK VINA RESULT:     -11.0      6.071     10.591
REMARK  Name = 208951
REMARK  4 active torsions:
REMARK  status: ('A' for Active; 'I' for Inactive)
REMARK    1  A    between atoms: N_1  and  C_19
REMARK    2  A    between atoms: N_2  and  C_11
REMARK    3  A    between atoms: C_19  and  C_20
REMARK    4  A    between atoms: C_23  and  C_26
REMARK                            x       y       z     vdW  Elec       q    Type
REMARK                         _______ _______ _______ _____ _____    ______ ____
ROOT
ATOM      1  N   UNL     1      34.771 -22.106 -18.318  0.00  0.00    +0.392 N 
ATOM      2  N   UNL     1      32.969 -23.150 -16.362  0.00  0.00    -0.309 N 
ATOM      3  C   UNL     1      35.273 -22.920 -17.205  0.00  0.00    -0.055 C 
ATOM      4  C   UNL     1      33.435 -22.568 -18.712  0.00  0.00    -0.055 C 
ATOM      5  C   UNL     1      34.348 -22.820 -15.989  0.00  0.00    +0.068 C 
ATOM      6  C   UNL     1      32.448 -22.455 -17.547  0.00  0.00    +0.068 C 
ATOM      7  H   UNL     1      34.707 -21.135 -18.013  0.00  0.00    -0.079 HD
ENDROOT
BRANCH   2  11
ATOM      8  O   UNL     1      30.072 -22.655 -16.539  0.00  0.00    -0.406 OA
ATOM      9  O   UNL     1      27.827 -22.185 -16.842  0.00  0.00    -0.223 OA
ATOM     10  N   UNL     1      28.562 -23.294 -14.927  0.00  0.00    -0.287 N 
ATOM     11  C   UNL     1      32.057 -23.541 -15.376  0.00  0.00    +0.084 C 
ATOM     12  C   UNL     1      30.693 -23.298 -15.480  0.00  0.00    +0.179 A 
ATOM     13  C   UNL     1      32.473 -24.213 -14.209  0.00  0.00    +0.018 C 
ATOM     14  C   UNL     1      29.804 -23.689 -14.502  0.00  0.00    +0.098 A 
ATOM     15  C   UNL     1      31.554 -24.608 -13.215  0.00  0.00    +0.003 C 
ATOM     16  C   UNL     1      30.190 -24.345 -13.357  0.00  0.00    +0.020 C 
ATOM     17  C   UNL     1      28.718 -22.670 -16.154  0.00  0.00    +0.419 A 
ATOM     18  H   UNL     1      27.714 -23.428 -14.448  0.00  0.00    +0.172 HD
ENDBRANCH   2  11
BRANCH   1  19
ATOM     19  C   UNL     1      35.690 -22.167 -19.453  0.00  0.00    -0.050 C 
BRANCH  19  20
ATOM     20  C   UNL     1      36.099 -20.788 -19.895  0.00  0.00    -0.043 C 
ATOM     21  C   UNL     1      35.456 -20.197 -20.974  0.00  0.00    -0.006 C 
ATOM     22  C   UNL     1      37.113 -20.125 -19.217  0.00  0.00    -0.006 C 
ATOM     23  C   UNL     1      35.835 -18.918 -21.382  0.00  0.00    -0.000 C 
ATOM     24  C   UNL     1      37.492 -18.847 -19.626  0.00  0.00    -0.000 C 
ATOM     25  C   UNL     1      36.853 -18.243 -20.708  0.00  0.00    -0.000 C 
BRANCH  23  26
ATOM     26  C   UNL     1      35.172 -18.290 -22.505  0.00  0.00    -0.000 C 
ATOM     27  C   UNL     1      34.414 -19.059 -23.387  0.00  0.00    -0.000 C 
ATOM     28  C   UNL     1      35.289 -16.913 -22.704  0.00  0.00    -0.000 C 
ATOM     29  C   UNL     1      33.774 -18.454 -24.469  0.00  0.00    -0.000 C 
ATOM     30  C   UNL     1      34.649 -16.309 -23.785  0.00  0.00    -0.000 C 
ATOM     31  C   UNL     1      33.891 -17.079 -24.667  0.00  0.00    +0.000 C 
ENDBRANCH  23  26
ENDBRANCH  19  20
ENDBRANCH   1  19
TORSDOF 4
ENDMDL
MODEL 6
REMARK VINA RESULT:     -10.9      1.377      2.369
REMARK  Name = 208951
REMARK  4 active torsions:
REMARK  status: ('A' for Active; 'I' for Inactive)
REMARK    1  A    between atoms: N_1  and  C_19
REMARK    2  A    between atoms: N_2  and  C_11
REMARK    3  A    between atoms: C_19  and  C_20
REMARK    4  A    between atoms: C_23  and  C_26
REMARK                            x       y       z     vdW  Elec       q    Type
REMARK                         _______ _______ _______ _____ _____    ______ ____
ROOT
ATOM      1  N   UNL     1      35.787 -17.241 -22.146  0.00  0.00    +0.392 N 
ATOM      2  N   UNL     1      34.094 -14.962 -21.832  0.00  0.00    -0.309 N 
ATOM      3  C   UNL     1      35.153 -16.959 -20.853  0.00  0.00    -0.055 C 
ATOM      4  C   UNL     1      34.903 -16.817 -23.238  0.00  0.00    -0.055 C 
ATOM      5  C   UNL     1      34.870 -15.463 -20.693  0.00  0.00    +0.068 C 
ATOM      6  C   UNL     1      34.613 -15.316 -23.159  0.00  0.00    +0.068 C 
ATOM      7  H   UNL     1      36.660 -16.716 -22.206  0.00  0.00    -0.079 HD
ENDROOT
BRANCH   2  11
ATOM      8  O   UNL     1      34.187 -12.781 -23.808  0.00  0.00    -0.406 OA
ATOM      9  O   UNL     1      34.380 -11.172 -25.459  0.00  0.00    -0.223 OA
ATOM     10  N   UNL     1      32.994 -10.825 -23.617  0.00  0.00    -0.287 N 
ATOM     11  C   UNL     1      33.365 -13.774 -21.707  0.00  0.00    +0.084 C 
ATOM     12  C   UNL     1      33.423 -12.757 -22.652  0.00  0.00    +0.179 A 
ATOM     13  C   UNL     1      32.519 -13.538 -20.604  0.00  0.00    +0.018 C 
ATOM     14  C   UNL     1      32.700 -11.592 -22.519  0.00  0.00    +0.098 A 
ATOM     15  C   UNL     1      31.784 -12.341 -20.478  0.00  0.00    +0.003 C 
ATOM     16  C   UNL     1      31.870 -11.343 -21.451  0.00  0.00    +0.020 C 
ATOM     17  C   UNL     1      33.890 -11.538 -24.397  0.00  0.00    +0.419 A 
ATOM     18  H   UNL     1      32.634  -9.932 -23.814  0.00  0.00    +0.172 HD
ENDBRANCH   2  11
BRANCH   1  19
ATOM     19  C   UNL     1      36.101 -18.664 -22.263  0.00  0.00    -0.050 C 
BRANCH  19  20
ATOM     20  C   UNL     1      35.211 -19.491 -21.375  0.00  0.00    -0.043 C 
ATOM     21  C   UNL     1      35.753 -20.127 -20.265  0.00  0.00    -0.006 C 
ATOM     22  C   UNL     1      33.861 -19.607 -21.676  0.00  0.00    -0.006 C 
ATOM     23  C   UNL     1      34.927 -20.892 -19.442  0.00  0.00    -0.000 C 
ATOM     24  C   UNL     1      33.036 -20.372 -20.853  0.00  0.00    -0.000 C 
ATOM     25  C   UNL     1      33.569 -21.015 -19.736  0.00  0.00    -0.000 C 
BRANCH  23  26
ATOM     26  C   UNL     1      35.479 -21.558 -18.282  0.00  0.00    -0.000 C 
ATOM     27  C   UNL     1      34.670 -22.385 -17.501  0.00  0.00    -0.000 C 
ATOM     28  C   UNL     1      36.820 -21.374 -17.944  0.00  0.00    -0.000 C 
ATOM     29  C   UNL     1      35.203 -23.027 -16.383  0.00  0.00    -0.000 C 
ATOM     30  C   UNL     1      37.352 -22.016 -16.826  0.00  0.00    -0.000 C 
ATOM     31  C   UNL     1      36.543 -22.843 -16.046  0.00  0.00    +0.000 C 
ENDBRANCH  23  26
ENDBRANCH  19  20
ENDBRANCH   1  19
TORSDOF 4
ENDMDL
MODEL 7
REMARK VINA RESULT:     -10.8      4.292     11.784
REMARK  Name = 208951
REMARK  4 active torsions:
REMARK  status: ('A' for Active; 'I' for Inactive)
REMARK    1  A    between atoms: N_1  and  C_19
REMARK    2  A    between atoms: N_2  and  C_11
REMARK    3  A    between atoms: C_19  and  C_20
REMARK    4  A    between atoms: C_23  and  C_26
REMARK                            x       y       z     vdW  Elec       q    Type
REMARK                         _______ _______ _______ _____ _____    ______ ____
ROOT
ATOM      1  N   UNL     1      32.329  -8.696 -21.967  0.00  0.00    +0.392 N 
ATOM      2  N   UNL     1      33.068 -11.298 -22.885  0.00  0.00    -0.309 N 
ATOM      3  C   UNL     1      31.946  -9.890 -21.204  0.00  0.00    -0.055 C 
ATOM      4  C   UNL     1      33.627  -8.913 -22.615  0.00  0.00    -0.055 C 
ATOM      5  C   UNL     1      31.833 -11.114 -22.116  0.00  0.00    +0.068 C 
ATOM      6  C   UNL     1      33.571 -10.103 -23.576  0.00  0.00    +0.068 C 
ATOM      7  H   UNL     1      31.626  -8.526 -22.687  0.00  0.00    -0.079 HD
ENDROOT
BRANCH   2  11
ATOM      8  O   UNL     1      34.062 -13.581 -21.312  0.00  0.00    -0.406 OA
ATOM      9  O   UNL     1      34.835 -15.265 -19.927  0.00  0.00    -0.223 OA
ATOM     10  N   UNL     1      34.547 -15.641 -22.209  0.00  0.00    -0.287 N 
ATOM     11  C   UNL     1      33.362 -12.549 -23.439  0.00  0.00    +0.084 C 
ATOM     12  C   UNL     1      33.830 -13.613 -22.678  0.00  0.00    +0.179 A 
ATOM     13  C   UNL     1      33.197 -12.806 -24.815  0.00  0.00    +0.018 C 
ATOM     14  C   UNL     1      34.115 -14.841 -23.235  0.00  0.00    +0.098 A 
ATOM     15  C   UNL     1      33.493 -14.066 -25.374  0.00  0.00    +0.003 C 
ATOM     16  C   UNL     1      33.961 -15.111 -24.575  0.00  0.00    +0.020 C 
ATOM     17  C   UNL     1      34.518 -14.886 -21.048  0.00  0.00    +0.419 A 
ATOM     18  H   UNL     1      34.828 -16.581 -22.284  0.00  0.00    +0.172 HD
ENDBRANCH   2  11
BRANCH   1  19
ATOM     19  C   UNL     1      32.380  -7.525 -21.094  0.00  0.00    -0.050 C 
BRANCH  19  20
ATOM     20  C   UNL     1      32.202  -6.254 -21.881  0.00  0.00    -0.043 C 
ATOM     21  C   UNL     1      32.868  -6.099 -23.089  0.00  0.00    -0.006 C 
ATOM     22  C   UNL     1      31.374  -5.255 -21.388  0.00  0.00    -0.006 C 
ATOM     23  C   UNL     1      32.702  -4.921 -23.819  0.00  0.00    -0.000 C 
ATOM     24  C   UNL     1      31.208  -4.078 -22.117  0.00  0.00    -0.000 C 
ATOM     25  C   UNL     1      31.872  -3.911 -23.332  0.00  0.00    -0.000 C 
BRANCH  23  26
ATOM     26  C   UNL     1      33.389  -4.748 -25.080  0.00  0.00    -0.000 C 
ATOM     27  C   UNL     1      34.747  -5.047 -25.182  0.00  0.00    -0.000 C 
ATOM     28  C   UNL     1      32.692  -4.283 -26.196  0.00  0.00    -0.000 C 
ATOM     29  C   UNL     1      35.410  -4.881 -26.398  0.00  0.00    -0.000 C 
ATOM     30  C   UNL     1      33.354  -4.116 -27.412  0.00  0.00    -0.000 C 
ATOM     31  C   UNL     1      34.713  -4.416 -27.513  0.00  0.00    +0.000 C 
ENDBRANCH  23  26
ENDBRANCH  19  20
ENDBRANCH   1  19
TORSDOF 4
ENDMDL
MODEL 8
REMARK VINA RESULT:     -10.6      3.057      5.633
REMARK  Name = 208951
REMARK  4 active torsions:
REMARK  status: ('A' for Active; 'I' for Inactive)
REMARK    1  A    between atoms: N_1  and  C_19
REMARK    2  A    between atoms: N_2  and  C_11
REMARK    3  A    between atoms: C_19  and  C_20
REMARK    4  A    between atoms: C_23  and  C_26
REMARK                            x       y       z     vdW  Elec       q    Type
REMARK                         _______ _______ _______ _____ _____    ______ ____
ROOT
ATOM      1  N   UNL     1      36.174 -20.578 -19.541  0.00  0.00    +0.392 N 
ATOM      2  N   UNL     1      35.422 -18.643 -21.504  0.00  0.00    -0.309 N 
ATOM      3  C   UNL     1      35.015 -20.813 -20.411  0.00  0.00    -0.055 C 
ATOM      4  C   UNL     1      37.200 -19.823 -20.269  0.00  0.00    -0.055 C 
ATOM      5  C   UNL     1      34.401 -19.492 -20.880  0.00  0.00    +0.068 C 
ATOM      6  C   UNL     1      36.660 -18.467 -20.733  0.00  0.00    +0.068 C 
ATOM      7  H   UNL     1      35.873 -20.031 -18.734  0.00  0.00    -0.079 HD
ENDROOT
BRANCH   2  11
ATOM      8  O   UNL     1      34.987 -15.863 -20.635  0.00  0.00    -0.406 OA
ATOM      9  O   UNL     1      34.691 -13.734 -19.780  0.00  0.00    -0.223 OA
ATOM     10  N   UNL     1      34.354 -14.163 -22.047  0.00  0.00    -0.287 N 
ATOM     11  C   UNL     1      35.035 -17.614 -22.370  0.00  0.00    +0.084 C 
ATOM     12  C   UNL     1      34.836 -16.308 -21.939  0.00  0.00    +0.179 A 
ATOM     13  C   UNL     1      34.826 -17.844 -23.745  0.00  0.00    +0.018 C 
ATOM     14  C   UNL     1      34.457 -15.303 -22.801  0.00  0.00    +0.098 A 
ATOM     15  C   UNL     1      34.437 -16.808 -24.618  0.00  0.00    +0.003 C 
ATOM     16  C   UNL     1      34.247 -15.508 -24.145  0.00  0.00    +0.020 C 
ATOM     17  C   UNL     1      34.673 -14.496 -20.740  0.00  0.00    +0.419 A 
ATOM     18  H   UNL     1      34.101 -13.271 -22.374  0.00  0.00    +0.172 HD
ENDBRANCH   2  11
BRANCH   1  19
ATOM     19  C   UNL     1      36.717 -21.846 -19.056  0.00  0.00    -0.050 C 
BRANCH  19  20
ATOM     20  C   UNL     1      36.370 -22.066 -17.609  0.00  0.00    -0.043 C 
ATOM     21  C   UNL     1      35.096 -22.504 -17.270  0.00  0.00    -0.006 C 
ATOM     22  C   UNL     1      37.327 -21.831 -16.632  0.00  0.00    -0.006 C 
ATOM     23  C   UNL     1      34.775 -22.709 -15.928  0.00  0.00    -0.000 C 
ATOM     24  C   UNL     1      37.006 -22.036 -15.291  0.00  0.00    -0.000 C 
ATOM     25  C   UNL     1      35.730 -22.475 -14.939  0.00  0.00    -0.000 C 
BRANCH  23  26
ATOM     26  C   UNL     1      33.452 -23.166 -15.562  0.00  0.00    -0.000 C 
ATOM     27  C   UNL     1      33.226 -23.707 -14.297  0.00  0.00    -0.000 C 
ATOM     28  C   UNL     1      32.401 -23.065 -16.475  0.00  0.00    -0.000 C 
ATOM     29  C   UNL     1      31.950 -24.147 -13.944  0.00  0.00    -0.000 C 
ATOM     30  C   UNL     1      31.126 -23.506 -16.122  0.00  0.00    -0.000 C 
ATOM     31  C   UNL     1      30.901 -24.046 -14.856  0.00  0.00    +0.000 C 
ENDBRANCH  23  26
ENDBRANCH  19  20
ENDBRANCH   1  19
TORSDOF 4
ENDMDL
MODEL 9
REMARK VINA RESULT:     -10.6      3.234      5.735
REMARK  Name = 208951
REMARK  4 active torsions:
REMARK  status: ('A' for Active; 'I' for Inactive)
REMARK    1  A    between atoms: N_1  and  C_19
REMARK    2  A    between atoms: N_2  and  C_11
REMARK    3  A    between atoms: C_19  and  C_20
REMARK    4  A    between atoms: C_23  and  C_26
REMARK                            x       y       z     vdW  Elec       q    Type
REMARK                         _______ _______ _______ _____ _____    ______ ____
ROOT
ATOM      1  N   UNL     1      33.776 -11.294 -23.503  0.00  0.00    +0.392 N 
ATOM      2  N   UNL     1      32.724  -8.644 -23.332  0.00  0.00    -0.309 N 
ATOM      3  C   UNL     1      32.350 -11.076 -23.233  0.00  0.00    -0.055 C 
ATOM      4  C   UNL     1      34.285 -10.235 -24.384  0.00  0.00    -0.055 C 
ATOM      5  C   UNL     1      32.119  -9.726 -22.550  0.00  0.00    +0.068 C 
ATOM      6  C   UNL     1      34.119  -8.857 -23.739  0.00  0.00    +0.068 C 
ATOM      7  H   UNL     1      34.288 -11.261 -22.621  0.00  0.00    -0.079 HD
ENDROOT
BRANCH   2  11
ATOM      8  O   UNL     1      32.775  -7.256 -20.735  0.00  0.00    -0.406 OA
ATOM      9  O   UNL     1      32.888  -6.322 -18.622  0.00  0.00    -0.223 OA
ATOM     10  N   UNL     1      32.063  -5.093 -20.423  0.00  0.00    -0.287 N 
ATOM     11  C   UNL     1      32.288  -7.326 -23.150  0.00  0.00    +0.084 C 
ATOM     12  C   UNL     1      32.321  -6.691 -21.915  0.00  0.00    +0.179 A 
ATOM     13  C   UNL     1      31.785  -6.560 -24.221  0.00  0.00    +0.018 C 
ATOM     14  C   UNL     1      31.889  -5.393 -21.749  0.00  0.00    +0.098 A 
ATOM     15  C   UNL     1      31.345  -5.233 -24.039  0.00  0.00    +0.003 C 
ATOM     16  C   UNL     1      31.395  -4.629 -22.781  0.00  0.00    +0.020 C 
ATOM     17  C   UNL     1      32.597  -6.214 -19.807  0.00  0.00    +0.419 A 
ATOM     18  H   UNL     1      31.847  -4.238 -19.987  0.00  0.00    +0.172 HD
ENDBRANCH   2  11
BRANCH   1  19
ATOM     19  C   UNL     1      33.989 -12.609 -24.105  0.00  0.00    -0.050 C 
BRANCH  19  20
ATOM     20  C   UNL     1      34.228 -13.656 -23.051  0.00  0.00    -0.043 C 
ATOM     21  C   UNL     1      34.407 -14.980 -23.430  0.00  0.00    -0.006 C 
ATOM     22  C   UNL     1      34.269 -13.284 -21.714  0.00  0.00    -0.006 C 
ATOM     23  C   UNL     1      34.629 -15.950 -22.453  0.00  0.00    -0.000 C 
ATOM     24  C   UNL     1      34.491 -14.254 -20.738  0.00  0.00    -0.000 C 
ATOM     25  C   UNL     1      34.671 -15.586 -21.106  0.00  0.00    -0.000 C 
BRANCH  23  26
ATOM     26  C   UNL     1      34.818 -17.333 -22.835  0.00  0.00    -0.000 C 
ATOM     27  C   UNL     1      34.182 -17.836 -23.969  0.00  0.00    -0.000 C 
ATOM     28  C   UNL     1      35.637 -18.163 -22.068  0.00  0.00    -0.000 C 
ATOM     29  C   UNL     1      34.364 -19.169 -24.338  0.00  0.00    -0.000 C 
ATOM     30  C   UNL     1      35.819 -19.495 -22.437  0.00  0.00    -0.000 C 
ATOM     31  C   UNL     1      35.183 -19.998 -23.572  0.00  0.00    +0.000 C 
ENDBRANCH  23  26
ENDBRANCH  19  20
ENDBRANCH   1  19
TORSDOF 4
ENDMDL
