MODEL 1
REMARK VINA RESULT:     -10.9      0.000      0.000
REMARK  Name = 446752
REMARK  3 active torsions:
REMARK  status: ('A' for Active; 'I' for Inactive)
REMARK    1  A    between atoms: C_6  and  C_18
REMARK    2  A    between atoms: C_18  and  N_19
REMARK    3  A    between atoms: N_19  and  C_22
REMARK                            x       y       z     vdW  Elec       q    Type
REMARK                         _______ _______ _______ _____ _____    ______ ____
ROOT
ATOM      1  N   UNL     1      32.645 -20.961 -19.807  0.00  0.00    -0.182 NA
ATOM      2  N   UNL     1      32.274 -22.330 -17.978  0.00  0.00    -0.273 NA
ATOM      3  N   UNL     1      34.089 -23.120 -16.607  0.00  0.00    -0.312 NA
ATOM      4  N   UNL     1      36.289 -22.534 -17.074  0.00  0.00    -0.332 N 
ATOM      5  N   UNL     1      31.877 -23.718 -16.127  0.00  0.00    -0.283 N 
ATOM      6  C   UNL     1      34.870 -20.277 -20.404  0.00  0.00    +0.010 C 
ATOM      7  C   UNL     1      35.378 -20.991 -19.343  0.00  0.00    -0.009 C 
ATOM      8  C   UNL     1      34.496 -21.693 -18.510  0.00  0.00    +0.115 C 
ATOM      9  C   UNL     1      33.121 -21.661 -18.768  0.00  0.00    +0.104 C 
ATOM     10  C   UNL     1      33.513 -20.288 -20.601  0.00  0.00    +0.107 C 
ATOM     11  C   UNL     1      36.864 -20.961 -19.154  0.00  0.00    +0.032 C 
ATOM     12  C   UNL     1      34.922 -22.441 -17.414  0.00  0.00    +0.201 C 
ATOM     13  C   UNL     1      32.796 -23.022 -16.942  0.00  0.00    +0.206 C 
ATOM     14  H   UNL     1      36.566 -23.069 -16.294  0.00  0.00    +0.145 HD
ATOM     15  H   UNL     1      36.964 -22.067 -17.616  0.00  0.00    +0.145 HD
ATOM     16  H   UNL     1      30.914 -23.681 -16.326  0.00  0.00    +0.156 HD
ATOM     17  H   UNL     1      32.201 -24.240 -15.357  0.00  0.00    +0.156 HD
ENDROOT
BRANCH   6  18
ATOM     18  C   UNL     1      35.748 -19.498 -21.345  0.00  0.00    +0.097 C 
BRANCH  18  19
ATOM     19  N   UNL     1      35.502 -18.099 -21.215  0.00  0.00    -0.288 NA
ATOM     20  H   UNL     1      35.648 -17.672 -20.339  0.00  0.00    +0.124 HD
BRANCH  19  22
ATOM     21  N   UNL     1      33.826 -13.909 -23.054  0.00  0.00    -0.248 NA
ATOM     22  C   UNL     1      35.055 -17.297 -22.293  0.00  0.00    +0.101 C 
ATOM     23  C   UNL     1      34.656 -15.963 -22.105  0.00  0.00    +0.010 C 
ATOM     24  C   UNL     1      34.216 -15.190 -23.199  0.00  0.00    +0.061 C 
ATOM     25  C   UNL     1      35.021 -17.870 -23.562  0.00  0.00    -0.010 C 
ATOM     26  C   UNL     1      34.681 -15.361 -20.840  0.00  0.00    +0.000 C 
ATOM     27  C   UNL     1      34.190 -15.788 -24.456  0.00  0.00    +0.071 C 
ATOM     28  C   UNL     1      34.587 -17.114 -24.644  0.00  0.00    -0.023 C 
ATOM     29  C   UNL     1      34.281 -14.042 -20.686  0.00  0.00    +0.020 C 
ATOM     30  C   UNL     1      33.866 -13.366 -21.815  0.00  0.00    +0.098 C 
ENDBRANCH  19  22
ENDBRANCH  18  19
ENDBRANCH   6  18
TORSDOF 3
ENDMDL
MODEL 2
REMARK VINA RESULT:     -10.8      3.099      9.045
REMARK  Name = 446752
REMARK  3 active torsions:
REMARK  status: ('A' for Active; 'I' for Inactive)
REMARK    1  A    between atoms: C_6  and  C_18
REMARK    2  A    between atoms: C_18  and  N_19
REMARK    3  A    between atoms: N_19  and  C_22
REMARK                            x       y       z     vdW  Elec       q    Type
REMARK                         _______ _______ _______ _____ _____    ______ ____
ROOT
ATOM      1  N   UNL     1      36.625 -21.251 -18.559  0.00  0.00    -0.182 NA
ATOM      2  N   UNL     1      37.434 -19.759 -20.133  0.00  0.00    -0.273 NA
ATOM      3  N   UNL     1      36.000 -18.799 -21.812  0.00  0.00    -0.312 NA
ATOM      4  N   UNL     1      33.743 -19.339 -21.915  0.00  0.00    -0.332 N 
ATOM      5  N   UNL     1      38.274 -18.247 -21.720  0.00  0.00    -0.283 N 
ATOM      6  C   UNL     1      34.310 -21.898 -18.549  0.00  0.00    +0.010 C 
ATOM      7  C   UNL     1      34.075 -21.087 -19.636  0.00  0.00    -0.009 C 
ATOM      8  C   UNL     1      35.138 -20.353 -20.181  0.00  0.00    +0.115 C 
ATOM      9  C   UNL     1      36.415 -20.456 -19.617  0.00  0.00    +0.104 C 
ATOM     10  C   UNL     1      35.585 -21.953 -18.047  0.00  0.00    +0.107 C 
ATOM     11  C   UNL     1      32.673 -21.048 -20.164  0.00  0.00    +0.032 C 
ATOM     12  C   UNL     1      34.992 -19.508 -21.278  0.00  0.00    +0.201 C 
ATOM     13  C   UNL     1      37.179 -18.969 -21.198  0.00  0.00    +0.206 C 
ATOM     14  H   UNL     1      33.664 -18.736 -22.690  0.00  0.00    +0.145 HD
ATOM     15  H   UNL     1      32.953 -19.825 -21.586  0.00  0.00    +0.145 HD
ATOM     16  H   UNL     1      39.164 -18.334 -21.308  0.00  0.00    +0.156 HD
ATOM     17  H   UNL     1      38.147 -17.655 -22.497  0.00  0.00    +0.156 HD
ENDROOT
BRANCH   6  18
ATOM     18  C   UNL     1      33.225 -22.718 -17.907  0.00  0.00    +0.097 C 
BRANCH  18  19
ATOM     19  N   UNL     1      33.754 -23.493 -16.832  0.00  0.00    -0.288 NA
ATOM     20  H   UNL     1      34.561 -24.035 -16.993  0.00  0.00    +0.124 HD
BRANCH  19  22
ATOM     21  N   UNL     1      33.969 -24.240 -12.022  0.00  0.00    -0.248 NA
ATOM     22  C   UNL     1      33.168 -23.516 -15.543  0.00  0.00    +0.101 C 
ATOM     23  C   UNL     1      33.904 -23.881 -14.404  0.00  0.00    +0.010 C 
ATOM     24  C   UNL     1      33.293 -23.895 -13.133  0.00  0.00    +0.061 C 
ATOM     25  C   UNL     1      31.827 -23.161 -15.431  0.00  0.00    -0.010 C 
ATOM     26  C   UNL     1      35.256 -24.242 -14.488  0.00  0.00    +0.000 C 
ATOM     27  C   UNL     1      31.950 -23.537 -13.050  0.00  0.00    +0.071 C 
ATOM     28  C   UNL     1      31.217 -23.172 -14.183  0.00  0.00    -0.023 C 
ATOM     29  C   UNL     1      35.956 -24.598 -13.345  0.00  0.00    +0.020 C 
ATOM     30  C   UNL     1      35.273 -24.581 -12.147  0.00  0.00    +0.098 C 
ENDBRANCH  19  22
ENDBRANCH  18  19
ENDBRANCH   6  18
TORSDOF 3
ENDMDL
MODEL 3
REMARK VINA RESULT:     -10.7      1.499      8.274
REMARK  Name = 446752
REMARK  3 active torsions:
REMARK  status: ('A' for Active; 'I' for Inactive)
REMARK    1  A    between atoms: C_6  and  C_18
REMARK    2  A    between atoms: C_18  and  N_19
REMARK    3  A    between atoms: N_19  and  C_22
REMARK                            x       y       z     vdW  Elec       q    Type
REMARK                         _______ _______ _______ _____ _____    ______ ____
ROOT
ATOM      1  N   UNL     1      34.707 -16.907 -24.614  0.00  0.00    -0.182 NA
ATOM      2  N   UNL     1      33.819 -14.976 -25.532  0.00  0.00    -0.273 NA
ATOM      3  N   UNL     1      33.323 -13.050 -24.175  0.00  0.00    -0.312 NA
ATOM      4  N   UNL     1      33.718 -13.060 -21.885  0.00  0.00    -0.332 N 
ATOM      5  N   UNL     1      32.919 -13.027 -26.481  0.00  0.00    -0.283 N 
ATOM      6  C   UNL     1      35.166 -17.055 -22.259  0.00  0.00    +0.010 C 
ATOM      7  C   UNL     1      34.708 -15.769 -22.086  0.00  0.00    -0.009 C 
ATOM      8  C   UNL     1      34.248 -15.053 -23.200  0.00  0.00    +0.115 C 
ATOM      9  C   UNL     1      34.258 -15.653 -24.464  0.00  0.00    +0.104 C 
ATOM     10  C   UNL     1      35.148 -17.583 -23.525  0.00  0.00    +0.107 C 
ATOM     11  C   UNL     1      34.739 -15.220 -20.692  0.00  0.00    +0.032 C 
ATOM     12  C   UNL     1      33.768 -13.748 -23.117  0.00  0.00    +0.201 C 
ATOM     13  C   UNL     1      33.377 -13.716 -25.336  0.00  0.00    +0.206 C 
ATOM     14  H   UNL     1      33.375 -12.137 -21.851  0.00  0.00    +0.145 HD
ATOM     15  H   UNL     1      34.025 -13.502 -21.061  0.00  0.00    +0.145 HD
ATOM     16  H   UNL     1      32.936 -13.468 -27.361  0.00  0.00    +0.156 HD
ATOM     17  H   UNL     1      32.584 -12.105 -26.399  0.00  0.00    +0.156 HD
ENDROOT
BRANCH   6  18
ATOM     18  C   UNL     1      35.675 -17.890 -21.116  0.00  0.00    +0.097 C 
BRANCH  18  19
ATOM     19  N   UNL     1      35.466 -19.277 -21.379  0.00  0.00    -0.288 NA
ATOM     20  H   UNL     1      35.912 -19.683 -22.158  0.00  0.00    +0.124 HD
BRANCH  19  22
ATOM     21  N   UNL     1      34.797 -22.389 -17.690  0.00  0.00    -0.248 NA
ATOM     22  C   UNL     1      34.643 -20.095 -20.567  0.00  0.00    +0.101 C 
ATOM     23  C   UNL     1      35.170 -20.848 -19.505  0.00  0.00    +0.010 C 
ATOM     24  C   UNL     1      34.325 -21.654 -18.714  0.00  0.00    +0.061 C 
ATOM     25  C   UNL     1      33.280 -20.132 -20.849  0.00  0.00    -0.010 C 
ATOM     26  C   UNL     1      36.538 -20.829 -19.199  0.00  0.00    +0.000 C 
ATOM     27  C   UNL     1      32.967 -21.674 -19.019  0.00  0.00    +0.071 C 
ATOM     28  C   UNL     1      32.442 -20.923 -20.074  0.00  0.00    -0.023 C 
ATOM     29  C   UNL     1      37.028 -21.585 -18.145  0.00  0.00    +0.020 C 
ATOM     30  C   UNL     1      36.124 -22.342 -17.427  0.00  0.00    +0.098 C 
ENDBRANCH  19  22
ENDBRANCH  18  19
ENDBRANCH   6  18
TORSDOF 3
ENDMDL
MODEL 4
REMARK VINA RESULT:     -10.6      1.004      2.218
REMARK  Name = 446752
REMARK  3 active torsions:
REMARK  status: ('A' for Active; 'I' for Inactive)
REMARK    1  A    between atoms: C_6  and  C_18
REMARK    2  A    between atoms: C_18  and  N_19
REMARK    3  A    between atoms: N_19  and  C_22
REMARK                            x       y       z     vdW  Elec       q    Type
REMARK                         _______ _______ _______ _____ _____    ______ ____
ROOT
ATOM      1  N   UNL     1      36.826 -21.106 -18.723  0.00  0.00    -0.182 NA
ATOM      2  N   UNL     1      36.444 -22.452 -16.879  0.00  0.00    -0.273 NA
ATOM      3  N   UNL     1      34.242 -23.273 -16.354  0.00  0.00    -0.312 NA
ATOM      4  N   UNL     1      32.413 -22.739 -17.683  0.00  0.00    -0.332 N 
ATOM      5  N   UNL     1      36.077 -23.817 -15.005  0.00  0.00    -0.283 N 
ATOM      6  C   UNL     1      35.024 -20.476 -20.184  0.00  0.00    +0.010 C 
ATOM      7  C   UNL     1      34.141 -21.191 -19.409  0.00  0.00    -0.009 C 
ATOM      8  C   UNL     1      34.620 -21.870 -18.279  0.00  0.00    +0.115 C 
ATOM      9  C   UNL     1      35.980 -21.808 -17.956  0.00  0.00    +0.104 C 
ATOM     10  C   UNL     1      36.344 -20.456 -19.811  0.00  0.00    +0.107 C 
ATOM     11  C   UNL     1      32.706 -21.194 -19.841  0.00  0.00    +0.032 C 
ATOM     12  C   UNL     1      33.798 -22.618 -17.440  0.00  0.00    +0.201 C 
ATOM     13  C   UNL     1      35.558 -23.149 -16.135  0.00  0.00    +0.206 C 
ATOM     14  H   UNL     1      31.852 -23.274 -17.075  0.00  0.00    +0.145 HD
ATOM     15  H   UNL     1      32.008 -22.288 -18.458  0.00  0.00    +0.145 HD
ATOM     16  H   UNL     1      37.038 -23.761 -14.797  0.00  0.00    +0.156 HD
ATOM     17  H   UNL     1      35.477 -24.341 -14.425  0.00  0.00    +0.156 HD
ENDROOT
BRANCH   6  18
ATOM     18  C   UNL     1      34.591 -19.720 -21.411  0.00  0.00    +0.097 C 
BRANCH  18  19
ATOM     19  N   UNL     1      35.401 -18.560 -21.595  0.00  0.00    -0.288 NA
ATOM     20  H   UNL     1      36.245 -18.488 -21.091  0.00  0.00    +0.124 HD
BRANCH  19  22
ATOM     21  N   UNL     1      34.097 -13.948 -22.471  0.00  0.00    -0.248 NA
ATOM     22  C   UNL     1      35.043 -17.507 -22.472  0.00  0.00    +0.101 C 
ATOM     23  C   UNL     1      34.744 -16.220 -21.996  0.00  0.00    +0.010 C 
ATOM     24  C   UNL     1      34.390 -15.192 -22.894  0.00  0.00    +0.061 C 
ATOM     25  C   UNL     1      34.995 -17.783 -23.836  0.00  0.00    -0.010 C 
ATOM     26  C   UNL     1      34.785 -15.915 -20.628  0.00  0.00    +0.000 C 
ATOM     27  C   UNL     1      34.348 -15.495 -24.252  0.00  0.00    +0.071 C 
ATOM     28  C   UNL     1      34.647 -16.775 -24.726  0.00  0.00    -0.023 C 
ATOM     29  C   UNL     1      34.484 -14.635 -20.189  0.00  0.00    +0.020 C 
ATOM     30  C   UNL     1      34.149 -13.695 -21.143  0.00  0.00    +0.098 C 
ENDBRANCH  19  22
ENDBRANCH  18  19
ENDBRANCH   6  18
TORSDOF 3
ENDMDL
MODEL 5
REMARK VINA RESULT:     -10.4      3.764      7.339
REMARK  Name = 446752
REMARK  3 active torsions:
REMARK  status: ('A' for Active; 'I' for Inactive)
REMARK    1  A    between atoms: C_6  and  C_18
REMARK    2  A    between atoms: C_18  and  N_19
REMARK    3  A    between atoms: N_19  and  C_22
REMARK                            x       y       z     vdW  Elec       q    Type
REMARK                         _______ _______ _______ _____ _____    ______ ____
ROOT
ATOM      1  N   UNL     1      34.572 -15.045 -20.145  0.00  0.00    -0.182 NA
ATOM      2  N   UNL     1      35.514 -17.153 -20.317  0.00  0.00    -0.273 NA
ATOM      3  N   UNL     1      35.713 -18.273 -22.438  0.00  0.00    -0.312 NA
ATOM      4  N   UNL     1      34.963 -17.277 -24.398  0.00  0.00    -0.332 N 
ATOM      5  N   UNL     1      36.473 -19.290 -20.471  0.00  0.00    -0.283 N 
ATOM      6  C   UNL     1      33.754 -13.898 -22.092  0.00  0.00    +0.010 C 
ATOM      7  C   UNL     1      34.125 -14.962 -22.880  0.00  0.00    -0.009 C 
ATOM      8  C   UNL     1      34.728 -16.077 -22.280  0.00  0.00    +0.115 C 
ATOM      9  C   UNL     1      34.941 -16.092 -20.896  0.00  0.00    +0.104 C 
ATOM     10  C   UNL     1      33.991 -13.977 -20.743  0.00  0.00    +0.107 C 
ATOM     11  C   UNL     1      33.854 -14.848 -24.349  0.00  0.00    +0.032 C 
ATOM     12  C   UNL     1      35.136 -17.198 -22.999  0.00  0.00    +0.201 C 
ATOM     13  C   UNL     1      35.871 -18.185 -21.111  0.00  0.00    +0.206 C 
ATOM     14  H   UNL     1      35.259 -18.079 -24.886  0.00  0.00    +0.145 HD
ATOM     15  H   UNL     1      34.546 -16.530 -24.885  0.00  0.00    +0.145 HD
ATOM     16  H   UNL     1      36.613 -19.279 -19.496  0.00  0.00    +0.156 HD
ATOM     17  H   UNL     1      36.753 -20.072 -21.000  0.00  0.00    +0.156 HD
ENDROOT
BRANCH   6  18
ATOM     18  C   UNL     1      33.102 -12.665 -22.658  0.00  0.00    +0.097 C 
BRANCH  18  19
ATOM     19  N   UNL     1      31.960 -12.304 -21.882  0.00  0.00    -0.288 NA
ATOM     20  H   UNL     1      31.150 -12.861 -21.946  0.00  0.00    +0.124 HD
BRANCH  19  22
ATOM     21  N   UNL     1      31.957  -7.496 -21.096  0.00  0.00    -0.248 NA
ATOM     22  C   UNL     1      31.943 -11.178 -21.024  0.00  0.00    +0.101 C 
ATOM     23  C   UNL     1      31.959  -9.866 -21.527  0.00  0.00    +0.010 C 
ATOM     24  C   UNL     1      31.941  -8.765 -20.647  0.00  0.00    +0.061 C 
ATOM     25  C   UNL     1      31.907 -11.405 -19.651  0.00  0.00    -0.010 C 
ATOM     26  C   UNL     1      31.995  -9.609 -22.905  0.00  0.00    +0.000 C 
ATOM     27  C   UNL     1      31.907  -9.020 -19.280  0.00  0.00    +0.071 C 
ATOM     28  C   UNL     1      31.889 -10.325 -18.778  0.00  0.00    -0.023 C 
ATOM     29  C   UNL     1      32.011  -8.303 -23.371  0.00  0.00    +0.020 C 
ATOM     30  C   UNL     1      31.991  -7.290 -22.434  0.00  0.00    +0.098 C 
ENDBRANCH  19  22
ENDBRANCH  18  19
ENDBRANCH   6  18
TORSDOF 3
ENDMDL
MODEL 6
REMARK VINA RESULT:     -10.4      1.099      2.154
REMARK  Name = 446752
REMARK  3 active torsions:
REMARK  status: ('A' for Active; 'I' for Inactive)
REMARK    1  A    between atoms: C_6  and  C_18
REMARK    2  A    between atoms: C_18  and  N_19
REMARK    3  A    between atoms: N_19  and  C_22
REMARK                            x       y       z     vdW  Elec       q    Type
REMARK                         _______ _______ _______ _____ _____    ______ ____
ROOT
ATOM      1  N   UNL     1      33.057 -20.500 -20.637  0.00  0.00    -0.182 NA
ATOM      2  N   UNL     1      32.818 -22.013 -18.901  0.00  0.00    -0.273 NA
ATOM      3  N   UNL     1      34.692 -22.675 -17.542  0.00  0.00    -0.312 NA
ATOM      4  N   UNL     1      36.817 -21.816 -17.926  0.00  0.00    -0.332 N 
ATOM      5  N   UNL     1      32.557 -23.549 -17.146  0.00  0.00    -0.283 N 
ATOM      6  C   UNL     1      35.198 -19.533 -21.145  0.00  0.00    +0.010 C 
ATOM      7  C   UNL     1      35.769 -20.248 -20.118  0.00  0.00    -0.009 C 
ATOM      8  C   UNL     1      34.961 -21.097 -19.347  0.00  0.00    +0.115 C 
ATOM      9  C   UNL     1      33.595 -21.204 -19.632  0.00  0.00    +0.104 C 
ATOM     10  C   UNL     1      33.853 -19.685 -21.371  0.00  0.00    +0.107 C 
ATOM     11  C   UNL     1      37.239 -20.062 -19.895  0.00  0.00    +0.032 C 
ATOM     12  C   UNL     1      35.453 -21.857 -18.289  0.00  0.00    +0.201 C 
ATOM     13  C   UNL     1      33.401 -22.704 -17.898  0.00  0.00    +0.206 C 
ATOM     14  H   UNL     1      37.143 -22.363 -17.174  0.00  0.00    +0.145 HD
ATOM     15  H   UNL     1      37.442 -21.242 -18.425  0.00  0.00    +0.145 HD
ATOM     16  H   UNL     1      31.599 -23.609 -17.363  0.00  0.00    +0.156 HD
ATOM     17  H   UNL     1      32.927 -24.077 -16.402  0.00  0.00    +0.156 HD
ENDROOT
BRANCH   6  18
ATOM     18  C   UNL     1      35.994 -18.602 -22.018  0.00  0.00    +0.097 C 
BRANCH  18  19
ATOM     19  N   UNL     1      35.129 -17.704 -22.711  0.00  0.00    -0.288 NA
ATOM     20  H   UNL     1      34.751 -17.985 -23.576  0.00  0.00    +0.124 HD
BRANCH  19  22
ATOM     21  N   UNL     1      33.494 -13.150 -23.281  0.00  0.00    -0.248 NA
ATOM     22  C   UNL     1      34.789 -16.425 -22.206  0.00  0.00    +0.101 C 
ATOM     23  C   UNL     1      34.296 -15.409 -23.041  0.00  0.00    +0.010 C 
ATOM     24  C   UNL     1      33.968 -14.145 -22.509  0.00  0.00    +0.061 C 
ATOM     25  C   UNL     1      34.958 -16.197 -20.843  0.00  0.00    -0.010 C 
ATOM     26  C   UNL     1      34.117 -15.612 -24.416  0.00  0.00    +0.000 C 
ATOM     27  C   UNL     1      34.147 -13.944 -21.143  0.00  0.00    +0.071 C 
ATOM     28  C   UNL     1      34.636 -14.954 -20.312  0.00  0.00    -0.023 C 
ATOM     29  C   UNL     1      33.629 -14.589 -25.215  0.00  0.00    +0.020 C 
ATOM     30  C   UNL     1      33.335 -13.387 -24.604  0.00  0.00    +0.098 C 
ENDBRANCH  19  22
ENDBRANCH  18  19
ENDBRANCH   6  18
TORSDOF 3
ENDMDL
MODEL 7
REMARK VINA RESULT:     -10.3      4.579      7.421
REMARK  Name = 446752
REMARK  3 active torsions:
REMARK  status: ('A' for Active; 'I' for Inactive)
REMARK    1  A    between atoms: C_6  and  C_18
REMARK    2  A    between atoms: C_18  and  N_19
REMARK    3  A    between atoms: N_19  and  C_22
REMARK                            x       y       z     vdW  Elec       q    Type
REMARK                         _______ _______ _______ _____ _____    ______ ____
ROOT
ATOM      1  N   UNL     1      33.738 -15.662 -25.181  0.00  0.00    -0.182 NA
ATOM      2  N   UNL     1      34.301 -17.851 -24.682  0.00  0.00    -0.273 NA
ATOM      3  N   UNL     1      35.089 -18.481 -22.496  0.00  0.00    -0.312 NA
ATOM      4  N   UNL     1      35.316 -16.908 -20.801  0.00  0.00    -0.332 N 
ATOM      5  N   UNL     1      34.866 -20.077 -24.195  0.00  0.00    -0.283 N 
ATOM      6  C   UNL     1      33.925 -13.932 -23.523  0.00  0.00    +0.010 C 
ATOM      7  C   UNL     1      34.378 -14.853 -22.607  0.00  0.00    -0.009 C 
ATOM      8  C   UNL     1      34.508 -16.194 -22.997  0.00  0.00    +0.115 C 
ATOM      9  C   UNL     1      34.178 -16.574 -24.303  0.00  0.00    +0.104 C 
ATOM     10  C   UNL     1      33.620 -14.371 -24.786  0.00  0.00    +0.107 C 
ATOM     11  C   UNL     1      34.704 -14.345 -21.236  0.00  0.00    +0.032 C 
ATOM     12  C   UNL     1      34.959 -17.193 -22.137  0.00  0.00    +0.201 C 
ATOM     13  C   UNL     1      34.747 -18.737 -23.766  0.00  0.00    +0.206 C 
ATOM     14  H   UNL     1      35.632 -17.631 -20.212  0.00  0.00    +0.145 HD
ATOM     15  H   UNL     1      35.250 -15.987 -20.460  0.00  0.00    +0.145 HD
ATOM     16  H   UNL     1      34.628 -20.322 -25.118  0.00  0.00    +0.156 HD
ATOM     17  H   UNL     1      35.187 -20.767 -23.570  0.00  0.00    +0.156 HD
ENDROOT
BRANCH   6  18
ATOM     18  C   UNL     1      33.758 -12.476 -23.185  0.00  0.00    +0.097 C 
BRANCH  18  19
ATOM     19  N   UNL     1      32.457 -12.232 -22.652  0.00  0.00    -0.288 NA
ATOM     20  H   UNL     1      31.701 -12.764 -22.991  0.00  0.00    +0.124 HD
BRANCH  19  22
ATOM     21  N   UNL     1      31.880  -7.617 -21.201  0.00  0.00    -0.248 NA
ATOM     22  C   UNL     1      32.208 -11.257 -21.656  0.00  0.00    +0.101 C 
ATOM     23  C   UNL     1      32.171  -9.886 -21.959  0.00  0.00    +0.010 C 
ATOM     24  C   UNL     1      31.921  -8.938 -20.945  0.00  0.00    +0.061 C 
ATOM     25  C   UNL     1      31.996 -11.696 -20.352  0.00  0.00    -0.010 C 
ATOM     26  C   UNL     1      32.381  -9.416 -23.263  0.00  0.00    +0.000 C 
ATOM     27  C   UNL     1      31.714  -9.405 -19.650  0.00  0.00    +0.071 C 
ATOM     28  C   UNL     1      31.749 -10.768 -19.348  0.00  0.00    -0.023 C 
ATOM     29  C   UNL     1      32.339  -8.056 -23.530  0.00  0.00    +0.020 C 
ATOM     30  C   UNL     1      32.087  -7.205 -22.473  0.00  0.00    +0.098 C 
ENDBRANCH  19  22
ENDBRANCH  18  19
ENDBRANCH   6  18
TORSDOF 3
ENDMDL
MODEL 8
REMARK VINA RESULT:     -10.2      2.342      8.457
REMARK  Name = 446752
REMARK  3 active torsions:
REMARK  status: ('A' for Active; 'I' for Inactive)
REMARK    1  A    between atoms: C_6  and  C_18
REMARK    2  A    between atoms: C_18  and  N_19
REMARK    3  A    between atoms: N_19  and  C_22
REMARK                            x       y       z     vdW  Elec       q    Type
REMARK                         _______ _______ _______ _____ _____    ______ ____
ROOT
ATOM      1  N   UNL     1      33.142 -20.570 -20.728  0.00  0.00    -0.182 NA
ATOM      2  N   UNL     1      33.846 -19.075 -22.350  0.00  0.00    -0.273 NA
ATOM      3  N   UNL     1      36.130 -18.323 -22.462  0.00  0.00    -0.312 NA
ATOM      4  N   UNL     1      37.718 -19.072 -20.941  0.00  0.00    -0.332 N 
ATOM      5  N   UNL     1      34.540 -17.558 -24.001  0.00  0.00    -0.283 N 
ATOM      6  C   UNL     1      34.679 -21.426 -19.091  0.00  0.00    +0.010 C 
ATOM      7  C   UNL     1      35.694 -20.686 -19.650  0.00  0.00    -0.009 C 
ATOM      8  C   UNL     1      35.416 -19.881 -20.765  0.00  0.00    +0.115 C 
ATOM      9  C   UNL     1      34.118 -19.841 -21.287  0.00  0.00    +0.104 C 
ATOM     10  C   UNL     1      33.430 -21.341 -19.652  0.00  0.00    +0.107 C 
ATOM     11  C   UNL     1      37.047 -20.798 -19.016  0.00  0.00    +0.032 C 
ATOM     12  C   UNL     1      36.381 -19.099 -21.395  0.00  0.00    +0.201 C 
ATOM     13  C   UNL     1      34.858 -18.358 -22.882  0.00  0.00    +0.206 C 
ATOM     14  H   UNL     1      38.383 -18.512 -21.402  0.00  0.00    +0.145 HD
ATOM     15  H   UNL     1      37.984 -19.613 -20.162  0.00  0.00    +0.145 HD
ATOM     16  H   UNL     1      33.620 -17.546 -24.353  0.00  0.00    +0.156 HD
ATOM     17  H   UNL     1      35.239 -17.014 -24.431  0.00  0.00    +0.156 HD
ENDROOT
BRANCH   6  18
ATOM     18  C   UNL     1      34.894 -22.314 -17.895  0.00  0.00    +0.097 C 
BRANCH  18  19
ATOM     19  N   UNL     1      33.656 -22.870 -17.456  0.00  0.00    -0.288 NA
ATOM     20  H   UNL     1      32.920 -22.956 -18.106  0.00  0.00    +0.124 HD
BRANCH  19  22
ATOM     21  N   UNL     1      30.751 -23.833 -13.665  0.00  0.00    -0.248 NA
ATOM     22  C   UNL     1      33.439 -23.303 -16.126  0.00  0.00    +0.101 C 
ATOM     23  C   UNL     1      32.153 -23.345 -15.563  0.00  0.00    +0.010 C 
ATOM     24  C   UNL     1      31.969 -23.781 -14.235  0.00  0.00    +0.061 C 
ATOM     25  C   UNL     1      34.548 -23.693 -15.379  0.00  0.00    -0.010 C 
ATOM     26  C   UNL     1      31.020 -22.959 -16.293  0.00  0.00    +0.000 C 
ATOM     27  C   UNL     1      33.095 -24.164 -13.510  0.00  0.00    +0.071 C 
ATOM     28  C   UNL     1      34.375 -24.123 -14.069  0.00  0.00    -0.023 C 
ATOM     29  C   UNL     1      29.763 -23.011 -15.709  0.00  0.00    +0.020 C 
ATOM     30  C   UNL     1      29.683 -23.452 -14.404  0.00  0.00    +0.098 C 
ENDBRANCH  19  22
ENDBRANCH  18  19
ENDBRANCH   6  18
TORSDOF 3
ENDMDL
MODEL 9
REMARK VINA RESULT:     -10.2      2.427      8.563
REMARK  Name = 446752
REMARK  3 active torsions:
REMARK  status: ('A' for Active; 'I' for Inactive)
REMARK    1  A    between atoms: C_6  and  C_18
REMARK    2  A    between atoms: C_18  and  N_19
REMARK    3  A    between atoms: N_19  and  C_22
REMARK                            x       y       z     vdW  Elec       q    Type
REMARK                         _______ _______ _______ _____ _____    ______ ____
ROOT
ATOM      1  N   UNL     1      33.057 -20.791 -20.472  0.00  0.00    -0.182 NA
ATOM      2  N   UNL     1      33.772 -19.326 -22.115  0.00  0.00    -0.273 NA
ATOM      3  N   UNL     1      36.057 -18.575 -22.226  0.00  0.00    -0.312 NA
ATOM      4  N   UNL     1      37.634 -19.296 -20.679  0.00  0.00    -0.332 N 
ATOM      5  N   UNL     1      34.477 -17.840 -23.790  0.00  0.00    -0.283 N 
ATOM      6  C   UNL     1      34.583 -21.617 -18.808  0.00  0.00    +0.010 C 
ATOM      7  C   UNL     1      35.602 -20.886 -19.374  0.00  0.00    -0.009 C 
ATOM      8  C   UNL     1      35.331 -20.102 -20.505  0.00  0.00    +0.115 C 
ATOM      9  C   UNL     1      34.037 -20.073 -21.037  0.00  0.00    +0.104 C 
ATOM     10  C   UNL     1      33.338 -21.543 -19.379  0.00  0.00    +0.107 C 
ATOM     11  C   UNL     1      36.950 -20.986 -18.728  0.00  0.00    +0.032 C 
ATOM     12  C   UNL     1      36.301 -19.332 -21.142  0.00  0.00    +0.201 C 
ATOM     13  C   UNL     1      34.788 -18.619 -22.654  0.00  0.00    +0.206 C 
ATOM     14  H   UNL     1      38.302 -18.744 -21.146  0.00  0.00    +0.145 HD
ATOM     15  H   UNL     1      37.894 -19.822 -19.889  0.00  0.00    +0.145 HD
ATOM     16  H   UNL     1      33.560 -17.834 -24.148  0.00  0.00    +0.156 HD
ATOM     17  H   UNL     1      35.179 -17.303 -24.224  0.00  0.00    +0.156 HD
ENDROOT
BRANCH   6  18
ATOM     18  C   UNL     1      34.790 -22.482 -17.595  0.00  0.00    +0.097 C 
BRANCH  18  19
ATOM     19  N   UNL     1      33.676 -23.354 -17.407  0.00  0.00    -0.288 NA
ATOM     20  H   UNL     1      33.436 -23.976 -18.133  0.00  0.00    +0.124 HD
BRANCH  19  22
ATOM     21  N   UNL     1      33.163 -24.028 -12.609  0.00  0.00    -0.248 NA
ATOM     22  C   UNL     1      32.902 -23.364 -16.222  0.00  0.00    +0.101 C 
ATOM     23  C   UNL     1      33.459 -23.705 -14.979  0.00  0.00    +0.010 C 
ATOM     24  C   UNL     1      32.661 -23.705 -13.816  0.00  0.00    +0.061 C 
ATOM     25  C   UNL     1      31.556 -23.020 -16.321  0.00  0.00    -0.010 C 
ATOM     26  C   UNL     1      34.810 -24.054 -14.851  0.00  0.00    +0.000 C 
ATOM     27  C   UNL     1      31.319 -23.359 -13.943  0.00  0.00    +0.071 C 
ATOM     28  C   UNL     1      30.764 -23.018 -15.179  0.00  0.00    -0.023 C 
ATOM     29  C   UNL     1      35.331 -24.386 -13.610  0.00  0.00    +0.020 C 
ATOM     30  C   UNL     1      34.474 -24.358 -12.529  0.00  0.00    +0.098 C 
ENDBRANCH  19  22
ENDBRANCH  18  19
ENDBRANCH   6  18
TORSDOF 3
ENDMDL
