MODEL 1
REMARK VINA RESULT:     -13.2      0.000      0.000
REMARK  Name = 5073
REMARK  4 active torsions:
REMARK  status: ('A' for Active; 'I' for Inactive)
REMARK    1  A    between atoms: N_1  and  C_18
REMARK    2  A    between atoms: C_2  and  C_11
REMARK    3  A    between atoms: C_18  and  C_19
REMARK    4  A    between atoms: C_19  and  C_23
REMARK                            x       y       z     vdW  Elec       q    Type
REMARK                         _______ _______ _______ _____ _____    ______ ____
ROOT
ATOM      1  N   UNL     1      35.902 -19.751 -19.996  0.00  0.00    +0.387 N 
ATOM      2  C   UNL     1      35.336 -18.530 -22.603  0.00  0.00    +0.039 C 
ATOM      3  C   UNL     1      34.268 -19.287 -21.797  0.00  0.00    -0.017 C 
ATOM      4  C   UNL     1      36.418 -17.988 -21.655  0.00  0.00    -0.017 C 
ATOM      5  C   UNL     1      34.902 -20.348 -20.893  0.00  0.00    -0.077 C 
ATOM      6  C   UNL     1      36.974 -19.096 -20.757  0.00  0.00    -0.077 C 
ATOM      7  H   UNL     1      35.434 -19.039 -19.434  0.00  0.00    -0.080 HD
ENDROOT
BRANCH   2  11
ATOM      8  F   UNL     1      33.405 -12.148 -23.469  0.00  0.00    -0.204 F 
ATOM      9  O   UNL     1      33.887 -16.583 -25.266  0.00  0.00    -0.354 OA
ATOM     10  N   UNL     1      34.379 -17.767 -24.732  0.00  0.00    -0.081 NA
ATOM     11  C   UNL     1      34.745 -17.457 -23.490  0.00  0.00    +0.100 A 
ATOM     12  C   UNL     1      34.517 -16.112 -23.169  0.00  0.00    +0.054 A 
ATOM     13  C   UNL     1      33.970 -15.596 -24.332  0.00  0.00    +0.179 A 
ATOM     14  C   UNL     1      34.697 -15.263 -22.067  0.00  0.00    +0.007 C 
ATOM     15  C   UNL     1      33.577 -14.271 -24.493  0.00  0.00    +0.070 C 
ATOM     16  C   UNL     1      34.310 -13.921 -22.194  0.00  0.00    +0.030 C 
ATOM     17  C   UNL     1      33.762 -13.436 -23.386  0.00  0.00    +0.143 C 
ENDBRANCH   2  11
BRANCH   1  18
ATOM     18  C   UNL     1      36.456 -20.766 -19.101  0.00  0.00    -0.076 C 
BRANCH  18  19
ATOM     19  C   UNL     1      35.636 -22.045 -19.198  0.00  0.00    -0.007 C 
BRANCH  19  23
ATOM     20  O   UNL     1      32.914 -22.513 -18.853  0.00  0.00    -0.274 OA
ATOM     21  N   UNL     1      33.061 -22.977 -16.575  0.00  0.00    -0.237 N 
ATOM     22  N   UNL     1      35.162 -22.836 -15.495  0.00  0.00    -0.399 NA
ATOM     23  C   UNL     1      35.061 -22.414 -17.862  0.00  0.00    +0.123 C 
ATOM     24  C   UNL     1      31.604 -23.121 -16.481  0.00  0.00    +0.100 C 
ATOM     25  C   UNL     1      31.116 -23.832 -15.232  0.00  0.00    +0.022 C 
ATOM     26  C   UNL     1      33.883 -23.040 -15.464  0.00  0.00    +0.165 C 
ATOM     27  C   UNL     1      31.789 -23.223 -14.020  0.00  0.00    +0.011 C 
ATOM     28  C   UNL     1      33.285 -23.438 -14.127  0.00  0.00    +0.075 C 
ATOM     29  C   UNL     1      33.582 -22.640 -17.827  0.00  0.00    +0.237 C 
ATOM     30  C   UNL     1      35.740 -22.527 -16.703  0.00  0.00    +0.096 C 
ATOM     31  C   UNL     1      37.233 -22.354 -16.610  0.00  0.00    +0.062 C 
ENDBRANCH  19  23
ENDBRANCH  18  19
ENDBRANCH   1  18
TORSDOF 4
ENDMDL
MODEL 2
REMARK VINA RESULT:     -12.5      3.459     10.146
REMARK  Name = 5073
REMARK  4 active torsions:
REMARK  status: ('A' for Active; 'I' for Inactive)
REMARK    1  A    between atoms: N_1  and  C_18
REMARK    2  A    between atoms: C_2  and  C_11
REMARK    3  A    between atoms: C_18  and  C_19
REMARK    4  A    between atoms: C_19  and  C_23
REMARK                            x       y       z     vdW  Elec       q    Type
REMARK                         _______ _______ _______ _____ _____    ______ ____
ROOT
ATOM      1  N   UNL     1      34.420 -20.474 -20.030  0.00  0.00    +0.387 N 
ATOM      2  C   UNL     1      34.178 -22.595 -18.017  0.00  0.00    +0.039 C 
ATOM      3  C   UNL     1      35.516 -21.904 -18.333  0.00  0.00    -0.017 C 
ATOM      4  C   UNL     1      33.011 -21.660 -18.376  0.00  0.00    -0.017 C 
ATOM      5  C   UNL     1      35.545 -21.384 -19.772  0.00  0.00    -0.077 C 
ATOM      6  C   UNL     1      33.132 -21.148 -19.813  0.00  0.00    -0.077 C 
ATOM      7  H   UNL     1      34.485 -19.699 -19.371  0.00  0.00    -0.080 HD
ENDROOT
BRANCH   2  11
ATOM      8  F   UNL     1      30.488 -24.352 -12.678  0.00  0.00    -0.204 F 
ATOM      9  O   UNL     1      34.823 -23.814 -14.689  0.00  0.00    -0.354 OA
ATOM     10  N   UNL     1      35.232 -23.383 -15.944  0.00  0.00    -0.081 NA
ATOM     11  C   UNL     1      34.105 -23.101 -16.594  0.00  0.00    +0.100 A 
ATOM     12  C   UNL     1      32.955 -23.327 -15.825  0.00  0.00    +0.054 A 
ATOM     13  C   UNL     1      33.464 -23.781 -14.620  0.00  0.00    +0.179 A 
ATOM     14  C   UNL     1      31.565 -23.214 -15.977  0.00  0.00    +0.007 C 
ATOM     15  C   UNL     1      32.684 -24.141 -13.525  0.00  0.00    +0.070 C 
ATOM     16  C   UNL     1      30.749 -23.567 -14.893  0.00  0.00    +0.030 C 
ATOM     17  C   UNL     1      31.300 -24.023 -13.691  0.00  0.00    +0.143 C 
ENDBRANCH   2  11
BRANCH   1  18
ATOM     18  C   UNL     1      34.495 -19.941 -21.391  0.00  0.00    -0.076 C 
BRANCH  18  19
ATOM     19  C   UNL     1      35.500 -18.798 -21.443  0.00  0.00    -0.007 C 
BRANCH  19  23
ATOM     20  O   UNL     1      35.204 -16.170 -20.578  0.00  0.00    -0.274 OA
ATOM     21  N   UNL     1      34.471 -15.347 -22.630  0.00  0.00    -0.237 N 
ATOM     22  N   UNL     1      34.203 -16.837 -24.449  0.00  0.00    -0.399 NA
ATOM     23  C   UNL     1      35.026 -17.712 -22.365  0.00  0.00    +0.123 C 
ATOM     24  C   UNL     1      34.268 -14.013 -22.056  0.00  0.00    +0.100 C 
ATOM     25  C   UNL     1      34.142 -12.896 -23.075  0.00  0.00    +0.022 C 
ATOM     26  C   UNL     1      34.117 -15.652 -23.932  0.00  0.00    +0.165 C 
ATOM     27  C   UNL     1      33.144 -13.304 -24.138  0.00  0.00    +0.011 C 
ATOM     28  C   UNL     1      33.663 -14.535 -24.853  0.00  0.00    +0.075 C 
ATOM     29  C   UNL     1      34.918 -16.346 -21.762  0.00  0.00    +0.237 C 
ATOM     30  C   UNL     1      34.664 -17.859 -23.654  0.00  0.00    +0.096 C 
ATOM     31  C   UNL     1      34.754 -19.174 -24.384  0.00  0.00    +0.062 C 
ENDBRANCH  19  23
ENDBRANCH  18  19
ENDBRANCH   1  18
TORSDOF 4
ENDMDL
MODEL 3
REMARK VINA RESULT:     -12.2      3.264     10.079
REMARK  Name = 5073
REMARK  4 active torsions:
REMARK  status: ('A' for Active; 'I' for Inactive)
REMARK    1  A    between atoms: N_1  and  C_18
REMARK    2  A    between atoms: C_2  and  C_11
REMARK    3  A    between atoms: C_18  and  C_19
REMARK    4  A    between atoms: C_19  and  C_23
REMARK                            x       y       z     vdW  Elec       q    Type
REMARK                         _______ _______ _______ _____ _____    ______ ____
ROOT
ATOM      1  N   UNL     1      35.757 -18.360 -21.425  0.00  0.00    +0.387 N 
ATOM      2  C   UNL     1      35.907 -20.822 -19.835  0.00  0.00    +0.039 C 
ATOM      3  C   UNL     1      37.011 -19.751 -19.806  0.00  0.00    -0.017 C 
ATOM      4  C   UNL     1      34.569 -20.180 -20.240  0.00  0.00    -0.017 C 
ATOM      5  C   UNL     1      37.060 -18.968 -21.121  0.00  0.00    -0.077 C 
ATOM      6  C   UNL     1      34.708 -19.382 -21.539  0.00  0.00    -0.077 C 
ATOM      7  H   UNL     1      35.511 -17.741 -20.652  0.00  0.00    -0.080 HD
ENDROOT
BRANCH   2  11
ATOM      8  F   UNL     1      32.170 -24.072 -15.288  0.00  0.00    -0.204 F 
ATOM      9  O   UNL     1      36.500 -22.561 -16.737  0.00  0.00    -0.354 OA
ATOM     10  N   UNL     1      36.924 -21.843 -17.847  0.00  0.00    -0.081 NA
ATOM     11  C   UNL     1      35.814 -21.599 -18.542  0.00  0.00    +0.100 A 
ATOM     12  C   UNL     1      34.662 -22.127 -17.941  0.00  0.00    +0.054 A 
ATOM     13  C   UNL     1      35.150 -22.731 -16.795  0.00  0.00    +0.179 A 
ATOM     14  C   UNL     1      33.286 -22.179 -18.205  0.00  0.00    +0.007 C 
ATOM     15  C   UNL     1      34.361 -23.400 -15.864  0.00  0.00    +0.070 C 
ATOM     16  C   UNL     1      32.460 -22.845 -17.288  0.00  0.00    +0.030 C 
ATOM     17  C   UNL     1      32.990 -23.444 -16.140  0.00  0.00    +0.143 C 
ENDBRANCH   2  11
BRANCH   1  18
ATOM     18  C   UNL     1      35.836 -17.569 -22.653  0.00  0.00    -0.076 C 
BRANCH  18  19
ATOM     19  C   UNL     1      34.436 -17.211 -23.129  0.00  0.00    -0.007 C 
BRANCH  19  23
ATOM     20  O   UNL     1      33.903 -15.895 -25.523  0.00  0.00    -0.274 OA
ATOM     21  N   UNL     1      33.810 -13.765 -24.584  0.00  0.00    -0.237 N 
ATOM     22  N   UNL     1      34.217 -13.500 -22.268  0.00  0.00    -0.399 NA
ATOM     23  C   UNL     1      34.256 -15.722 -23.189  0.00  0.00    +0.123 C 
ATOM     24  C   UNL     1      33.616 -13.159 -25.905  0.00  0.00    +0.100 C 
ATOM     25  C   UNL     1      33.090 -11.737 -25.880  0.00  0.00    +0.022 C 
ATOM     26  C   UNL     1      33.962 -13.006 -23.438  0.00  0.00    +0.165 C 
ATOM     27  C   UNL     1      33.912 -10.921 -24.905  0.00  0.00    +0.011 C 
ATOM     28  C   UNL     1      33.752 -11.505 -23.516  0.00  0.00    +0.075 C 
ATOM     29  C   UNL     1      33.970 -15.152 -24.543  0.00  0.00    +0.237 C 
ATOM     30  C   UNL     1      34.358 -14.863 -22.156  0.00  0.00    +0.096 C 
ATOM     31  C   UNL     1      34.613 -15.311 -20.741  0.00  0.00    +0.062 C 
ENDBRANCH  19  23
ENDBRANCH  18  19
ENDBRANCH   1  18
TORSDOF 4
ENDMDL
MODEL 4
REMARK VINA RESULT:     -12.0      6.887     13.476
REMARK  Name = 5073
REMARK  4 active torsions:
REMARK  status: ('A' for Active; 'I' for Inactive)
REMARK    1  A    between atoms: N_1  and  C_18
REMARK    2  A    between atoms: C_2  and  C_11
REMARK    3  A    between atoms: C_18  and  C_19
REMARK    4  A    between atoms: C_19  and  C_23
REMARK                            x       y       z     vdW  Elec       q    Type
REMARK                         _______ _______ _______ _____ _____    ______ ____
ROOT
ATOM      1  N   UNL     1      31.972 -10.549 -22.499  0.00  0.00    +0.387 N 
ATOM      2  C   UNL     1      33.550 -12.956 -23.070  0.00  0.00    +0.039 C 
ATOM      3  C   UNL     1      32.316 -12.975 -22.151  0.00  0.00    -0.017 C 
ATOM      4  C   UNL     1      33.444 -11.784 -24.059  0.00  0.00    -0.017 C 
ATOM      5  C   UNL     1      32.094 -11.612 -21.491  0.00  0.00    -0.077 C 
ATOM      6  C   UNL     1      33.181 -10.464 -23.329  0.00  0.00    -0.077 C 
ATOM      7  H   UNL     1      31.187 -10.781 -23.107  0.00  0.00    -0.080 HD
ENDROOT
BRANCH   2  11
ATOM      8  F   UNL     1      35.811 -19.284 -22.830  0.00  0.00    -0.204 F 
ATOM      9  O   UNL     1      33.770 -15.734 -25.353  0.00  0.00    -0.354 OA
ATOM     10  N   UNL     1      33.422 -14.429 -25.031  0.00  0.00    -0.081 NA
ATOM     11  C   UNL     1      33.785 -14.282 -23.758  0.00  0.00    +0.100 A 
ATOM     12  C   UNL     1      34.361 -15.438 -23.213  0.00  0.00    +0.054 A 
ATOM     13  C   UNL     1      34.329 -16.335 -24.267  0.00  0.00    +0.179 A 
ATOM     14  C   UNL     1      34.900 -15.849 -21.985  0.00  0.00    +0.007 C 
ATOM     15  C   UNL     1      34.801 -17.643 -24.199  0.00  0.00    +0.070 C 
ATOM     16  C   UNL     1      35.387 -17.160 -21.881  0.00  0.00    +0.030 C 
ATOM     17  C   UNL     1      35.337 -18.039 -22.968  0.00  0.00    +0.143 C 
ENDBRANCH   2  11
BRANCH   1  18
ATOM     18  C   UNL     1      31.703  -9.263 -21.854  0.00  0.00    -0.076 C 
BRANCH  18  19
ATOM     19  C   UNL     1      32.943  -8.383 -21.918  0.00  0.00    -0.007 C 
BRANCH  19  23
ATOM     20  O   UNL     1      32.741  -7.121 -24.390  0.00  0.00    -0.274 OA
ATOM     21  N   UNL     1      32.145  -5.042 -23.525  0.00  0.00    -0.237 N 
ATOM     22  N   UNL     1      32.013  -4.757 -21.180  0.00  0.00    -0.399 NA
ATOM     23  C   UNL     1      32.566  -6.935 -22.037  0.00  0.00    +0.123 C 
ATOM     24  C   UNL     1      32.147  -4.450 -24.867  0.00  0.00    +0.100 C 
ATOM     25  C   UNL     1      31.427  -3.119 -24.975  0.00  0.00    +0.022 C 
ATOM     26  C   UNL     1      31.940  -4.287 -22.384  0.00  0.00    +0.165 C 
ATOM     27  C   UNL     1      31.898  -2.208 -23.861  0.00  0.00    +0.011 C 
ATOM     28  C   UNL     1      31.536  -2.831 -22.528  0.00  0.00    +0.075 C 
ATOM     29  C   UNL     1      32.492  -6.392 -23.430  0.00  0.00    +0.237 C 
ATOM     30  C   UNL     1      32.323  -6.086 -21.020  0.00  0.00    +0.096 C 
ATOM     31  C   UNL     1      32.337  -6.515 -19.576  0.00  0.00    +0.062 C 
ENDBRANCH  19  23
ENDBRANCH  18  19
ENDBRANCH   1  18
TORSDOF 4
ENDMDL
MODEL 5
REMARK VINA RESULT:     -11.9      3.419     10.125
REMARK  Name = 5073
REMARK  4 active torsions:
REMARK  status: ('A' for Active; 'I' for Inactive)
REMARK    1  A    between atoms: N_1  and  C_18
REMARK    2  A    between atoms: C_2  and  C_11
REMARK    3  A    between atoms: C_18  and  C_19
REMARK    4  A    between atoms: C_19  and  C_23
REMARK                            x       y       z     vdW  Elec       q    Type
REMARK                         _______ _______ _______ _____ _____    ______ ____
ROOT
ATOM      1  N   UNL     1      35.661 -18.452 -21.238  0.00  0.00    +0.387 N 
ATOM      2  C   UNL     1      35.552 -21.024 -19.828  0.00  0.00    +0.039 C 
ATOM      3  C   UNL     1      36.710 -20.029 -19.644  0.00  0.00    -0.017 C 
ATOM      4  C   UNL     1      34.287 -20.273 -20.277  0.00  0.00    -0.017 C 
ATOM      5  C   UNL     1      36.901 -19.162 -20.890  0.00  0.00    -0.077 C 
ATOM      6  C   UNL     1      34.566 -19.397 -21.500  0.00  0.00    -0.077 C 
ATOM      7  H   UNL     1      35.395 -17.875 -20.440  0.00  0.00    -0.080 HD
ENDROOT
BRANCH   2  11
ATOM      8  F   UNL     1      37.498 -23.045 -13.717  0.00  0.00    -0.204 F 
ATOM      9  O   UNL     1      34.336 -23.318 -17.331  0.00  0.00    -0.354 OA
ATOM     10  N   UNL     1      34.256 -22.681 -18.563  0.00  0.00    -0.081 NA
ATOM     11  C   UNL     1      35.320 -21.882 -18.606  0.00  0.00    +0.100 A 
ATOM     12  C   UNL     1      36.111 -21.957 -17.450  0.00  0.00    +0.054 A 
ATOM     13  C   UNL     1      35.443 -22.884 -16.668  0.00  0.00    +0.179 A 
ATOM     14  C   UNL     1      37.288 -21.375 -16.959  0.00  0.00    +0.007 C 
ATOM     15  C   UNL     1      35.860 -23.290 -15.404  0.00  0.00    +0.070 C 
ATOM     16  C   UNL     1      37.739 -21.762 -15.689  0.00  0.00    +0.030 C 
ATOM     17  C   UNL     1      37.036 -22.701 -14.927  0.00  0.00    +0.143 C 
ENDBRANCH   2  11
BRANCH   1  18
ATOM     18  C   UNL     1      35.876 -17.584 -22.395  0.00  0.00    -0.076 C 
BRANCH  18  19
ATOM     19  C   UNL     1      34.543 -17.263 -23.056  0.00  0.00    -0.007 C 
BRANCH  19  23
ATOM     20  O   UNL     1      33.996 -15.974 -25.460  0.00  0.00    -0.274 OA
ATOM     21  N   UNL     1      33.838 -13.843 -24.532  0.00  0.00    -0.237 N 
ATOM     22  N   UNL     1      34.217 -13.556 -22.215  0.00  0.00    -0.399 NA
ATOM     23  C   UNL     1      34.324 -15.780 -23.124  0.00  0.00    +0.123 C 
ATOM     24  C   UNL     1      33.639 -13.248 -25.858  0.00  0.00    +0.100 C 
ATOM     25  C   UNL     1      33.075 -11.840 -25.845  0.00  0.00    +0.022 C 
ATOM     26  C   UNL     1      33.959 -13.074 -23.389  0.00  0.00    +0.165 C 
ATOM     27  C   UNL     1      33.866 -10.998 -24.866  0.00  0.00    +0.011 C 
ATOM     28  C   UNL     1      33.710 -11.579 -23.476  0.00  0.00    +0.075 C 
ATOM     29  C   UNL     1      34.035 -15.225 -24.484  0.00  0.00    +0.237 C 
ATOM     30  C   UNL     1      34.394 -14.914 -22.095  0.00  0.00    +0.096 C 
ATOM     31  C   UNL     1      34.648 -15.348 -20.675  0.00  0.00    +0.062 C 
ENDBRANCH  19  23
ENDBRANCH  18  19
ENDBRANCH   1  18
TORSDOF 4
ENDMDL
MODEL 6
REMARK VINA RESULT:     -11.8      2.662      4.615
REMARK  Name = 5073
REMARK  4 active torsions:
REMARK  status: ('A' for Active; 'I' for Inactive)
REMARK    1  A    between atoms: N_1  and  C_18
REMARK    2  A    between atoms: C_2  and  C_11
REMARK    3  A    between atoms: C_18  and  C_19
REMARK    4  A    between atoms: C_19  and  C_23
REMARK                            x       y       z     vdW  Elec       q    Type
REMARK                         _______ _______ _______ _____ _____    ______ ____
ROOT
ATOM      1  N   UNL     1      34.073 -22.357 -17.653  0.00  0.00    +0.387 N 
ATOM      2  C   UNL     1      34.990 -20.856 -20.002  0.00  0.00    +0.039 C 
ATOM      3  C   UNL     1      33.530 -20.824 -19.519  0.00  0.00    -0.017 C 
ATOM      4  C   UNL     1      35.920 -21.201 -18.827  0.00  0.00    -0.017 C 
ATOM      5  C   UNL     1      33.161 -22.112 -18.780  0.00  0.00    -0.077 C 
ATOM      6  C   UNL     1      35.464 -22.475 -18.113  0.00  0.00    -0.077 C 
ATOM      7  H   UNL     1      34.016 -21.557 -17.023  0.00  0.00    -0.080 HD
ENDROOT
BRANCH   2  11
ATOM      8  F   UNL     1      34.351 -16.713 -25.260  0.00  0.00    -0.204 F 
ATOM      9  O   UNL     1      36.456 -17.741 -21.060  0.00  0.00    -0.354 OA
ATOM     10  N   UNL     1      36.316 -18.797 -20.169  0.00  0.00    -0.081 NA
ATOM     11  C   UNL     1      35.396 -19.588 -20.717  0.00  0.00    +0.100 A 
ATOM     12  C   UNL     1      34.914 -19.103 -21.941  0.00  0.00    +0.054 A 
ATOM     13  C   UNL     1      35.619 -17.925 -22.116  0.00  0.00    +0.179 A 
ATOM     14  C   UNL     1      33.985 -19.493 -22.918  0.00  0.00    +0.007 C 
ATOM     15  C   UNL     1      35.472 -17.078 -23.212  0.00  0.00    +0.070 C 
ATOM     16  C   UNL     1      33.813 -18.664 -24.036  0.00  0.00    +0.030 C 
ATOM     17  C   UNL     1      34.543 -17.480 -24.178  0.00  0.00    +0.143 C 
ENDBRANCH   2  11
BRANCH   1  18
ATOM     18  C   UNL     1      33.672 -23.559 -16.923  0.00  0.00    -0.076 C 
BRANCH  18  19
ATOM     19  C   UNL     1      32.871 -23.171 -15.688  0.00  0.00    -0.007 C 
BRANCH  19  23
ATOM     20  O   UNL     1      35.493 -22.413 -15.146  0.00  0.00    -0.274 OA
ATOM     21  N   UNL     1      35.627 -23.534 -13.109  0.00  0.00    -0.237 N 
ATOM     22  N   UNL     1      33.776 -24.804 -12.360  0.00  0.00    -0.399 NA
ATOM     23  C   UNL     1      33.576 -23.605 -14.436  0.00  0.00    +0.123 C 
ATOM     24  C   UNL     1      37.035 -23.150 -12.957  0.00  0.00    +0.100 C 
ATOM     25  C   UNL     1      37.584 -23.296 -11.550  0.00  0.00    +0.022 C 
ATOM     26  C   UNL     1      34.990 -24.376 -12.215  0.00  0.00    +0.165 C 
ATOM     27  C   UNL     1      37.222 -24.666 -11.016  0.00  0.00    +0.011 C 
ATOM     28  C   UNL     1      35.713 -24.784 -10.944  0.00  0.00    +0.075 C 
ATOM     29  C   UNL     1      34.982 -23.118 -14.276  0.00  0.00    +0.237 C 
ATOM     30  C   UNL     1      33.077 -24.406 -13.475  0.00  0.00    +0.096 C 
ATOM     31  C   UNL     1      31.668 -24.938 -13.503  0.00  0.00    +0.062 C 
ENDBRANCH  19  23
ENDBRANCH  18  19
ENDBRANCH   1  18
TORSDOF 4
ENDMDL
MODEL 7
REMARK VINA RESULT:     -11.8      7.017     13.641
REMARK  Name = 5073
REMARK  4 active torsions:
REMARK  status: ('A' for Active; 'I' for Inactive)
REMARK    1  A    between atoms: N_1  and  C_18
REMARK    2  A    between atoms: C_2  and  C_11
REMARK    3  A    between atoms: C_18  and  C_19
REMARK    4  A    between atoms: C_19  and  C_23
REMARK                            x       y       z     vdW  Elec       q    Type
REMARK                         _______ _______ _______ _____ _____    ______ ____
ROOT
ATOM      1  N   UNL     1      32.127 -10.216 -22.656  0.00  0.00    +0.387 N 
ATOM      2  C   UNL     1      33.566 -12.734 -23.104  0.00  0.00    +0.039 C 
ATOM      3  C   UNL     1      32.240 -12.667 -22.328  0.00  0.00    -0.017 C 
ATOM      4  C   UNL     1      33.664 -11.544 -24.072  0.00  0.00    -0.017 C 
ATOM      5  C   UNL     1      32.053 -11.300 -21.666  0.00  0.00    -0.077 C 
ATOM      6  C   UNL     1      33.424 -10.217 -23.347  0.00  0.00    -0.077 C 
ATOM      7  H   UNL     1      31.400 -10.377 -23.353  0.00  0.00    -0.080 HD
ENDROOT
BRANCH   2  11
ATOM      8  F   UNL     1      35.693 -19.108 -22.862  0.00  0.00    -0.204 F 
ATOM      9  O   UNL     1      33.725 -15.518 -25.385  0.00  0.00    -0.354 OA
ATOM     10  N   UNL     1      33.406 -14.205 -25.064  0.00  0.00    -0.081 NA
ATOM     11  C   UNL     1      33.773 -14.065 -23.792  0.00  0.00    +0.100 A 
ATOM     12  C   UNL     1      34.325 -15.233 -23.247  0.00  0.00    +0.054 A 
ATOM     13  C   UNL     1      34.273 -16.130 -24.300  0.00  0.00    +0.179 A 
ATOM     14  C   UNL     1      34.857 -15.655 -22.019  0.00  0.00    +0.007 C 
ATOM     15  C   UNL     1      34.718 -17.447 -24.231  0.00  0.00    +0.070 C 
ATOM     16  C   UNL     1      35.316 -16.976 -21.914  0.00  0.00    +0.030 C 
ATOM     17  C   UNL     1      35.246 -17.853 -23.001  0.00  0.00    +0.143 C 
ENDBRANCH   2  11
BRANCH   1  18
ATOM     18  C   UNL     1      31.889  -8.922 -22.017  0.00  0.00    -0.076 C 
BRANCH  18  19
ATOM     19  C   UNL     1      33.183  -8.122 -21.972  0.00  0.00    -0.007 C 
BRANCH  19  23
ATOM     20  O   UNL     1      31.435  -6.240 -20.901  0.00  0.00    -0.274 OA
ATOM     21  N   UNL     1      31.862  -4.608 -22.509  0.00  0.00    -0.237 N 
ATOM     22  N   UNL     1      33.362  -5.085 -24.275  0.00  0.00    -0.399 NA
ATOM     23  C   UNL     1      32.998  -6.771 -22.598  0.00  0.00    +0.123 C 
ATOM     24  C   UNL     1      30.856  -3.720 -21.917  0.00  0.00    +0.100 C 
ATOM     25  C   UNL     1      30.959  -2.269 -22.347  0.00  0.00    +0.022 C 
ATOM     26  C   UNL     1      32.530  -4.293 -23.678  0.00  0.00    +0.165 C 
ATOM     27  C   UNL     1      31.075  -2.206 -23.855  0.00  0.00    +0.011 C 
ATOM     28  C   UNL     1      32.346  -2.912 -24.281  0.00  0.00    +0.075 C 
ATOM     29  C   UNL     1      32.028  -5.860 -21.911  0.00  0.00    +0.237 C 
ATOM     30  C   UNL     1      33.591  -6.322 -23.721  0.00  0.00    +0.096 C 
ATOM     31  C   UNL     1      34.606  -7.129 -24.488  0.00  0.00    +0.062 C 
ENDBRANCH  19  23
ENDBRANCH  18  19
ENDBRANCH   1  18
TORSDOF 4
ENDMDL
MODEL 8
REMARK VINA RESULT:     -11.7      5.780     10.009
REMARK  Name = 5073
REMARK  4 active torsions:
REMARK  status: ('A' for Active; 'I' for Inactive)
REMARK    1  A    between atoms: N_1  and  C_18
REMARK    2  A    between atoms: C_2  and  C_11
REMARK    3  A    between atoms: C_18  and  C_19
REMARK    4  A    between atoms: C_19  and  C_23
REMARK                            x       y       z     vdW  Elec       q    Type
REMARK                         _______ _______ _______ _____ _____    ______ ____
ROOT
ATOM      1  N   UNL     1      32.446 -11.495 -22.524  0.00  0.00    +0.387 N 
ATOM      2  C   UNL     1      32.807  -8.589 -22.705  0.00  0.00    +0.039 C 
ATOM      3  C   UNL     1      33.243  -9.547 -23.826  0.00  0.00    -0.017 C 
ATOM      4  C   UNL     1      31.680  -9.231 -21.880  0.00  0.00    -0.017 C 
ATOM      5  C   UNL     1      33.580 -10.933 -23.273  0.00  0.00    -0.077 C 
ATOM      6  C   UNL     1      32.074 -10.629 -21.397  0.00  0.00    -0.077 C 
ATOM      7  H   UNL     1      31.648 -11.549 -23.157  0.00  0.00    -0.080 HD
ENDROOT
BRANCH   2  11
ATOM      8  F   UNL     1      34.495  -3.057 -26.135  0.00  0.00    -0.204 F 
ATOM      9  O   UNL     1      31.228  -5.464 -23.555  0.00  0.00    -0.354 OA
ATOM     10  N   UNL     1      31.240  -6.714 -22.950  0.00  0.00    -0.081 NA
ATOM     11  C   UNL     1      32.444  -7.214 -23.220  0.00  0.00    +0.100 A 
ATOM     12  C   UNL     1      33.240  -6.349 -23.984  0.00  0.00    +0.054 A 
ATOM     13  C   UNL     1      32.421  -5.248 -24.172  0.00  0.00    +0.179 A 
ATOM     14  C   UNL     1      34.528  -6.343 -24.540  0.00  0.00    +0.007 C 
ATOM     15  C   UNL     1      32.788  -4.111 -24.886  0.00  0.00    +0.070 C 
ATOM     16  C   UNL     1      34.931  -5.212 -25.265  0.00  0.00    +0.030 C 
ATOM     17  C   UNL     1      34.075  -4.119 -25.434  0.00  0.00    +0.143 C 
ENDBRANCH   2  11
BRANCH   1  18
ATOM     18  C   UNL     1      32.764 -12.843 -22.052  0.00  0.00    -0.076 C 
BRANCH  18  19
ATOM     19  C   UNL     1      34.163 -13.233 -22.504  0.00  0.00    -0.007 C 
BRANCH  19  23
ATOM     20  O   UNL     1      34.994 -15.398 -20.965  0.00  0.00    -0.274 OA
ATOM     21  N   UNL     1      34.659 -16.990 -22.632  0.00  0.00    -0.237 N 
ATOM     22  N   UNL     1      33.908 -16.296 -24.765  0.00  0.00    -0.399 NA
ATOM     23  C   UNL     1      34.178 -14.631 -23.050  0.00  0.00    +0.123 C 
ATOM     24  C   UNL     1      35.193 -18.049 -21.768  0.00  0.00    +0.100 C 
ATOM     25  C   UNL     1      34.860 -19.460 -22.215  0.00  0.00    +0.022 C 
ATOM     26  C   UNL     1      34.304 -17.220 -23.949  0.00  0.00    +0.165 C 
ATOM     27  C   UNL     1      35.176 -19.602 -23.689  0.00  0.00    +0.011 C 
ATOM     28  C   UNL     1      34.303 -18.644 -24.474  0.00  0.00    +0.075 C 
ATOM     29  C   UNL     1      34.646 -15.695 -22.108  0.00  0.00    +0.237 C 
ATOM     30  C   UNL     1      33.845 -15.004 -24.302  0.00  0.00    +0.096 C 
ATOM     31  C   UNL     1      33.333 -14.034 -25.335  0.00  0.00    +0.062 C 
ENDBRANCH  19  23
ENDBRANCH  18  19
ENDBRANCH   1  18
TORSDOF 4
ENDMDL
MODEL 9
REMARK VINA RESULT:     -11.6      3.763     10.224
REMARK  Name = 5073
REMARK  4 active torsions:
REMARK  status: ('A' for Active; 'I' for Inactive)
REMARK    1  A    between atoms: N_1  and  C_18
REMARK    2  A    between atoms: C_2  and  C_11
REMARK    3  A    between atoms: C_18  and  C_19
REMARK    4  A    between atoms: C_19  and  C_23
REMARK                            x       y       z     vdW  Elec       q    Type
REMARK                         _______ _______ _______ _____ _____    ______ ____
ROOT
ATOM      1  N   UNL     1      34.487 -20.790 -19.615  0.00  0.00    +0.387 N 
ATOM      2  C   UNL     1      34.255 -22.836 -17.525  0.00  0.00    +0.039 C 
ATOM      3  C   UNL     1      35.548 -22.035 -17.758  0.00  0.00    -0.017 C 
ATOM      4  C   UNL     1      33.046 -22.033 -18.032  0.00  0.00    -0.017 C 
ATOM      5  C   UNL     1      35.662 -21.576 -19.213  0.00  0.00    -0.077 C 
ATOM      6  C   UNL     1      33.252 -21.573 -19.477  0.00  0.00    -0.077 C 
ATOM      7  H   UNL     1      34.420 -19.984 -18.993  0.00  0.00    -0.080 HD
ENDROOT
BRANCH   2  11
ATOM      8  F   UNL     1      37.050 -24.540 -11.651  0.00  0.00    -0.204 F 
ATOM      9  O   UNL     1      33.080 -23.882 -14.284  0.00  0.00    -0.354 OA
ATOM     10  N   UNL     1      32.876 -23.483 -15.599  0.00  0.00    -0.081 NA
ATOM     11  C   UNL     1      34.098 -23.285 -16.090  0.00  0.00    +0.100 A 
ATOM     12  C   UNL     1      35.113 -23.535 -15.156  0.00  0.00    +0.054 A 
ATOM     13  C   UNL     1      34.415 -23.912 -14.021  0.00  0.00    +0.179 A 
ATOM     14  C   UNL     1      36.515 -23.495 -15.110  0.00  0.00    +0.007 C 
ATOM     15  C   UNL     1      35.011 -24.261 -12.813  0.00  0.00    +0.070 C 
ATOM     16  C   UNL     1      37.149 -23.841 -13.908  0.00  0.00    +0.030 C 
ATOM     17  C   UNL     1      36.409 -24.216 -12.782  0.00  0.00    +0.143 C 
ENDBRANCH   2  11
BRANCH   1  18
ATOM     18  C   UNL     1      34.638 -20.310 -20.989  0.00  0.00    -0.076 C 
BRANCH  18  19
ATOM     19  C   UNL     1      35.640 -19.166 -21.030  0.00  0.00    -0.007 C 
BRANCH  19  23
ATOM     20  O   UNL     1      35.267 -16.541 -20.183  0.00  0.00    -0.274 OA
ATOM     21  N   UNL     1      34.600 -15.734 -22.264  0.00  0.00    -0.237 N 
ATOM     22  N   UNL     1      34.428 -17.232 -24.088  0.00  0.00    -0.399 NA
ATOM     23  C   UNL     1      35.184 -18.089 -21.971  0.00  0.00    +0.123 C 
ATOM     24  C   UNL     1      34.353 -14.403 -21.701  0.00  0.00    +0.100 C 
ATOM     25  C   UNL     1      34.247 -13.290 -22.727  0.00  0.00    +0.022 C 
ATOM     26  C   UNL     1      34.302 -16.048 -23.578  0.00  0.00    +0.165 C 
ATOM     27  C   UNL     1      33.298 -13.717 -23.827  0.00  0.00    +0.011 C 
ATOM     28  C   UNL     1      33.865 -14.940 -24.518  0.00  0.00    +0.075 C 
ATOM     29  C   UNL     1      35.030 -16.724 -21.377  0.00  0.00    +0.237 C 
ATOM     30  C   UNL     1      34.875 -18.245 -23.274  0.00  0.00    +0.096 C 
ATOM     31  C   UNL     1      35.015 -19.559 -23.996  0.00  0.00    +0.062 C 
ENDBRANCH  19  23
ENDBRANCH  18  19
ENDBRANCH   1  18
TORSDOF 4
ENDMDL
