MODEL 1
REMARK VINA RESULT:     -11.7      0.000      0.000
REMARK  Name = 24871491
REMARK  6 active torsions:
REMARK  status: ('A' for Active; 'I' for Inactive)
REMARK    1  A    between atoms: N_1  and  C_11
REMARK    2  A    between atoms: N_2  and  C_18
REMARK    3  A    between atoms: C_6  and  C_31
REMARK    4  A    between atoms: C_19  and  C_24
REMARK    5  A    between atoms: C_24  and  C_26
REMARK    6  A    between atoms: C_26  and  O_27
REMARK                            x       y       z     vdW  Elec       q    Type
REMARK                         _______ _______ _______ _____ _____    ______ ____
ROOT
ATOM      1  N   UNL     1      32.009 -23.078 -17.244  0.00  0.00    -0.287 N 
ATOM      2  N   UNL     1      34.076 -24.601 -13.291  0.00  0.00    -0.247 N 
ATOM      3  N   UNL     1      33.060 -23.844 -15.263  0.00  0.00    -0.322 NA
ATOM      4  N   UNL     1      31.744 -24.368 -13.314  0.00  0.00    -0.169 NA
ATOM      5  C   UNL     1      31.916 -23.519 -15.902  0.00  0.00    +0.202 C 
ATOM      6  C   UNL     1      30.667 -23.591 -15.321  0.00  0.00    +0.118 C 
ATOM      7  C   UNL     1      32.902 -24.255 -13.990  0.00  0.00    +0.150 C 
ATOM      8  C   UNL     1      30.640 -24.028 -14.012  0.00  0.00    +0.120 C 
ATOM      9  H   UNL     1      31.218 -23.295 -17.789  0.00  0.00    +0.155 HD
ATOM     10  H   UNL     1      33.913 -24.895 -12.366  0.00  0.00    +0.165 HD
ENDROOT
BRANCH   1  11
ATOM     11  C   UNL     1      33.010 -22.391 -17.950  0.00  0.00    +0.050 C 
ATOM     12  C   UNL     1      34.344 -22.504 -17.556  0.00  0.00    +0.010 C 
ATOM     13  C   UNL     1      35.338 -21.822 -18.257  0.00  0.00    -0.021 C 
ATOM     14  C   UNL     1      32.672 -21.596 -19.044  0.00  0.00    +0.015 C 
ATOM     15  C   UNL     1      35.000 -21.027 -19.352  0.00  0.00    -0.004 C 
ATOM     16  C   UNL     1      33.666 -20.913 -19.745  0.00  0.00    +0.001 C 
ATOM     17  C   UNL     1      36.764 -21.942 -17.835  0.00  0.00    +0.031 C 
ENDBRANCH   1  11
BRANCH   2  18
ATOM     18  C   UNL     1      35.438 -24.611 -13.656  0.00  0.00    +0.058 C 
ATOM     19  C   UNL     1      38.131 -24.630 -14.380  0.00  0.00    -0.011 C 
ATOM     20  C   UNL     1      36.236 -23.497 -13.400  0.00  0.00    +0.015 C 
ATOM     21  C   UNL     1      35.986 -25.735 -14.275  0.00  0.00    +0.015 C 
ATOM     22  C   UNL     1      37.584 -23.506 -13.762  0.00  0.00    -0.002 C 
ATOM     23  C   UNL     1      37.332 -25.744 -14.637  0.00  0.00    -0.002 C 
BRANCH  19  24
ATOM     24  C   UNL     1      39.572 -24.640 -14.767  0.00  0.00    +0.136 C 
BRANCH  24  26
ATOM     25  O   UNL     1      40.467 -26.598 -13.628  0.00  0.00    -0.250 OA
ATOM     26  C   UNL     1      40.214 -26.010 -14.671  0.00  0.00    +0.318 C 
BRANCH  26  27
ATOM     27  O   UNL     1      40.488 -26.528 -15.898  0.00  0.00    -0.480 OA
ATOM     28  H   UNL     1      40.243 -27.409 -16.099  0.00  0.00    +0.295 HD
ENDBRANCH  26  27
ENDBRANCH  24  26
ENDBRANCH  19  24
ENDBRANCH   2  18
BRANCH   6  31
ATOM     29  O   UNL     1      29.266 -22.117 -16.508  0.00  0.00    -0.270 OA
ATOM     30  N   UNL     1      28.448 -24.220 -16.105  0.00  0.00    -0.325 N 
ATOM     31  C   UNL     1      29.433 -23.243 -16.008  0.00  0.00    +0.248 C 
ATOM     32  H   UNL     1      27.599 -24.020 -16.562  0.00  0.00    +0.145 HD
ATOM     33  H   UNL     1      28.599 -25.112 -15.715  0.00  0.00    +0.145 HD
ENDBRANCH   6  31
TORSDOF 6
ENDMDL
MODEL 2
REMARK VINA RESULT:     -11.4      3.094      6.337
REMARK  Name = 24871491
REMARK  6 active torsions:
REMARK  status: ('A' for Active; 'I' for Inactive)
REMARK    1  A    between atoms: N_1  and  C_11
REMARK    2  A    between atoms: N_2  and  C_18
REMARK    3  A    between atoms: C_6  and  C_31
REMARK    4  A    between atoms: C_19  and  C_24
REMARK    5  A    between atoms: C_24  and  C_26
REMARK    6  A    between atoms: C_26  and  O_27
REMARK                            x       y       z     vdW  Elec       q    Type
REMARK                         _______ _______ _______ _____ _____    ______ ____
ROOT
ATOM      1  N   UNL     1      34.229 -23.665 -14.010  0.00  0.00    -0.287 N 
ATOM      2  N   UNL     1      32.174 -22.309 -18.030  0.00  0.00    -0.247 N 
ATOM      3  N   UNL     1      33.207 -22.977 -16.035  0.00  0.00    -0.322 NA
ATOM      4  N   UNL     1      30.869 -23.407 -16.424  0.00  0.00    -0.169 NA
ATOM      5  C   UNL     1      33.079 -23.578 -14.833  0.00  0.00    +0.202 C 
ATOM      6  C   UNL     1      31.896 -24.109 -14.364  0.00  0.00    +0.118 C 
ATOM      7  C   UNL     1      32.078 -22.928 -16.768  0.00  0.00    +0.150 C 
ATOM      8  C   UNL     1      30.812 -23.994 -15.210  0.00  0.00    +0.120 C 
ATOM      9  H   UNL     1      34.028 -23.661 -13.046  0.00  0.00    +0.155 HD
ATOM     10  H   UNL     1      31.327 -22.297 -18.530  0.00  0.00    +0.165 HD
ENDROOT
BRANCH   1  11
ATOM     11  C   UNL     1      35.599 -23.756 -14.302  0.00  0.00    +0.050 C 
ATOM     12  C   UNL     1      36.320 -24.887 -13.918  0.00  0.00    +0.010 C 
ATOM     13  C   UNL     1      37.682 -24.977 -14.209  0.00  0.00    -0.021 C 
ATOM     14  C   UNL     1      36.239 -22.716 -14.976  0.00  0.00    +0.015 C 
ATOM     15  C   UNL     1      38.322 -23.937 -14.883  0.00  0.00    -0.004 C 
ATOM     16  C   UNL     1      37.601 -22.806 -15.266  0.00  0.00    +0.001 C 
ATOM     17  C   UNL     1      38.453 -26.185 -13.798  0.00  0.00    +0.031 C 
ENDBRANCH   1  11
BRANCH   2  18
ATOM     18  C   UNL     1      33.246 -21.704 -18.718  0.00  0.00    +0.058 C 
ATOM     19  C   UNL     1      35.366 -20.507 -20.080  0.00  0.00    -0.011 C 
ATOM     20  C   UNL     1      32.992 -20.765 -19.717  0.00  0.00    +0.015 C 
ATOM     21  C   UNL     1      34.561 -22.046 -18.400  0.00  0.00    +0.015 C 
ATOM     22  C   UNL     1      34.052 -20.166 -20.398  0.00  0.00    -0.002 C 
ATOM     23  C   UNL     1      35.620 -21.447 -19.081  0.00  0.00    -0.002 C 
BRANCH  19  24
ATOM     24  C   UNL     1      36.499 -19.867 -20.808  0.00  0.00    +0.136 C 
BRANCH  24  26
ATOM     25  O   UNL     1      35.915 -17.565 -20.269  0.00  0.00    -0.250 OA
ATOM     26  C   UNL     1      36.281 -18.394 -21.091  0.00  0.00    +0.318 C 
BRANCH  26  27
ATOM     27  O   UNL     1      36.541 -18.083 -22.389  0.00  0.00    -0.480 OA
ATOM     28  H   UNL     1      37.080 -17.345 -22.595  0.00  0.00    +0.295 HD
ENDBRANCH  26  27
ENDBRANCH  24  26
ENDBRANCH  19  24
ENDBRANCH   2  18
BRANCH   6  31
ATOM     29  O   UNL     1      32.743 -24.984 -12.348  0.00  0.00    -0.270 OA
ATOM     30  N   UNL     1      30.473 -25.094 -12.649  0.00  0.00    -0.325 N 
ATOM     31  C   UNL     1      31.756 -24.755 -13.069  0.00  0.00    +0.248 C 
ATOM     32  H   UNL     1      30.340 -25.533 -11.778  0.00  0.00    +0.145 HD
ATOM     33  H   UNL     1      29.699 -24.896 -13.224  0.00  0.00    +0.145 HD
ENDBRANCH   6  31
TORSDOF 6
ENDMDL
MODEL 3
REMARK VINA RESULT:     -11.2      2.264      7.346
REMARK  Name = 24871491
REMARK  6 active torsions:
REMARK  status: ('A' for Active; 'I' for Inactive)
REMARK    1  A    between atoms: N_1  and  C_11
REMARK    2  A    between atoms: N_2  and  C_18
REMARK    3  A    between atoms: C_6  and  C_31
REMARK    4  A    between atoms: C_19  and  C_24
REMARK    5  A    between atoms: C_24  and  C_26
REMARK    6  A    between atoms: C_26  and  O_27
REMARK                            x       y       z     vdW  Elec       q    Type
REMARK                         _______ _______ _______ _____ _____    ______ ____
ROOT
ATOM      1  N   UNL     1      35.662 -22.619 -15.054  0.00  0.00    -0.287 N 
ATOM      2  N   UNL     1      31.878 -24.604 -13.061  0.00  0.00    -0.247 N 
ATOM      3  N   UNL     1      33.752 -23.612 -14.062  0.00  0.00    -0.322 NA
ATOM      4  N   UNL     1      33.949 -24.819 -11.986  0.00  0.00    -0.169 NA
ATOM      5  C   UNL     1      35.078 -23.371 -14.005  0.00  0.00    +0.202 C 
ATOM      6  C   UNL     1      35.895 -23.815 -12.984  0.00  0.00    +0.118 C 
ATOM      7  C   UNL     1      33.261 -24.332 -13.034  0.00  0.00    +0.150 C 
ATOM      8  C   UNL     1      35.270 -24.540 -11.991  0.00  0.00    +0.120 C 
ATOM      9  H   UNL     1      36.444 -22.091 -14.777  0.00  0.00    +0.155 HD
ATOM     10  H   UNL     1      31.565 -25.132 -12.293  0.00  0.00    +0.165 HD
ENDROOT
BRANCH   1  11
ATOM     11  C   UNL     1      35.340 -22.482 -16.414  0.00  0.00    +0.050 C 
ATOM     12  C   UNL     1      36.228 -21.842 -17.280  0.00  0.00    +0.010 C 
ATOM     13  C   UNL     1      35.907 -21.707 -18.630  0.00  0.00    -0.021 C 
ATOM     14  C   UNL     1      34.134 -22.986 -16.900  0.00  0.00    +0.015 C 
ATOM     15  C   UNL     1      34.701 -22.211 -19.116  0.00  0.00    -0.004 C 
ATOM     16  C   UNL     1      33.814 -22.850 -18.251  0.00  0.00    +0.001 C 
ATOM     17  C   UNL     1      36.855 -21.021 -19.556  0.00  0.00    +0.031 C 
ENDBRANCH   1  11
BRANCH   2  18
ATOM     18  C   UNL     1      30.856 -24.269 -13.973  0.00  0.00    +0.058 C 
ATOM     19  C   UNL     1      28.834 -23.605 -15.775  0.00  0.00    -0.011 C 
ATOM     20  C   UNL     1      30.648 -22.937 -14.327  0.00  0.00    +0.015 C 
ATOM     21  C   UNL     1      30.053 -25.270 -14.519  0.00  0.00    +0.015 C 
ATOM     22  C   UNL     1      29.636 -22.604 -15.229  0.00  0.00    -0.002 C 
ATOM     23  C   UNL     1      29.042 -24.938 -15.420  0.00  0.00    -0.002 C 
BRANCH  19  24
ATOM     24  C   UNL     1      27.752 -23.250 -16.740  0.00  0.00    +0.136 C 
BRANCH  24  26
ATOM     25  O   UNL     1      26.112 -22.402 -15.152  0.00  0.00    -0.250 OA
ATOM     26  C   UNL     1      26.750 -22.256 -16.185  0.00  0.00    +0.318 C 
BRANCH  26  27
ATOM     27  O   UNL     1      26.632 -21.160 -16.980  0.00  0.00    -0.480 OA
ATOM     28  H   UNL     1      26.904 -20.321 -16.663  0.00  0.00    +0.295 HD
ENDBRANCH  26  27
ENDBRANCH  24  26
ENDBRANCH  19  24
ENDBRANCH   2  18
BRANCH   6  31
ATOM     29  O   UNL     1      38.057 -23.713 -13.913  0.00  0.00    -0.270 OA
ATOM     30  N   UNL     1      37.846 -23.102 -11.713  0.00  0.00    -0.325 N 
ATOM     31  C   UNL     1      37.324 -23.554 -12.920  0.00  0.00    +0.248 C 
ATOM     32  H   UNL     1      38.810 -22.916 -11.632  0.00  0.00    +0.145 HD
ATOM     33  H   UNL     1      37.253 -22.969 -10.939  0.00  0.00    +0.145 HD
ENDBRANCH   6  31
TORSDOF 6
ENDMDL
MODEL 4
REMARK VINA RESULT:     -11.0      2.114      7.071
REMARK  Name = 24871491
REMARK  6 active torsions:
REMARK  status: ('A' for Active; 'I' for Inactive)
REMARK    1  A    between atoms: N_1  and  C_11
REMARK    2  A    between atoms: N_2  and  C_18
REMARK    3  A    between atoms: C_6  and  C_31
REMARK    4  A    between atoms: C_19  and  C_24
REMARK    5  A    between atoms: C_24  and  C_26
REMARK    6  A    between atoms: C_26  and  O_27
REMARK                            x       y       z     vdW  Elec       q    Type
REMARK                         _______ _______ _______ _____ _____    ______ ____
ROOT
ATOM      1  N   UNL     1      36.010 -22.612 -16.311  0.00  0.00    -0.287 N 
ATOM      2  N   UNL     1      33.094 -24.934 -13.427  0.00  0.00    -0.247 N 
ATOM      3  N   UNL     1      34.533 -23.773 -14.866  0.00  0.00    -0.322 NA
ATOM      4  N   UNL     1      35.396 -25.330 -13.243  0.00  0.00    -0.169 NA
ATOM      5  C   UNL     1      35.803 -23.540 -15.262  0.00  0.00    +0.202 C 
ATOM      6  C   UNL     1      36.904 -24.156 -14.705  0.00  0.00    +0.118 C 
ATOM      7  C   UNL     1      34.405 -24.666 -13.866  0.00  0.00    +0.150 C 
ATOM      8  C   UNL     1      36.639 -25.050 -13.688  0.00  0.00    +0.120 C 
ATOM      9  H   UNL     1      36.872 -22.138 -16.257  0.00  0.00    +0.155 HD
ATOM     10  H   UNL     1      33.048 -25.592 -12.696  0.00  0.00    +0.165 HD
ENDROOT
BRANCH   1  11
ATOM     11  C   UNL     1      35.226 -22.235 -17.413  0.00  0.00    +0.050 C 
ATOM     12  C   UNL     1      35.787 -21.478 -18.443  0.00  0.00    +0.010 C 
ATOM     13  C   UNL     1      35.007 -21.104 -19.537  0.00  0.00    -0.021 C 
ATOM     14  C   UNL     1      33.887 -22.618 -17.480  0.00  0.00    +0.015 C 
ATOM     15  C   UNL     1      33.667 -21.487 -19.603  0.00  0.00    -0.004 C 
ATOM     16  C   UNL     1      33.107 -22.243 -18.574  0.00  0.00    +0.001 C 
ATOM     17  C   UNL     1      35.605 -20.294 -20.637  0.00  0.00    +0.031 C 
ENDBRANCH   1  11
BRANCH   2  18
ATOM     18  C   UNL     1      31.833 -24.445 -13.827  0.00  0.00    +0.058 C 
ATOM     19  C   UNL     1      29.340 -23.478 -14.620  0.00  0.00    -0.011 C 
ATOM     20  C   UNL     1      30.763 -25.324 -13.987  0.00  0.00    +0.015 C 
ATOM     21  C   UNL     1      31.657 -23.081 -14.064  0.00  0.00    +0.015 C 
ATOM     22  C   UNL     1      29.516 -24.841 -14.384  0.00  0.00    -0.002 C 
ATOM     23  C   UNL     1      30.411 -22.598 -14.461  0.00  0.00    -0.002 C 
BRANCH  19  24
ATOM     24  C   UNL     1      28.007 -22.961 -15.044  0.00  0.00    +0.136 C 
BRANCH  24  26
ATOM     25  O   UNL     1      28.238 -23.689 -17.356  0.00  0.00    -0.250 OA
ATOM     26  C   UNL     1      27.849 -22.857 -16.548  0.00  0.00    +0.318 C 
BRANCH  26  27
ATOM     27  O   UNL     1      27.214 -21.711 -16.913  0.00  0.00    -0.480 OA
ATOM     28  H   UNL     1      26.382 -21.753 -17.341  0.00  0.00    +0.295 HD
ENDBRANCH  26  27
ENDBRANCH  24  26
ENDBRANCH  19  24
ENDBRANCH   2  18
BRANCH   6  31
ATOM     29  O   UNL     1      38.627 -22.792 -15.552  0.00  0.00    -0.270 OA
ATOM     30  N   UNL     1      39.183 -24.954 -15.031  0.00  0.00    -0.325 N 
ATOM     31  C   UNL     1      38.272 -23.907 -15.130  0.00  0.00    +0.248 C 
ATOM     32  H   UNL     1      40.118 -24.822 -15.309  0.00  0.00    +0.145 HD
ATOM     33  H   UNL     1      38.892 -25.828 -14.682  0.00  0.00    +0.145 HD
ENDBRANCH   6  31
TORSDOF 6
ENDMDL
MODEL 5
REMARK VINA RESULT:     -10.0      3.123      7.148
REMARK  Name = 24871491
REMARK  6 active torsions:
REMARK  status: ('A' for Active; 'I' for Inactive)
REMARK    1  A    between atoms: N_1  and  C_11
REMARK    2  A    between atoms: N_2  and  C_18
REMARK    3  A    between atoms: C_6  and  C_31
REMARK    4  A    between atoms: C_19  and  C_24
REMARK    5  A    between atoms: C_24  and  C_26
REMARK    6  A    between atoms: C_26  and  O_27
REMARK                            x       y       z     vdW  Elec       q    Type
REMARK                         _______ _______ _______ _____ _____    ______ ____
ROOT
ATOM      1  N   UNL     1      34.409 -24.761 -13.806  0.00  0.00    -0.287 N 
ATOM      2  N   UNL     1      37.397 -22.475 -16.646  0.00  0.00    -0.247 N 
ATOM      3  N   UNL     1      35.902 -23.608 -15.242  0.00  0.00    -0.322 NA
ATOM      4  N   UNL     1      38.260 -23.552 -14.752  0.00  0.00    -0.169 NA
ATOM      5  C   UNL     1      35.726 -24.349 -14.128  0.00  0.00    +0.202 C 
ATOM      6  C   UNL     1      36.754 -24.725 -13.287  0.00  0.00    +0.118 C 
ATOM      7  C   UNL     1      37.176 -23.250 -15.491  0.00  0.00    +0.150 C 
ATOM      8  C   UNL     1      38.013 -24.294 -13.653  0.00  0.00    +0.120 C 
ATOM      9  H   UNL     1      34.368 -25.616 -13.321  0.00  0.00    +0.155 HD
ATOM     10  H   UNL     1      38.342 -22.236 -16.787  0.00  0.00    +0.165 HD
ENDROOT
BRANCH   1  11
ATOM     11  C   UNL     1      33.151 -24.185 -14.045  0.00  0.00    +0.050 C 
ATOM     12  C   UNL     1      32.839 -23.692 -15.313  0.00  0.00    +0.010 C 
ATOM     13  C   UNL     1      31.589 -23.121 -15.550  0.00  0.00    -0.021 C 
ATOM     14  C   UNL     1      32.212 -24.108 -13.017  0.00  0.00    +0.015 C 
ATOM     15  C   UNL     1      30.650 -23.044 -14.521  0.00  0.00    -0.004 C 
ATOM     16  C   UNL     1      30.962 -23.536 -13.254  0.00  0.00    +0.001 C 
ATOM     17  C   UNL     1      31.255 -22.593 -16.904  0.00  0.00    +0.031 C 
ENDBRANCH   1  11
BRANCH   2  18
ATOM     18  C   UNL     1      36.532 -21.974 -17.641  0.00  0.00    +0.058 C 
ATOM     19  C   UNL     1      34.822 -20.983 -19.608  0.00  0.00    -0.011 C 
ATOM     20  C   UNL     1      37.035 -21.163 -18.657  0.00  0.00    +0.015 C 
ATOM     21  C   UNL     1      35.174 -22.289 -17.607  0.00  0.00    +0.015 C 
ATOM     22  C   UNL     1      36.179 -20.667 -19.642  0.00  0.00    -0.002 C 
ATOM     23  C   UNL     1      34.319 -21.794 -18.591  0.00  0.00    -0.002 C 
BRANCH  19  24
ATOM     24  C   UNL     1      33.907 -20.453 -20.661  0.00  0.00    +0.136 C 
BRANCH  24  26
ATOM     25  O   UNL     1      34.762 -19.748 -22.829  0.00  0.00    -0.250 OA
ATOM     26  C   UNL     1      34.588 -19.518 -21.640  0.00  0.00    +0.318 C 
BRANCH  26  27
ATOM     27  O   UNL     1      34.999 -18.368 -21.040  0.00  0.00    -0.480 OA
ATOM     28  H   UNL     1      34.906 -17.550 -21.486  0.00  0.00    +0.295 HD
ENDBRANCH  26  27
ENDBRANCH  24  26
ENDBRANCH  19  24
ENDBRANCH   2  18
BRANCH   6  31
ATOM     29  O   UNL     1      35.658 -25.272 -11.275  0.00  0.00    -0.270 OA
ATOM     30  N   UNL     1      37.428 -26.597 -11.882  0.00  0.00    -0.325 N 
ATOM     31  C   UNL     1      36.566 -25.524 -12.087  0.00  0.00    +0.248 C 
ATOM     32  H   UNL     1      37.331 -27.160 -11.080  0.00  0.00    +0.145 HD
ATOM     33  H   UNL     1      38.134 -26.793 -12.539  0.00  0.00    +0.145 HD
ENDBRANCH   6  31
TORSDOF 6
ENDMDL
MODEL 6
REMARK VINA RESULT:      -9.8      1.254      2.046
REMARK  Name = 24871491
REMARK  6 active torsions:
REMARK  status: ('A' for Active; 'I' for Inactive)
REMARK    1  A    between atoms: N_1  and  C_11
REMARK    2  A    between atoms: N_2  and  C_18
REMARK    3  A    between atoms: C_6  and  C_31
REMARK    4  A    between atoms: C_19  and  C_24
REMARK    5  A    between atoms: C_24  and  C_26
REMARK    6  A    between atoms: C_26  and  O_27
REMARK                            x       y       z     vdW  Elec       q    Type
REMARK                         _______ _______ _______ _____ _____    ______ ____
ROOT
ATOM      1  N   UNL     1      33.137 -23.295 -16.713  0.00  0.00    -0.287 N 
ATOM      2  N   UNL     1      34.689 -24.962 -12.585  0.00  0.00    -0.247 N 
ATOM      3  N   UNL     1      33.930 -24.133 -14.642  0.00  0.00    -0.322 NA
ATOM      4  N   UNL     1      32.389 -24.600 -12.850  0.00  0.00    -0.169 NA
ATOM      5  C   UNL     1      32.879 -23.741 -15.394  0.00  0.00    +0.202 C 
ATOM      6  C   UNL     1      31.573 -23.749 -14.948  0.00  0.00    +0.118 C 
ATOM      7  C   UNL     1      33.616 -24.545 -13.399  0.00  0.00    +0.150 C 
ATOM      8  C   UNL     1      31.385 -24.194 -13.656  0.00  0.00    +0.120 C 
ATOM      9  H   UNL     1      32.398 -23.464 -17.341  0.00  0.00    +0.155 HD
ATOM     10  H   UNL     1      34.413 -25.253 -11.687  0.00  0.00    +0.165 HD
ENDROOT
BRANCH   1  11
ATOM     11  C   UNL     1      34.243 -22.659 -17.299  0.00  0.00    +0.050 C 
ATOM     12  C   UNL     1      34.101 -21.998 -18.520  0.00  0.00    +0.010 C 
ATOM     13  C   UNL     1      35.200 -21.366 -19.102  0.00  0.00    -0.021 C 
ATOM     14  C   UNL     1      35.483 -22.686 -16.661  0.00  0.00    +0.015 C 
ATOM     15  C   UNL     1      36.440 -21.394 -18.464  0.00  0.00    -0.004 C 
ATOM     16  C   UNL     1      36.582 -22.055 -17.244  0.00  0.00    +0.001 C 
ATOM     17  C   UNL     1      35.050 -20.661 -20.408  0.00  0.00    +0.031 C 
ENDBRANCH   1  11
BRANCH   2  18
ATOM     18  C   UNL     1      36.079 -25.044 -12.805  0.00  0.00    +0.058 C 
ATOM     19  C   UNL     1      38.829 -25.207 -13.240  0.00  0.00    -0.011 C 
ATOM     20  C   UNL     1      36.628 -26.193 -13.373  0.00  0.00    +0.015 C 
ATOM     21  C   UNL     1      36.905 -23.976 -12.454  0.00  0.00    +0.015 C 
ATOM     22  C   UNL     1      38.004 -26.275 -13.591  0.00  0.00    -0.002 C 
ATOM     23  C   UNL     1      38.280 -24.057 -12.672  0.00  0.00    -0.002 C 
BRANCH  19  24
ATOM     24  C   UNL     1      40.300 -25.294 -13.473  0.00  0.00    +0.136 C 
BRANCH  24  26
ATOM     25  O   UNL     1      40.473 -26.225 -15.717  0.00  0.00    -0.250 OA
ATOM     26  C   UNL     1      40.687 -26.324 -14.516  0.00  0.00    +0.318 C 
BRANCH  26  27
ATOM     27  O   UNL     1      41.311 -27.397 -13.961  0.00  0.00    -0.480 OA
ATOM     28  H   UNL     1      42.163 -27.299 -13.585  0.00  0.00    +0.295 HD
ENDBRANCH  26  27
ENDBRANCH  24  26
ENDBRANCH  19  24
ENDBRANCH   2  18
BRANCH   6  31
ATOM     29  O   UNL     1      29.293 -23.757 -15.539  0.00  0.00    -0.270 OA
ATOM     30  N   UNL     1      30.677 -22.410 -16.775  0.00  0.00    -0.325 N 
ATOM     31  C   UNL     1      30.440 -23.328 -15.757  0.00  0.00    +0.248 C 
ATOM     32  H   UNL     1      29.934 -22.102 -17.343  0.00  0.00    +0.145 HD
ATOM     33  H   UNL     1      31.587 -22.069 -16.928  0.00  0.00    +0.145 HD
ENDBRANCH   6  31
TORSDOF 6
ENDMDL
MODEL 7
REMARK VINA RESULT:      -9.7      2.891      7.202
REMARK  Name = 24871491
REMARK  6 active torsions:
REMARK  status: ('A' for Active; 'I' for Inactive)
REMARK    1  A    between atoms: N_1  and  C_11
REMARK    2  A    between atoms: N_2  and  C_18
REMARK    3  A    between atoms: C_6  and  C_31
REMARK    4  A    between atoms: C_19  and  C_24
REMARK    5  A    between atoms: C_24  and  C_26
REMARK    6  A    between atoms: C_26  and  O_27
REMARK                            x       y       z     vdW  Elec       q    Type
REMARK                         _______ _______ _______ _____ _____    ______ ____
ROOT
ATOM      1  N   UNL     1      34.291 -24.875 -13.361  0.00  0.00    -0.287 N 
ATOM      2  N   UNL     1      37.289 -22.543 -16.152  0.00  0.00    -0.247 N 
ATOM      3  N   UNL     1      35.788 -23.700 -14.773  0.00  0.00    -0.322 NA
ATOM      4  N   UNL     1      38.117 -23.511 -14.185  0.00  0.00    -0.169 NA
ATOM      5  C   UNL     1      35.599 -24.411 -13.641  0.00  0.00    +0.202 C 
ATOM      6  C   UNL     1      36.605 -24.707 -12.744  0.00  0.00    +0.118 C 
ATOM      7  C   UNL     1      37.054 -23.288 -14.979  0.00  0.00    +0.150 C 
ATOM      8  C   UNL     1      37.857 -24.227 -13.071  0.00  0.00    +0.120 C 
ATOM      9  H   UNL     1      34.269 -25.715 -12.847  0.00  0.00    +0.155 HD
ATOM     10  H   UNL     1      38.226 -22.262 -16.260  0.00  0.00    +0.165 HD
ENDROOT
BRANCH   1  11
ATOM     11  C   UNL     1      33.018 -24.371 -13.674  0.00  0.00    +0.050 C 
ATOM     12  C   UNL     1      31.920 -25.231 -13.723  0.00  0.00    +0.010 C 
ATOM     13  C   UNL     1      30.656 -24.729 -14.034  0.00  0.00    -0.021 C 
ATOM     14  C   UNL     1      32.851 -23.011 -13.934  0.00  0.00    +0.015 C 
ATOM     15  C   UNL     1      30.489 -23.369 -14.295  0.00  0.00    -0.004 C 
ATOM     16  C   UNL     1      31.587 -22.510 -14.246  0.00  0.00    +0.001 C 
ATOM     17  C   UNL     1      29.482 -25.648 -14.089  0.00  0.00    +0.031 C 
ENDBRANCH   1  11
BRANCH   2  18
ATOM     18  C   UNL     1      36.446 -22.119 -17.200  0.00  0.00    +0.058 C 
ATOM     19  C   UNL     1      34.778 -21.282 -19.273  0.00  0.00    -0.011 C 
ATOM     20  C   UNL     1      35.089 -22.434 -17.172  0.00  0.00    +0.015 C 
ATOM     21  C   UNL     1      36.971 -21.386 -18.264  0.00  0.00    +0.015 C 
ATOM     22  C   UNL     1      34.254 -22.016 -18.209  0.00  0.00    -0.002 C 
ATOM     23  C   UNL     1      36.137 -20.968 -19.301  0.00  0.00    -0.002 C 
BRANCH  19  24
ATOM     24  C   UNL     1      33.887 -20.835 -20.382  0.00  0.00    +0.136 C 
BRANCH  24  26
ATOM     25  O   UNL     1      34.587 -19.795 -22.469  0.00  0.00    -0.250 OA
ATOM     26  C   UNL     1      34.498 -19.753 -21.250  0.00  0.00    +0.318 C 
BRANCH  26  27
ATOM     27  O   UNL     1      34.949 -18.705 -20.511  0.00  0.00    -0.480 OA
ATOM     28  H   UNL     1      34.570 -18.525 -19.673  0.00  0.00    +0.295 HD
ENDBRANCH  26  27
ENDBRANCH  24  26
ENDBRANCH  19  24
ENDBRANCH   2  18
BRANCH   6  31
ATOM     29  O   UNL     1      36.865 -26.621 -11.396  0.00  0.00    -0.270 OA
ATOM     30  N   UNL     1      35.690 -24.871 -10.493  0.00  0.00    -0.325 N 
ATOM     31  C   UNL     1      36.403 -25.473 -11.525  0.00  0.00    +0.248 C 
ATOM     32  H   UNL     1      35.533 -25.359  -9.653  0.00  0.00    +0.145 HD
ATOM     33  H   UNL     1      35.341 -23.957 -10.603  0.00  0.00    +0.145 HD
ENDBRANCH   6  31
TORSDOF 6
ENDMDL
MODEL 8
REMARK VINA RESULT:      -9.2      2.820      5.331
REMARK  Name = 24871491
REMARK  6 active torsions:
REMARK  status: ('A' for Active; 'I' for Inactive)
REMARK    1  A    between atoms: N_1  and  C_11
REMARK    2  A    between atoms: N_2  and  C_18
REMARK    3  A    between atoms: C_6  and  C_31
REMARK    4  A    between atoms: C_19  and  C_24
REMARK    5  A    between atoms: C_24  and  C_26
REMARK    6  A    between atoms: C_26  and  O_27
REMARK                            x       y       z     vdW  Elec       q    Type
REMARK                         _______ _______ _______ _____ _____    ______ ____
ROOT
ATOM      1  N   UNL     1      32.886 -22.275 -17.108  0.00  0.00    -0.287 N 
ATOM      2  N   UNL     1      37.489 -22.840 -16.267  0.00  0.00    -0.247 N 
ATOM      3  N   UNL     1      35.198 -22.562 -16.672  0.00  0.00    -0.322 NA
ATOM      4  N   UNL     1      36.828 -22.039 -18.367  0.00  0.00    -0.169 NA
ATOM      5  C   UNL     1      34.232 -22.193 -17.540  0.00  0.00    +0.202 C 
ATOM      6  C   UNL     1      34.483 -21.742 -18.820  0.00  0.00    +0.118 C 
ATOM      7  C   UNL     1      36.455 -22.461 -17.145  0.00  0.00    +0.150 C 
ATOM      8  C   UNL     1      35.813 -21.685 -19.183  0.00  0.00    +0.120 C 
ATOM      9  H   UNL     1      32.293 -21.610 -17.527  0.00  0.00    +0.155 HD
ATOM     10  H   UNL     1      38.389 -22.750 -16.654  0.00  0.00    +0.165 HD
ENDROOT
BRANCH   1  11
ATOM     11  C   UNL     1      32.232 -23.120 -16.197  0.00  0.00    +0.050 C 
ATOM     12  C   UNL     1      30.873 -23.394 -16.352  0.00  0.00    +0.010 C 
ATOM     13  C   UNL     1      30.224 -24.234 -15.447  0.00  0.00    -0.021 C 
ATOM     14  C   UNL     1      32.941 -23.686 -15.138  0.00  0.00    +0.015 C 
ATOM     15  C   UNL     1      30.933 -24.801 -14.388  0.00  0.00    -0.004 C 
ATOM     16  C   UNL     1      32.292 -24.526 -14.233  0.00  0.00    +0.001 C 
ATOM     17  C   UNL     1      28.771 -24.527 -15.611  0.00  0.00    +0.031 C 
ENDBRANCH   1  11
BRANCH   2  18
ATOM     18  C   UNL     1      37.489 -23.321 -14.941  0.00  0.00    +0.058 C 
ATOM     19  C   UNL     1      37.488 -24.274 -12.320  0.00  0.00    -0.011 C 
ATOM     20  C   UNL     1      38.297 -24.402 -14.592  0.00  0.00    +0.015 C 
ATOM     21  C   UNL     1      36.679 -22.716 -13.980  0.00  0.00    +0.015 C 
ATOM     22  C   UNL     1      38.297 -24.879 -13.281  0.00  0.00    -0.002 C 
ATOM     23  C   UNL     1      36.679 -23.193 -12.669  0.00  0.00    -0.002 C 
BRANCH  19  24
ATOM     24  C   UNL     1      37.487 -24.784 -10.918  0.00  0.00    +0.136 C 
BRANCH  24  26
ATOM     25  O   UNL     1      35.085 -25.172 -10.818  0.00  0.00    -0.250 OA
ATOM     26  C   UNL     1      36.114 -24.789 -10.277  0.00  0.00    +0.318 C 
BRANCH  26  27
ATOM     27  O   UNL     1      36.147 -24.308  -9.006  0.00  0.00    -0.480 OA
ATOM     28  H   UNL     1      36.906 -23.856  -8.696  0.00  0.00    +0.295 HD
ENDBRANCH  26  27
ENDBRANCH  24  26
ENDBRANCH  19  24
ENDBRANCH   2  18
BRANCH   6  31
ATOM     29  O   UNL     1      32.377 -21.975 -19.848  0.00  0.00    -0.270 OA
ATOM     30  N   UNL     1      33.675 -20.214 -20.535  0.00  0.00    -0.325 N 
ATOM     31  C   UNL     1      33.444 -21.343 -19.755  0.00  0.00    +0.248 C 
ATOM     32  H   UNL     1      32.994 -19.914 -21.180  0.00  0.00    +0.145 HD
ATOM     33  H   UNL     1      34.518 -19.716 -20.443  0.00  0.00    +0.145 HD
ENDBRANCH   6  31
TORSDOF 6
ENDMDL
