MODEL 1
REMARK VINA RESULT:     -11.2      0.000      0.000
REMARK  Name = 4261
REMARK  8 active torsions:
REMARK  status: ('A' for Active; 'I' for Inactive)
REMARK    1  A    between atoms: C_1  and  C_20
REMARK    2  A    between atoms: C_2  and  C_9
REMARK    3  A    between atoms: N_8  and  C_11
REMARK    4  A    between atoms: C_12  and  N_17
REMARK    5  A    between atoms: C_20  and  N_22
REMARK    6  A    between atoms: C_23  and  O_25
REMARK    7  A    between atoms: O_25  and  C_26
REMARK    8  A    between atoms: C_26  and  C_28
REMARK                            x       y       z     vdW  Elec       q    Type
REMARK                         _______ _______ _______ _____ _____    ______ ____
ROOT
ATOM      1  C   UNL     1      35.481 -20.205 -20.250  0.00  0.00    -0.002 C 
ATOM      2  C   UNL     1      34.123 -22.049 -18.672  0.00  0.00    +0.054 C 
ATOM      3  C   UNL     1      36.199 -21.079 -19.441  0.00  0.00    -0.002 C 
ATOM      4  C   UNL     1      34.092 -20.243 -20.277  0.00  0.00    -0.002 C 
ATOM      5  C   UNL     1      35.518 -22.004 -18.651  0.00  0.00    +0.004 C 
ATOM      6  C   UNL     1      33.411 -21.168 -19.487  0.00  0.00    +0.004 C 
ENDROOT
BRANCH   2   9
ATOM      7  O   UNL     1      33.516 -24.221 -18.106  0.00  0.00    -0.270 OA
ATOM      8  N   UNL     1      32.674 -22.476 -16.781  0.00  0.00    -0.279 N 
ATOM      9  C   UNL     1      33.414 -23.011 -17.846  0.00  0.00    +0.250 C 
ATOM     10  H   UNL     1      32.688 -21.495 -16.701  0.00  0.00    +0.155 HD
BRANCH   8  11
ATOM     11  C   UNL     1      31.911 -23.163 -15.806  0.00  0.00    +0.064 C 
ATOM     12  C   UNL     1      32.461 -23.466 -14.572  0.00  0.00    +0.055 C 
ATOM     13  C   UNL     1      30.608 -23.518 -16.121  0.00  0.00    +0.016 C 
ATOM     14  C   UNL     1      31.689 -24.144 -13.627  0.00  0.00    +0.015 C 
ATOM     15  C   UNL     1      29.836 -24.194 -15.177  0.00  0.00    +0.001 C 
ATOM     16  C   UNL     1      30.377 -24.508 -13.930  0.00  0.00    +0.001 C 
BRANCH  12  17
ATOM     17  N   UNL     1      33.788 -23.107 -14.243  0.00  0.00    -0.356 N 
ATOM     18  H   UNL     1      34.217 -23.490 -13.445  0.00  0.00    +0.142 HD
ATOM     19  H   UNL     1      34.281 -22.474 -14.812  0.00  0.00    +0.142 HD
ENDBRANCH  12  17
ENDBRANCH   8  11
ENDBRANCH   2   9
BRANCH   1  20
ATOM     20  C   UNL     1      36.214 -19.211 -21.103  0.00  0.00    +0.119 C 
BRANCH  20  22
ATOM     21  O   UNL     1      35.352 -17.403 -23.207  0.00  0.00    -0.226 OA
ATOM     22  N   UNL     1      35.677 -17.877 -20.960  0.00  0.00    -0.267 N 
ATOM     23  C   UNL     1      35.293 -17.088 -22.023  0.00  0.00    +0.402 C 
ATOM     24  H   UNL     1      35.580 -17.510 -20.050  0.00  0.00    +0.153 HD
BRANCH  23  25
ATOM     25  O   UNL     1      34.830 -15.888 -21.562  0.00  0.00    -0.430 OA
BRANCH  25  26
ATOM     26  C   UNL     1      34.542 -14.904 -22.563  0.00  0.00    +0.238 C 
BRANCH  26  28
ATOM     27  N   UNL     1      32.316 -11.875 -22.302  0.00  0.00    -0.243 NA
ATOM     28  C   UNL     1      33.597 -13.886 -21.991  0.00  0.00    +0.040 C 
ATOM     29  C   UNL     1      33.148 -13.998 -20.687  0.00  0.00    +0.002 C 
ATOM     30  C   UNL     1      33.164 -12.825 -22.755  0.00  0.00    +0.098 C 
ATOM     31  C   UNL     1      32.275 -13.041 -20.185  0.00  0.00    +0.020 C 
ATOM     32  C   UNL     1      31.892 -12.008 -21.025  0.00  0.00    +0.099 C 
ENDBRANCH  26  28
ENDBRANCH  25  26
ENDBRANCH  23  25
ENDBRANCH  20  22
ENDBRANCH   1  20
TORSDOF 8
ENDMDL
MODEL 2
REMARK VINA RESULT:     -11.1      1.291      1.871
REMARK  Name = 4261
REMARK  8 active torsions:
REMARK  status: ('A' for Active; 'I' for Inactive)
REMARK    1  A    between atoms: C_1  and  C_20
REMARK    2  A    between atoms: C_2  and  C_9
REMARK    3  A    between atoms: N_8  and  C_11
REMARK    4  A    between atoms: C_12  and  N_17
REMARK    5  A    between atoms: C_20  and  N_22
REMARK    6  A    between atoms: C_23  and  O_25
REMARK    7  A    between atoms: O_25  and  C_26
REMARK    8  A    between atoms: C_26  and  C_28
REMARK                            x       y       z     vdW  Elec       q    Type
REMARK                         _______ _______ _______ _____ _____    ______ ____
ROOT
ATOM      1  C   UNL     1      35.357 -20.237 -20.268  0.00  0.00    -0.002 C 
ATOM      2  C   UNL     1      33.927 -22.028 -18.692  0.00  0.00    +0.054 C 
ATOM      3  C   UNL     1      33.966 -20.221 -20.297  0.00  0.00    -0.002 C 
ATOM      4  C   UNL     1      36.039 -21.138 -19.459  0.00  0.00    -0.002 C 
ATOM      5  C   UNL     1      33.250 -21.119 -19.506  0.00  0.00    +0.004 C 
ATOM      6  C   UNL     1      35.323 -22.036 -18.669  0.00  0.00    +0.004 C 
ENDROOT
BRANCH   2   9
ATOM      7  O   UNL     1      33.446 -24.175 -17.941  0.00  0.00    -0.270 OA
ATOM      8  N   UNL     1      32.212 -22.401 -17.025  0.00  0.00    -0.279 N 
ATOM      9  C   UNL     1      33.180 -22.965 -17.870  0.00  0.00    +0.250 C 
ATOM     10  H   UNL     1      32.115 -21.423 -17.080  0.00  0.00    +0.155 HD
BRANCH   8  11
ATOM     11  C   UNL     1      31.358 -23.054 -16.105  0.00  0.00    +0.064 C 
ATOM     12  C   UNL     1      31.885 -23.697 -14.996  0.00  0.00    +0.055 C 
ATOM     13  C   UNL     1      29.993 -23.031 -16.343  0.00  0.00    +0.016 C 
ATOM     14  C   UNL     1      31.023 -24.335 -14.102  0.00  0.00    +0.015 C 
ATOM     15  C   UNL     1      29.132 -23.668 -15.450  0.00  0.00    +0.001 C 
ATOM     16  C   UNL     1      29.647 -24.320 -14.329  0.00  0.00    +0.001 C 
BRANCH  12  17
ATOM     17  N   UNL     1      33.275 -23.724 -14.745  0.00  0.00    -0.356 N 
ATOM     18  H   UNL     1      33.897 -23.311 -15.386  0.00  0.00    +0.142 HD
ATOM     19  H   UNL     1      33.620 -24.157 -13.932  0.00  0.00    +0.142 HD
ENDBRANCH  12  17
ENDBRANCH   8  11
ENDBRANCH   2   9
BRANCH   1  20
ATOM     20  C   UNL     1      36.128 -19.269 -21.117  0.00  0.00    +0.119 C 
BRANCH  20  22
ATOM     21  O   UNL     1      35.040 -19.903 -23.734  0.00  0.00    -0.226 OA
ATOM     22  N   UNL     1      35.258 -18.455 -21.935  0.00  0.00    -0.267 N 
ATOM     23  C   UNL     1      34.789 -18.842 -23.172  0.00  0.00    +0.402 C 
ATOM     24  H   UNL     1      34.984 -17.575 -21.589  0.00  0.00    +0.153 HD
BRANCH  23  25
ATOM     25  O   UNL     1      33.993 -17.859 -23.691  0.00  0.00    -0.430 OA
BRANCH  25  26
ATOM     26  C   UNL     1      34.671 -16.811 -24.393  0.00  0.00    +0.238 C 
BRANCH  26  28
ATOM     27  N   UNL     1      33.183 -13.363 -24.091  0.00  0.00    -0.243 NA
ATOM     28  C   UNL     1      34.271 -15.489 -23.805  0.00  0.00    +0.040 C 
ATOM     29  C   UNL     1      34.597 -15.172 -22.498  0.00  0.00    +0.002 C 
ATOM     30  C   UNL     1      33.573 -14.570 -24.558  0.00  0.00    +0.098 C 
ATOM     31  C   UNL     1      34.213 -13.941 -21.982  0.00  0.00    +0.020 C 
ATOM     32  C   UNL     1      33.514 -13.079 -22.811  0.00  0.00    +0.099 C 
ENDBRANCH  26  28
ENDBRANCH  25  26
ENDBRANCH  23  25
ENDBRANCH  20  22
ENDBRANCH   1  20
TORSDOF 8
ENDMDL
MODEL 3
REMARK VINA RESULT:     -10.8      3.164     11.767
REMARK  Name = 4261
REMARK  8 active torsions:
REMARK  status: ('A' for Active; 'I' for Inactive)
REMARK    1  A    between atoms: C_1  and  C_20
REMARK    2  A    between atoms: C_2  and  C_9
REMARK    3  A    between atoms: N_8  and  C_11
REMARK    4  A    between atoms: C_12  and  N_17
REMARK    5  A    between atoms: C_20  and  N_22
REMARK    6  A    between atoms: C_23  and  O_25
REMARK    7  A    between atoms: O_25  and  C_26
REMARK    8  A    between atoms: C_26  and  C_28
REMARK                            x       y       z     vdW  Elec       q    Type
REMARK                         _______ _______ _______ _____ _____    ______ ____
ROOT
ATOM      1  C   UNL     1      33.922 -14.106 -22.771  0.00  0.00    -0.002 C 
ATOM      2  C   UNL     1      32.554 -11.802 -22.028  0.00  0.00    +0.054 C 
ATOM      3  C   UNL     1      33.866 -13.027 -23.646  0.00  0.00    -0.002 C 
ATOM      4  C   UNL     1      33.300 -14.045 -21.529  0.00  0.00    -0.002 C 
ATOM      5  C   UNL     1      33.181 -11.872 -23.273  0.00  0.00    +0.004 C 
ATOM      6  C   UNL     1      32.614 -12.890 -21.156  0.00  0.00    +0.004 C 
ENDROOT
BRANCH   2   9
ATOM      7  O   UNL     1      30.758 -10.705 -21.038  0.00  0.00    -0.270 OA
ATOM      8  N   UNL     1      32.459  -9.384 -21.971  0.00  0.00    -0.279 N 
ATOM      9  C   UNL     1      31.838 -10.598 -21.641  0.00  0.00    +0.250 C 
ATOM     10  H   UNL     1      33.315  -9.458 -22.451  0.00  0.00    +0.155 HD
BRANCH   8  11
ATOM     11  C   UNL     1      32.016  -8.066 -21.703  0.00  0.00    +0.064 C 
ATOM     12  C   UNL     1      32.245  -7.488 -20.465  0.00  0.00    +0.055 C 
ATOM     13  C   UNL     1      31.352  -7.378 -22.707  0.00  0.00    +0.016 C 
ATOM     14  C   UNL     1      31.799  -6.188 -20.224  0.00  0.00    +0.015 C 
ATOM     15  C   UNL     1      30.906  -6.079 -22.467  0.00  0.00    +0.001 C 
ATOM     16  C   UNL     1      31.130  -5.484 -21.225  0.00  0.00    +0.001 C 
BRANCH  12  17
ATOM     17  N   UNL     1      32.922  -8.183 -19.437  0.00  0.00    -0.356 N 
ATOM     18  H   UNL     1      32.779  -9.150 -19.321  0.00  0.00    +0.142 HD
ATOM     19  H   UNL     1      33.535  -7.700 -18.838  0.00  0.00    +0.142 HD
ENDBRANCH  12  17
ENDBRANCH   8  11
ENDBRANCH   2   9
BRANCH   1  20
ATOM     20  C   UNL     1      34.661 -15.350 -23.170  0.00  0.00    +0.119 C 
BRANCH  20  22
ATOM     21  O   UNL     1      35.449 -18.145 -23.164  0.00  0.00    -0.226 OA
ATOM     22  N   UNL     1      34.985 -16.176 -22.030  0.00  0.00    -0.267 N 
ATOM     23  C   UNL     1      35.351 -17.501 -22.125  0.00  0.00    +0.402 C 
ATOM     24  H   UNL     1      34.943 -15.768 -21.134  0.00  0.00    +0.153 HD
BRANCH  23  25
ATOM     25  O   UNL     1      35.593 -18.003 -20.877  0.00  0.00    -0.430 OA
BRANCH  25  26
ATOM     26  C   UNL     1      36.285 -19.256 -20.830  0.00  0.00    +0.238 C 
BRANCH  26  28
ATOM     27  N   UNL     1      35.270 -22.201 -18.710  0.00  0.00    -0.243 NA
ATOM     28  C   UNL     1      35.422 -20.266 -20.132  0.00  0.00    +0.040 C 
ATOM     29  C   UNL     1      34.044 -20.216 -20.248  0.00  0.00    +0.002 C 
ATOM     30  C   UNL     1      35.988 -21.261 -19.364  0.00  0.00    +0.098 C 
ATOM     31  C   UNL     1      33.271 -21.165 -19.591  0.00  0.00    +0.020 C 
ATOM     32  C   UNL     1      33.926 -22.129 -18.840  0.00  0.00    +0.099 C 
ENDBRANCH  26  28
ENDBRANCH  25  26
ENDBRANCH  23  25
ENDBRANCH  20  22
ENDBRANCH   1  20
TORSDOF 8
ENDMDL
MODEL 4
REMARK VINA RESULT:     -10.8      2.276     10.640
REMARK  Name = 4261
REMARK  8 active torsions:
REMARK  status: ('A' for Active; 'I' for Inactive)
REMARK    1  A    between atoms: C_1  and  C_20
REMARK    2  A    between atoms: C_2  and  C_9
REMARK    3  A    between atoms: N_8  and  C_11
REMARK    4  A    between atoms: C_12  and  N_17
REMARK    5  A    between atoms: C_20  and  N_22
REMARK    6  A    between atoms: C_23  and  O_25
REMARK    7  A    between atoms: O_25  and  C_26
REMARK    8  A    between atoms: C_26  and  C_28
REMARK                            x       y       z     vdW  Elec       q    Type
REMARK                         _______ _______ _______ _____ _____    ______ ____
ROOT
ATOM      1  C   UNL     1      35.173 -17.665 -23.154  0.00  0.00    -0.002 C 
ATOM      2  C   UNL     1      34.105 -15.154 -23.689  0.00  0.00    +0.054 C 
ATOM      3  C   UNL     1      35.313 -16.645 -22.220  0.00  0.00    -0.002 C 
ATOM      4  C   UNL     1      34.505 -17.443 -24.353  0.00  0.00    -0.002 C 
ATOM      5  C   UNL     1      34.777 -15.386 -22.488  0.00  0.00    +0.004 C 
ATOM      6  C   UNL     1      33.969 -16.184 -24.621  0.00  0.00    +0.004 C 
ENDROOT
BRANCH   2   9
ATOM      7  O   UNL     1      33.040 -13.626 -25.081  0.00  0.00    -0.270 OA
ATOM      8  N   UNL     1      33.613 -12.913 -22.919  0.00  0.00    -0.279 N 
ATOM      9  C   UNL     1      33.548 -13.842 -23.969  0.00  0.00    +0.250 C 
ATOM     10  H   UNL     1      34.046 -13.230 -22.094  0.00  0.00    +0.155 HD
BRANCH   8  11
ATOM     11  C   UNL     1      33.135 -11.580 -22.891  0.00  0.00    +0.064 C 
ATOM     12  C   UNL     1      32.031 -11.248 -22.122  0.00  0.00    +0.055 C 
ATOM     13  C   UNL     1      33.799 -10.628 -23.648  0.00  0.00    +0.016 C 
ATOM     14  C   UNL     1      31.580  -9.928 -22.111  0.00  0.00    +0.015 C 
ATOM     15  C   UNL     1      33.348  -9.308 -23.636  0.00  0.00    +0.001 C 
ATOM     16  C   UNL     1      32.237  -8.958 -22.868  0.00  0.00    +0.001 C 
BRANCH  12  17
ATOM     17  N   UNL     1      31.350 -12.213 -21.347  0.00  0.00    -0.356 N 
ATOM     18  H   UNL     1      30.854 -11.936 -20.544  0.00  0.00    +0.142 HD
ATOM     19  H   UNL     1      31.372 -13.161 -21.611  0.00  0.00    +0.142 HD
ENDBRANCH  12  17
ENDBRANCH   8  11
ENDBRANCH   2   9
BRANCH   1  20
ATOM     20  C   UNL     1      35.749 -19.021 -22.865  0.00  0.00    +0.119 C 
BRANCH  20  22
ATOM     21  O   UNL     1      36.818 -19.388 -20.190  0.00  0.00    -0.226 OA
ATOM     22  N   UNL     1      35.107 -19.650 -21.733  0.00  0.00    -0.267 N 
ATOM     23  C   UNL     1      35.697 -19.779 -20.494  0.00  0.00    +0.402 C 
ATOM     24  H   UNL     1      34.197 -20.007 -21.855  0.00  0.00    +0.153 HD
BRANCH  23  25
ATOM     25  O   UNL     1      34.839 -20.416 -19.641  0.00  0.00    -0.430 OA
BRANCH  25  26
ATOM     26  C   UNL     1      35.317 -21.641 -19.074  0.00  0.00    +0.238 C 
BRANCH  26  28
ATOM     27  N   UNL     1      31.954 -22.475 -17.594  0.00  0.00    -0.243 NA
ATOM     28  C   UNL     1      34.280 -22.183 -18.134  0.00  0.00    +0.040 C 
ATOM     29  C   UNL     1      34.654 -22.860 -16.987  0.00  0.00    +0.002 C 
ATOM     30  C   UNL     1      32.938 -22.014 -18.398  0.00  0.00    +0.098 C 
ATOM     31  C   UNL     1      33.672 -23.349 -16.135  0.00  0.00    +0.020 C 
ATOM     32  C   UNL     1      32.347 -23.133 -16.480  0.00  0.00    +0.099 C 
ENDBRANCH  26  28
ENDBRANCH  25  26
ENDBRANCH  23  25
ENDBRANCH  20  22
ENDBRANCH   1  20
TORSDOF 8
ENDMDL
MODEL 5
REMARK VINA RESULT:     -10.6      3.157      9.859
REMARK  Name = 4261
REMARK  8 active torsions:
REMARK  status: ('A' for Active; 'I' for Inactive)
REMARK    1  A    between atoms: C_1  and  C_20
REMARK    2  A    between atoms: C_2  and  C_9
REMARK    3  A    between atoms: N_8  and  C_11
REMARK    4  A    between atoms: C_12  and  N_17
REMARK    5  A    between atoms: C_20  and  N_22
REMARK    6  A    between atoms: C_23  and  O_25
REMARK    7  A    between atoms: O_25  and  C_26
REMARK    8  A    between atoms: C_26  and  C_28
REMARK                            x       y       z     vdW  Elec       q    Type
REMARK                         _______ _______ _______ _____ _____    ______ ____
ROOT
ATOM      1  C   UNL     1      34.736 -23.047 -16.648  0.00  0.00    -0.002 C 
ATOM      2  C   UNL     1      34.072 -21.523 -18.877  0.00  0.00    +0.054 C 
ATOM      3  C   UNL     1      33.411 -22.975 -17.063  0.00  0.00    -0.002 C 
ATOM      4  C   UNL     1      35.732 -22.363 -17.336  0.00  0.00    -0.002 C 
ATOM      5  C   UNL     1      33.079 -22.212 -18.181  0.00  0.00    +0.004 C 
ATOM      6  C   UNL     1      35.400 -21.599 -18.454  0.00  0.00    +0.004 C 
ENDROOT
BRANCH   2   9
ATOM      7  O   UNL     1      32.537 -20.662 -20.397  0.00  0.00    -0.270 OA
ATOM      8  N   UNL     1      34.789 -20.057 -20.665  0.00  0.00    -0.279 N 
ATOM      9  C   UNL     1      33.725 -20.725 -20.041  0.00  0.00    +0.250 C 
ATOM     10  H   UNL     1      35.677 -20.204 -20.268  0.00  0.00    +0.155 HD
BRANCH   8  11
ATOM     11  C   UNL     1      34.752 -19.199 -21.790  0.00  0.00    +0.064 C 
ATOM     12  C   UNL     1      35.156 -17.878 -21.678  0.00  0.00    +0.055 C 
ATOM     13  C   UNL     1      34.304 -19.715 -22.997  0.00  0.00    +0.016 C 
ATOM     14  C   UNL     1      35.110 -17.052 -22.801  0.00  0.00    +0.015 C 
ATOM     15  C   UNL     1      34.258 -18.888 -24.119  0.00  0.00    +0.001 C 
ATOM     16  C   UNL     1      34.661 -17.556 -24.021  0.00  0.00    +0.001 C 
BRANCH  12  17
ATOM     17  N   UNL     1      35.614 -17.346 -20.452  0.00  0.00    -0.356 N 
ATOM     18  H   UNL     1      36.268 -16.610 -20.450  0.00  0.00    +0.142 HD
ATOM     19  H   UNL     1      35.280 -17.710 -19.601  0.00  0.00    +0.142 HD
ENDBRANCH  12  17
ENDBRANCH   8  11
ENDBRANCH   2   9
BRANCH   1  20
ATOM     20  C   UNL     1      35.095 -23.870 -15.446  0.00  0.00    +0.119 C 
BRANCH  20  22
ATOM     21  O   UNL     1      34.967 -24.012 -12.547  0.00  0.00    -0.226 OA
ATOM     22  N   UNL     1      33.942 -24.156 -14.623  0.00  0.00    -0.267 N 
ATOM     23  C   UNL     1      33.978 -24.202 -13.246  0.00  0.00    +0.402 C 
ATOM     24  H   UNL     1      33.082 -24.327 -15.072  0.00  0.00    +0.153 HD
BRANCH  23  25
ATOM     25  O   UNL     1      32.733 -24.495 -12.762  0.00  0.00    -0.430 OA
BRANCH  25  26
ATOM     26  C   UNL     1      31.780 -23.426 -12.801  0.00  0.00    +0.238 C 
BRANCH  26  28
ATOM     27  N   UNL     1      29.071 -25.300 -14.631  0.00  0.00    -0.243 NA
ATOM     28  C   UNL     1      30.720 -23.751 -13.813  0.00  0.00    +0.040 C 
ATOM     29  C   UNL     1      30.415 -22.857 -14.824  0.00  0.00    +0.002 C 
ATOM     30  C   UNL     1      30.035 -24.945 -13.752  0.00  0.00    +0.098 C 
ATOM     31  C   UNL     1      29.429 -23.186 -15.747  0.00  0.00    +0.020 C 
ATOM     32  C   UNL     1      28.792 -24.409 -15.608  0.00  0.00    +0.099 C 
ENDBRANCH  26  28
ENDBRANCH  25  26
ENDBRANCH  23  25
ENDBRANCH  20  22
ENDBRANCH   1  20
TORSDOF 8
ENDMDL
MODEL 6
REMARK VINA RESULT:     -10.6      2.859     10.920
REMARK  Name = 4261
REMARK  8 active torsions:
REMARK  status: ('A' for Active; 'I' for Inactive)
REMARK    1  A    between atoms: C_1  and  C_20
REMARK    2  A    between atoms: C_2  and  C_9
REMARK    3  A    between atoms: N_8  and  C_11
REMARK    4  A    between atoms: C_12  and  N_17
REMARK    5  A    between atoms: C_20  and  N_22
REMARK    6  A    between atoms: C_23  and  O_25
REMARK    7  A    between atoms: O_25  and  C_26
REMARK    8  A    between atoms: C_26  and  C_28
REMARK                            x       y       z     vdW  Elec       q    Type
REMARK                         _______ _______ _______ _____ _____    ______ ____
ROOT
ATOM      1  C   UNL     1      35.109 -17.493 -23.158  0.00  0.00    -0.002 C 
ATOM      2  C   UNL     1      34.039 -14.977 -23.670  0.00  0.00    +0.054 C 
ATOM      3  C   UNL     1      34.465 -17.251 -24.367  0.00  0.00    -0.002 C 
ATOM      4  C   UNL     1      35.222 -16.489 -22.203  0.00  0.00    -0.002 C 
ATOM      5  C   UNL     1      33.930 -15.990 -24.623  0.00  0.00    +0.004 C 
ATOM      6  C   UNL     1      34.687 -15.228 -22.459  0.00  0.00    +0.004 C 
ENDROOT
BRANCH   2   9
ATOM      7  O   UNL     1      33.020 -13.420 -25.064  0.00  0.00    -0.270 OA
ATOM      8  N   UNL     1      33.484 -12.765 -22.859  0.00  0.00    -0.279 N 
ATOM      9  C   UNL     1      33.479 -13.663 -23.937  0.00  0.00    +0.250 C 
ATOM     10  H   UNL     1      33.883 -13.102 -22.024  0.00  0.00    +0.155 HD
BRANCH   8  11
ATOM     11  C   UNL     1      32.989 -11.439 -22.814  0.00  0.00    +0.064 C 
ATOM     12  C   UNL     1      33.589 -10.442 -23.565  0.00  0.00    +0.055 C 
ATOM     13  C   UNL     1      31.897 -11.172 -22.003  0.00  0.00    +0.016 C 
ATOM     14  C   UNL     1      33.084  -9.143 -23.504  0.00  0.00    +0.015 C 
ATOM     15  C   UNL     1      31.391  -9.874 -21.943  0.00  0.00    +0.001 C 
ATOM     16  C   UNL     1      31.985  -8.859 -22.693  0.00  0.00    +0.001 C 
BRANCH  12  17
ATOM     17  N   UNL     1      34.703 -10.707 -24.394  0.00  0.00    -0.356 N 
ATOM     18  H   UNL     1      35.449 -11.252 -24.055  0.00  0.00    +0.142 HD
ATOM     19  H   UNL     1      34.731 -10.347 -25.309  0.00  0.00    +0.142 HD
ENDBRANCH  12  17
ENDBRANCH   8  11
ENDBRANCH   2   9
BRANCH   1  20
ATOM     20  C   UNL     1      35.687 -18.850 -22.883  0.00  0.00    +0.119 C 
BRANCH  20  22
ATOM     21  O   UNL     1      36.833 -19.235 -20.242  0.00  0.00    -0.226 OA
ATOM     22  N   UNL     1      35.074 -19.475 -21.734  0.00  0.00    -0.267 N 
ATOM     23  C   UNL     1      35.699 -19.614 -20.513  0.00  0.00    +0.402 C 
ATOM     24  H   UNL     1      34.157 -19.822 -21.828  0.00  0.00    +0.153 HD
BRANCH  23  25
ATOM     25  O   UNL     1      34.862 -20.244 -19.635  0.00  0.00    -0.430 OA
BRANCH  25  26
ATOM     26  C   UNL     1      34.988 -21.669 -19.564  0.00  0.00    +0.238 C 
BRANCH  26  28
ATOM     27  N   UNL     1      34.952 -23.124 -16.088  0.00  0.00    -0.243 NA
ATOM     28  C   UNL     1      35.442 -22.051 -18.185  0.00  0.00    +0.040 C 
ATOM     29  C   UNL     1      36.706 -21.709 -17.740  0.00  0.00    +0.002 C 
ATOM     30  C   UNL     1      34.606 -22.749 -17.341  0.00  0.00    +0.098 C 
ATOM     31  C   UNL     1      37.098 -22.076 -16.459  0.00  0.00    +0.020 C 
ATOM     32  C   UNL     1      36.193 -22.777 -15.679  0.00  0.00    +0.099 C 
ENDBRANCH  26  28
ENDBRANCH  25  26
ENDBRANCH  23  25
ENDBRANCH  20  22
ENDBRANCH   1  20
TORSDOF 8
ENDMDL
MODEL 7
REMARK VINA RESULT:     -10.5      2.601     11.237
REMARK  Name = 4261
REMARK  8 active torsions:
REMARK  status: ('A' for Active; 'I' for Inactive)
REMARK    1  A    between atoms: C_1  and  C_20
REMARK    2  A    between atoms: C_2  and  C_9
REMARK    3  A    between atoms: N_8  and  C_11
REMARK    4  A    between atoms: C_12  and  N_17
REMARK    5  A    between atoms: C_20  and  N_22
REMARK    6  A    between atoms: C_23  and  O_25
REMARK    7  A    between atoms: O_25  and  C_26
REMARK    8  A    between atoms: C_26  and  C_28
REMARK                            x       y       z     vdW  Elec       q    Type
REMARK                         _______ _______ _______ _____ _____    ______ ____
ROOT
ATOM      1  C   UNL     1      34.943 -16.578 -22.989  0.00  0.00    -0.002 C 
ATOM      2  C   UNL     1      33.772 -14.064 -22.799  0.00  0.00    +0.054 C 
ATOM      3  C   UNL     1      34.937 -15.913 -21.768  0.00  0.00    -0.002 C 
ATOM      4  C   UNL     1      34.370 -15.999 -24.115  0.00  0.00    -0.002 C 
ATOM      5  C   UNL     1      34.349 -14.652 -21.673  0.00  0.00    +0.004 C 
ATOM      6  C   UNL     1      33.782 -14.739 -24.020  0.00  0.00    +0.004 C 
ENDROOT
BRANCH   2   9
ATOM      7  O   UNL     1      32.073 -12.631 -22.113  0.00  0.00    -0.270 OA
ATOM      8  N   UNL     1      33.886 -11.692 -23.271  0.00  0.00    -0.279 N 
ATOM      9  C   UNL     1      33.161 -12.749 -22.700  0.00  0.00    +0.250 C 
ATOM     10  H   UNL     1      34.735 -11.941 -23.702  0.00  0.00    +0.155 HD
BRANCH   8  11
ATOM     11  C   UNL     1      33.557 -10.316 -23.306  0.00  0.00    +0.064 C 
ATOM     12  C   UNL     1      34.419  -9.404 -23.895  0.00  0.00    +0.055 C 
ATOM     13  C   UNL     1      32.359  -9.911 -22.739  0.00  0.00    +0.016 C 
ATOM     14  C   UNL     1      34.073  -8.053 -23.917  0.00  0.00    +0.015 C 
ATOM     15  C   UNL     1      32.013  -8.560 -22.762  0.00  0.00    +0.001 C 
ATOM     16  C   UNL     1      32.871  -7.631 -23.351  0.00  0.00    +0.001 C 
BRANCH  12  17
ATOM     17  N   UNL     1      35.642  -9.810 -24.476  0.00  0.00    -0.356 N 
ATOM     18  H   UNL     1      35.887 -10.763 -24.488  0.00  0.00    +0.142 HD
ATOM     19  H   UNL     1      36.246  -9.140 -24.867  0.00  0.00    +0.142 HD
ENDBRANCH  12  17
ENDBRANCH   8  11
ENDBRANCH   2   9
BRANCH   1  20
ATOM     20  C   UNL     1      35.574 -17.936 -23.091  0.00  0.00    +0.119 C 
BRANCH  20  22
ATOM     21  O   UNL     1      37.609 -18.760 -21.189  0.00  0.00    -0.226 OA
ATOM     22  N   UNL     1      35.396 -18.707 -21.882  0.00  0.00    -0.267 N 
ATOM     23  C   UNL     1      36.428 -19.052 -21.036  0.00  0.00    +0.402 C 
ATOM     24  H   UNL     1      34.486 -19.003 -21.649  0.00  0.00    +0.153 HD
BRANCH  23  25
ATOM     25  O   UNL     1      35.939 -19.778 -19.986  0.00  0.00    -0.430 OA
BRANCH  25  26
ATOM     26  C   UNL     1      34.758 -20.544 -20.251  0.00  0.00    +0.238 C 
BRANCH  26  28
ATOM     27  N   UNL     1      35.319 -22.727 -17.231  0.00  0.00    -0.243 NA
ATOM     28  C   UNL     1      34.475 -21.430 -19.073  0.00  0.00    +0.040 C 
ATOM     29  C   UNL     1      33.174 -21.766 -18.742  0.00  0.00    +0.002 C 
ATOM     30  C   UNL     1      35.505 -21.924 -18.303  0.00  0.00    +0.098 C 
ATOM     31  C   UNL     1      32.942 -22.589 -17.647  0.00  0.00    +0.020 C 
ATOM     32  C   UNL     1      34.039 -23.039 -16.930  0.00  0.00    +0.099 C 
ENDBRANCH  26  28
ENDBRANCH  25  26
ENDBRANCH  23  25
ENDBRANCH  20  22
ENDBRANCH   1  20
TORSDOF 8
ENDMDL
MODEL 8
REMARK VINA RESULT:     -10.5      3.585      6.169
REMARK  Name = 4261
REMARK  8 active torsions:
REMARK  status: ('A' for Active; 'I' for Inactive)
REMARK    1  A    between atoms: C_1  and  C_20
REMARK    2  A    between atoms: C_2  and  C_9
REMARK    3  A    between atoms: N_8  and  C_11
REMARK    4  A    between atoms: C_12  and  N_17
REMARK    5  A    between atoms: C_20  and  N_22
REMARK    6  A    between atoms: C_23  and  O_25
REMARK    7  A    between atoms: O_25  and  C_26
REMARK    8  A    between atoms: C_26  and  C_28
REMARK                            x       y       z     vdW  Elec       q    Type
REMARK                         _______ _______ _______ _____ _____    ______ ____
ROOT
ATOM      1  C   UNL     1      33.958 -14.998 -24.106  0.00  0.00    -0.002 C 
ATOM      2  C   UNL     1      34.998 -17.180 -22.731  0.00  0.00    +0.054 C 
ATOM      3  C   UNL     1      34.425 -14.834 -22.807  0.00  0.00    -0.002 C 
ATOM      4  C   UNL     1      34.007 -16.242 -24.725  0.00  0.00    -0.002 C 
ATOM      5  C   UNL     1      34.947 -15.927 -22.118  0.00  0.00    +0.004 C 
ATOM      6  C   UNL     1      34.528 -17.336 -24.035  0.00  0.00    +0.004 C 
ENDROOT
BRANCH   2   9
ATOM      7  O   UNL     1      36.717 -18.659 -22.216  0.00  0.00    -0.270 OA
ATOM      8  N   UNL     1      34.670 -18.942 -21.104  0.00  0.00    -0.279 N 
ATOM      9  C   UNL     1      35.541 -18.320 -22.011  0.00  0.00    +0.250 C 
ATOM     10  H   UNL     1      33.764 -18.560 -21.051  0.00  0.00    +0.155 HD
BRANCH   8  11
ATOM     11  C   UNL     1      34.923 -20.046 -20.255  0.00  0.00    +0.064 C 
ATOM     12  C   UNL     1      33.883 -20.859 -19.834  0.00  0.00    +0.055 C 
ATOM     13  C   UNL     1      36.231 -20.286 -19.861  0.00  0.00    +0.016 C 
ATOM     14  C   UNL     1      34.158 -21.941 -18.997  0.00  0.00    +0.015 C 
ATOM     15  C   UNL     1      36.505 -21.368 -19.024  0.00  0.00    +0.001 C 
ATOM     16  C   UNL     1      35.468 -22.195 -18.592  0.00  0.00    +0.001 C 
BRANCH  12  17
ATOM     17  N   UNL     1      32.549 -20.621 -20.232  0.00  0.00    -0.356 N 
ATOM     18  H   UNL     1      32.297 -19.747 -20.608  0.00  0.00    +0.142 HD
ATOM     19  H   UNL     1      31.872 -21.329 -20.134  0.00  0.00    +0.142 HD
ENDBRANCH  12  17
ENDBRANCH   8  11
ENDBRANCH   2   9
BRANCH   1  20
ATOM     20  C   UNL     1      33.399 -13.820 -24.849  0.00  0.00    +0.119 C 
BRANCH  20  22
ATOM     21  O   UNL     1      34.123 -11.188 -25.840  0.00  0.00    -0.226 OA
ATOM     22  N   UNL     1      33.527 -12.595 -24.095  0.00  0.00    -0.267 N 
ATOM     23  C   UNL     1      33.878 -11.385 -24.655  0.00  0.00    +0.402 C 
ATOM     24  H   UNL     1      33.354 -12.626 -23.126  0.00  0.00    +0.153 HD
BRANCH  23  25
ATOM     25  O   UNL     1      33.914 -10.422 -23.685  0.00  0.00    -0.430 OA
BRANCH  25  26
ATOM     26  C   UNL     1      32.716  -9.655 -23.521  0.00  0.00    +0.238 C 
BRANCH  26  28
ATOM     27  N   UNL     1      32.179  -8.487 -19.979  0.00  0.00    -0.243 NA
ATOM     28  C   UNL     1      32.324  -9.664 -22.072  0.00  0.00    +0.040 C 
ATOM     29  C   UNL     1      31.770 -10.796 -21.500  0.00  0.00    +0.002 C 
ATOM     30  C   UNL     1      32.509  -8.546 -21.288  0.00  0.00    +0.098 C 
ATOM     31  C   UNL     1      31.417 -10.775 -20.156  0.00  0.00    +0.020 C 
ATOM     32  C   UNL     1      31.640  -9.606 -19.445  0.00  0.00    +0.099 C 
ENDBRANCH  26  28
ENDBRANCH  25  26
ENDBRANCH  23  25
ENDBRANCH  20  22
ENDBRANCH   1  20
TORSDOF 8
ENDMDL
MODEL 9
REMARK VINA RESULT:     -10.4      3.042      3.918
REMARK  Name = 4261
REMARK  8 active torsions:
REMARK  status: ('A' for Active; 'I' for Inactive)
REMARK    1  A    between atoms: C_1  and  C_20
REMARK    2  A    between atoms: C_2  and  C_9
REMARK    3  A    between atoms: N_8  and  C_11
REMARK    4  A    between atoms: C_12  and  N_17
REMARK    5  A    between atoms: C_20  and  N_22
REMARK    6  A    between atoms: C_23  and  O_25
REMARK    7  A    between atoms: O_25  and  C_26
REMARK    8  A    between atoms: C_26  and  C_28
REMARK                            x       y       z     vdW  Elec       q    Type
REMARK                         _______ _______ _______ _____ _____    ______ ____
ROOT
ATOM      1  C   UNL     1      34.911 -21.192 -19.463  0.00  0.00    -0.002 C 
ATOM      2  C   UNL     1      36.039 -22.241 -17.148  0.00  0.00    +0.054 C 
ATOM      3  C   UNL     1      36.261 -20.987 -19.201  0.00  0.00    -0.002 C 
ATOM      4  C   UNL     1      34.119 -21.917 -18.579  0.00  0.00    -0.002 C 
ATOM      5  C   UNL     1      36.826 -21.513 -18.041  0.00  0.00    +0.004 C 
ATOM      6  C   UNL     1      34.685 -22.443 -17.418  0.00  0.00    +0.004 C 
ENDROOT
BRANCH   2   9
ATOM      7  O   UNL     1      37.806 -22.510 -15.661  0.00  0.00    -0.270 OA
ATOM      8  N   UNL     1      35.784 -23.588 -15.153  0.00  0.00    -0.279 N 
ATOM      9  C   UNL     1      36.629 -22.789 -15.938  0.00  0.00    +0.250 C 
ATOM     10  H   UNL     1      34.874 -23.720 -15.503  0.00  0.00    +0.155 HD
BRANCH   8  11
ATOM     11  C   UNL     1      36.070 -24.228 -13.923  0.00  0.00    +0.064 C 
ATOM     12  C   UNL     1      36.996 -25.257 -13.867  0.00  0.00    +0.055 C 
ATOM     13  C   UNL     1      35.401 -23.798 -12.787  0.00  0.00    +0.016 C 
ATOM     14  C   UNL     1      37.260 -25.873 -12.643  0.00  0.00    +0.015 C 
ATOM     15  C   UNL     1      35.666 -24.413 -11.564  0.00  0.00    +0.001 C 
ATOM     16  C   UNL     1      36.595 -25.451 -11.492  0.00  0.00    +0.001 C 
BRANCH  12  17
ATOM     17  N   UNL     1      37.682 -25.700 -15.020  0.00  0.00    -0.356 N 
ATOM     18  H   UNL     1      37.257 -26.351 -15.624  0.00  0.00    +0.142 HD
ATOM     19  H   UNL     1      38.582 -25.358 -15.219  0.00  0.00    +0.142 HD
ENDBRANCH  12  17
ENDBRANCH   8  11
ENDBRANCH   2   9
BRANCH   1  20
ATOM     20  C   UNL     1      34.302 -20.627 -20.713  0.00  0.00    +0.119 C 
BRANCH  20  22
ATOM     21  O   UNL     1      34.591 -19.751 -23.467  0.00  0.00    -0.226 OA
ATOM     22  N   UNL     1      35.042 -19.488 -21.207  0.00  0.00    -0.267 N 
ATOM     23  C   UNL     1      35.122 -19.148 -22.541  0.00  0.00    +0.402 C 
ATOM     24  H   UNL     1      35.515 -18.923 -20.554  0.00  0.00    +0.153 HD
BRANCH  23  25
ATOM     25  O   UNL     1      35.891 -18.027 -22.684  0.00  0.00    -0.430 OA
BRANCH  25  26
ATOM     26  C   UNL     1      35.431 -16.861 -21.991  0.00  0.00    +0.238 C 
BRANCH  26  28
ATOM     27  N   UNL     1      33.894 -15.588 -25.186  0.00  0.00    -0.243 NA
ATOM     28  C   UNL     1      34.752 -15.947 -22.968  0.00  0.00    +0.040 C 
ATOM     29  C   UNL     1      34.367 -14.673 -22.588  0.00  0.00    +0.002 C 
ATOM     30  C   UNL     1      34.500 -16.360 -24.258  0.00  0.00    +0.098 C 
ATOM     31  C   UNL     1      33.740 -13.848 -23.515  0.00  0.00    +0.020 C 
ATOM     32  C   UNL     1      33.528 -14.348 -24.790  0.00  0.00    +0.099 C 
ENDBRANCH  26  28
ENDBRANCH  25  26
ENDBRANCH  23  25
ENDBRANCH  20  22
ENDBRANCH   1  20
TORSDOF 8
ENDMDL
