MODEL 1
REMARK VINA RESULT:     -11.2      0.000      0.000
REMARK  Name = 16755766
REMARK  5 active torsions:
REMARK  status: ('A' for Active; 'I' for Inactive)
REMARK    1  A    between atoms: N_1  and  C_25
REMARK    2  A    between atoms: N_3  and  C_12
REMARK    3  A    between atoms: C_5  and  C_20
REMARK    4  A    between atoms: C_25  and  C_26
REMARK    5  A    between atoms: C_26  and  C_29
REMARK                            x       y       z     vdW  Elec       q    Type
REMARK                         _______ _______ _______ _____ _____    ______ ____
ROOT
ATOM      1  N   UNL     1      32.562 -23.352 -15.653  0.00  0.00    -0.174 N 
ATOM      2  N   UNL     1      33.768 -23.543 -15.117  0.00  0.00    -0.096 NA
ATOM      3  N   UNL     1      34.291 -24.501 -12.983  0.00  0.00    -0.246 N 
ATOM      4  N   UNL     1      32.089 -24.250 -13.734  0.00  0.00    -0.319 NA
ATOM      5  C   UNL     1      31.567 -23.768 -14.839  0.00  0.00    +0.216 C 
ATOM      6  C   UNL     1      33.427 -24.093 -13.949  0.00  0.00    +0.165 C 
ATOM      7  H   UNL     1      33.849 -24.802 -12.156  0.00  0.00    +0.165 HD
ENDROOT
BRANCH   3  12
ATOM      8  F   UNL     1      40.493 -26.854 -13.765  0.00  0.00    -0.125 F 
ATOM      9  F   UNL     1      40.631 -25.062 -15.012  0.00  0.00    -0.125 F 
ATOM     10  O   UNL     1      38.598 -26.007 -14.676  0.00  0.00    -0.395 OA
ATOM     11  O   UNL     1      39.796 -24.872 -12.914  0.00  0.00    -0.395 OA
ATOM     12  C   UNL     1      35.711 -24.577 -12.936  0.00  0.00    +0.061 C 
ATOM     13  C   UNL     1      37.764 -25.350 -13.821  0.00  0.00    +0.183 C 
ATOM     14  C   UNL     1      36.387 -25.305 -13.909  0.00  0.00    +0.056 C 
ATOM     15  C   UNL     1      38.448 -24.702 -12.817  0.00  0.00    +0.182 C 
ATOM     16  C   UNL     1      36.398 -23.915 -11.910  0.00  0.00    +0.019 C 
ATOM     17  C   UNL     1      37.792 -23.975 -11.845  0.00  0.00    +0.042 C 
ATOM     18  C   UNL     1      39.867 -25.694 -14.086  0.00  0.00    +0.589 C 
ENDBRANCH   3  12
BRANCH   5  20
ATOM     19  N   UNL     1      27.442 -23.507 -15.772  0.00  0.00    -0.242 NA
ATOM     20  C   UNL     1      30.163 -23.679 -15.155  0.00  0.00    +0.050 C 
ATOM     21  C   UNL     1      29.429 -22.563 -14.768  0.00  0.00    +0.025 C 
ATOM     22  C   UNL     1      29.538 -24.709 -15.850  0.00  0.00    +0.025 C 
ATOM     23  C   UNL     1      28.084 -22.526 -15.099  0.00  0.00    +0.099 C 
ATOM     24  C   UNL     1      28.188 -24.575 -16.131  0.00  0.00    +0.099 C 
ENDBRANCH   5  20
BRANCH   1  25
ATOM     25  C   UNL     1      32.450 -22.741 -16.972  0.00  0.00    +0.129 C 
BRANCH  25  26
ATOM     26  C   UNL     1      33.783 -22.738 -17.719  0.00  0.00    +0.109 C 
BRANCH  26  29
ATOM     27  O   UNL     1      32.739 -21.470 -19.466  0.00  0.00    -0.275 OA
ATOM     28  N   UNL     1      35.037 -21.241 -19.249  0.00  0.00    -0.276 N 
ATOM     29  C   UNL     1      33.790 -21.763 -18.889  0.00  0.00    +0.228 C 
ATOM     30  C   UNL     1      36.269 -21.602 -18.552  0.00  0.00    +0.115 C 
ATOM     31  C   UNL     1      35.202 -20.298 -20.349  0.00  0.00    +0.115 C 
ENDBRANCH  26  29
ENDBRANCH  25  26
ENDBRANCH   1  25
TORSDOF 5
ENDMDL
MODEL 2
REMARK VINA RESULT:     -11.1      4.302      8.106
REMARK  Name = 16755766
REMARK  5 active torsions:
REMARK  status: ('A' for Active; 'I' for Inactive)
REMARK    1  A    between atoms: N_1  and  C_25
REMARK    2  A    between atoms: N_3  and  C_12
REMARK    3  A    between atoms: C_5  and  C_20
REMARK    4  A    between atoms: C_25  and  C_26
REMARK    5  A    between atoms: C_26  and  C_29
REMARK                            x       y       z     vdW  Elec       q    Type
REMARK                         _______ _______ _______ _____ _____    ______ ____
ROOT
ATOM      1  N   UNL     1      34.570 -23.752 -15.126  0.00  0.00    -0.174 N 
ATOM      2  N   UNL     1      34.455 -22.996 -16.220  0.00  0.00    -0.096 NA
ATOM      3  N   UNL     1      36.218 -22.055 -17.544  0.00  0.00    -0.246 N 
ATOM      4  N   UNL     1      36.640 -23.358 -15.646  0.00  0.00    -0.319 NA
ATOM      5  C   UNL     1      35.858 -23.968 -14.785  0.00  0.00    +0.216 C 
ATOM      6  C   UNL     1      35.743 -22.782 -16.499  0.00  0.00    +0.165 C 
ATOM      7  H   UNL     1      37.195 -21.938 -17.535  0.00  0.00    +0.165 HD
ENDROOT
BRANCH   3  12
ATOM      8  F   UNL     1      34.914 -17.663 -22.405  0.00  0.00    -0.125 F 
ATOM      9  F   UNL     1      35.261 -19.448 -23.620  0.00  0.00    -0.125 F 
ATOM     10  O   UNL     1      36.217 -19.318 -21.568  0.00  0.00    -0.395 OA
ATOM     11  O   UNL     1      33.836 -19.582 -21.863  0.00  0.00    -0.395 OA
ATOM     12  C   UNL     1      35.573 -21.430 -18.648  0.00  0.00    +0.061 C 
ATOM     13  C   UNL     1      35.656 -20.089 -20.595  0.00  0.00    +0.183 C 
ATOM     14  C   UNL     1      36.327 -20.676 -19.541  0.00  0.00    +0.056 C 
ATOM     15  C   UNL     1      34.297 -20.240 -20.764  0.00  0.00    +0.182 C 
ATOM     16  C   UNL     1      34.190 -21.589 -18.811  0.00  0.00    +0.019 C 
ATOM     17  C   UNL     1      33.536 -20.985 -19.888  0.00  0.00    +0.042 C 
ATOM     18  C   UNL     1      35.057 -19.011 -22.353  0.00  0.00    +0.589 C 
ENDBRANCH   3  12
BRANCH   5  20
ATOM     19  N   UNL     1      37.106 -26.243 -11.435  0.00  0.00    -0.242 NA
ATOM     20  C   UNL     1      36.282 -24.744 -13.645  0.00  0.00    +0.050 C 
ATOM     21  C   UNL     1      36.850 -26.000 -13.827  0.00  0.00    +0.025 C 
ATOM     22  C   UNL     1      36.126 -24.237 -12.360  0.00  0.00    +0.025 C 
ATOM     23  C   UNL     1      37.242 -26.703 -12.699  0.00  0.00    +0.099 C 
ATOM     24  C   UNL     1      36.550 -25.019 -11.298  0.00  0.00    +0.099 C 
ENDBRANCH   5  20
BRANCH   1  25
ATOM     25  C   UNL     1      33.368 -24.226 -14.451  0.00  0.00    +0.129 C 
BRANCH  25  26
ATOM     26  C   UNL     1      32.293 -23.143 -14.361  0.00  0.00    +0.109 C 
BRANCH  26  29
ATOM     27  O   UNL     1      31.086 -22.884 -16.415  0.00  0.00    -0.275 OA
ATOM     28  N   UNL     1      30.123 -24.257 -14.812  0.00  0.00    -0.276 N 
ATOM     29  C   UNL     1      31.122 -23.406 -15.298  0.00  0.00    +0.228 C 
ATOM     30  C   UNL     1      30.187 -24.865 -13.486  0.00  0.00    +0.115 C 
ATOM     31  C   UNL     1      28.942 -24.600 -15.594  0.00  0.00    +0.115 C 
ENDBRANCH  26  29
ENDBRANCH  25  26
ENDBRANCH   1  25
TORSDOF 5
ENDMDL
MODEL 3
REMARK VINA RESULT:     -10.3      4.449      8.202
REMARK  Name = 16755766
REMARK  5 active torsions:
REMARK  status: ('A' for Active; 'I' for Inactive)
REMARK    1  A    between atoms: N_1  and  C_25
REMARK    2  A    between atoms: N_3  and  C_12
REMARK    3  A    between atoms: C_5  and  C_20
REMARK    4  A    between atoms: C_25  and  C_26
REMARK    5  A    between atoms: C_26  and  C_29
REMARK                            x       y       z     vdW  Elec       q    Type
REMARK                         _______ _______ _______ _____ _____    ______ ____
ROOT
ATOM      1  N   UNL     1      34.831 -23.583 -14.425  0.00  0.00    -0.174 N 
ATOM      2  N   UNL     1      33.548 -23.701 -14.771  0.00  0.00    -0.096 NA
ATOM      3  N   UNL     1      31.749 -24.580 -13.454  0.00  0.00    -0.246 N 
ATOM      4  N   UNL     1      33.944 -24.467 -12.653  0.00  0.00    -0.319 NA
ATOM      5  C   UNL     1      35.069 -24.035 -13.175  0.00  0.00    +0.216 C 
ATOM      6  C   UNL     1      33.049 -24.244 -13.659  0.00  0.00    +0.165 C 
ATOM      7  H   UNL     1      31.588 -25.048 -12.604  0.00  0.00    +0.165 HD
ENDROOT
BRANCH   3  12
ATOM      8  F   UNL     1      25.812 -22.221 -15.409  0.00  0.00    -0.125 F 
ATOM      9  F   UNL     1      27.039 -21.534 -17.085  0.00  0.00    -0.125 F 
ATOM     10  O   UNL     1      28.031 -21.891 -15.077  0.00  0.00    -0.395 OA
ATOM     11  O   UNL     1      27.190 -23.701 -16.436  0.00  0.00    -0.395 OA
ATOM     12  C   UNL     1      30.575 -24.386 -14.235  0.00  0.00    +0.061 C 
ATOM     13  C   UNL     1      28.795 -23.014 -14.977  0.00  0.00    +0.183 C 
ATOM     14  C   UNL     1      29.930 -23.154 -14.203  0.00  0.00    +0.056 C 
ATOM     15  C   UNL     1      28.315 -24.046 -15.752  0.00  0.00    +0.182 C 
ATOM     16  C   UNL     1      30.094 -25.442 -15.021  0.00  0.00    +0.019 C 
ATOM     17  C   UNL     1      28.944 -25.274 -15.796  0.00  0.00    +0.042 C 
ATOM     18  C   UNL     1      27.029 -22.345 -15.997  0.00  0.00    +0.589 C 
ENDBRANCH   3  12
BRANCH   5  20
ATOM     19  N   UNL     1      38.874 -24.034 -11.312  0.00  0.00    -0.242 NA
ATOM     20  C   UNL     1      36.364 -24.036 -12.540  0.00  0.00    +0.050 C 
ATOM     21  C   UNL     1      37.281 -25.042 -12.825  0.00  0.00    +0.025 C 
ATOM     22  C   UNL     1      36.701 -23.030 -11.642  0.00  0.00    +0.025 C 
ATOM     23  C   UNL     1      38.512 -24.996 -12.190  0.00  0.00    +0.099 C 
ATOM     24  C   UNL     1      37.957 -23.074 -11.060  0.00  0.00    +0.099 C 
ENDBRANCH   5  20
BRANCH   1  25
ATOM     25  C   UNL     1      35.784 -23.025 -15.378  0.00  0.00    +0.129 C 
BRANCH  25  26
ATOM     26  C   UNL     1      35.142 -22.742 -16.735  0.00  0.00    +0.109 C 
BRANCH  26  29
ATOM     27  O   UNL     1      37.245 -21.778 -17.363  0.00  0.00    -0.275 OA
ATOM     28  N   UNL     1      35.475 -21.448 -18.825  0.00  0.00    -0.276 N 
ATOM     29  C   UNL     1      36.059 -21.950 -17.658  0.00  0.00    +0.228 C 
ATOM     30  C   UNL     1      34.067 -21.664 -19.154  0.00  0.00    +0.115 C 
ATOM     31  C   UNL     1      36.226 -20.670 -19.803  0.00  0.00    +0.115 C 
ENDBRANCH  26  29
ENDBRANCH  25  26
ENDBRANCH   1  25
TORSDOF 5
ENDMDL
MODEL 4
REMARK VINA RESULT:     -10.3      2.715      5.927
REMARK  Name = 16755766
REMARK  5 active torsions:
REMARK  status: ('A' for Active; 'I' for Inactive)
REMARK    1  A    between atoms: N_1  and  C_25
REMARK    2  A    between atoms: N_3  and  C_12
REMARK    3  A    between atoms: C_5  and  C_20
REMARK    4  A    between atoms: C_25  and  C_26
REMARK    5  A    between atoms: C_26  and  C_29
REMARK                            x       y       z     vdW  Elec       q    Type
REMARK                         _______ _______ _______ _____ _____    ______ ____
ROOT
ATOM      1  N   UNL     1      35.086 -22.020 -17.950  0.00  0.00    -0.174 N 
ATOM      2  N   UNL     1      35.533 -22.637 -16.855  0.00  0.00    -0.096 NA
ATOM      3  N   UNL     1      37.730 -22.528 -15.904  0.00  0.00    -0.246 N 
ATOM      4  N   UNL     1      37.151 -21.362 -17.849  0.00  0.00    -0.319 NA
ATOM      5  C   UNL     1      36.038 -21.266 -18.540  0.00  0.00    +0.216 C 
ATOM      6  C   UNL     1      36.796 -22.204 -16.836  0.00  0.00    +0.165 C 
ATOM      7  H   UNL     1      38.629 -22.180 -16.105  0.00  0.00    +0.165 HD
ENDROOT
BRANCH   3  12
ATOM      8  F   UNL     1      36.664 -24.000  -9.476  0.00  0.00    -0.125 F 
ATOM      9  F   UNL     1      35.223 -25.363 -10.399  0.00  0.00    -0.125 F 
ATOM     10  O   UNL     1      35.838 -23.494 -11.526  0.00  0.00    -0.395 OA
ATOM     11  O   UNL     1      37.354 -25.339 -11.171  0.00  0.00    -0.395 OA
ATOM     12  C   UNL     1      37.659 -23.273 -14.694  0.00  0.00    +0.061 C 
ATOM     13  C   UNL     1      36.686 -23.678 -12.576  0.00  0.00    +0.183 C 
ATOM     14  C   UNL     1      36.715 -22.926 -13.733  0.00  0.00    +0.056 C 
ATOM     15  C   UNL     1      37.550 -24.732 -12.374  0.00  0.00    +0.182 C 
ATOM     16  C   UNL     1      38.543 -24.343 -14.497  0.00  0.00    +0.019 C 
ATOM     17  C   UNL     1      38.491 -25.089 -13.317  0.00  0.00    +0.042 C 
ATOM     18  C   UNL     1      36.275 -24.547 -10.656  0.00  0.00    +0.589 C 
ENDBRANCH   3  12
BRANCH   5  20
ATOM     19  N   UNL     1      35.459 -18.991 -22.067  0.00  0.00    -0.242 NA
ATOM     20  C   UNL     1      35.841 -20.493 -19.742  0.00  0.00    +0.050 C 
ATOM     21  C   UNL     1      34.626 -20.548 -20.416  0.00  0.00    +0.025 C 
ATOM     22  C   UNL     1      36.864 -19.688 -20.228  0.00  0.00    +0.025 C 
ATOM     23  C   UNL     1      34.487 -19.785 -21.564  0.00  0.00    +0.099 C 
ATOM     24  C   UNL     1      36.625 -18.963 -21.384  0.00  0.00    +0.099 C 
ENDBRANCH   5  20
BRANCH   1  25
ATOM     25  C   UNL     1      33.705 -22.221 -18.375  0.00  0.00    +0.129 C 
BRANCH  25  26
ATOM     26  C   UNL     1      33.034 -23.370 -17.625  0.00  0.00    +0.109 C 
BRANCH  26  29
ATOM     27  O   UNL     1      30.979 -22.256 -17.093  0.00  0.00    -0.275 OA
ATOM     28  N   UNL     1      32.136 -23.199 -15.318  0.00  0.00    -0.276 N 
ATOM     29  C   UNL     1      31.951 -22.886 -16.669  0.00  0.00    +0.228 C 
ATOM     30  C   UNL     1      33.297 -23.946 -14.838  0.00  0.00    +0.115 C 
ATOM     31  C   UNL     1      31.186 -22.801 -14.287  0.00  0.00    +0.115 C 
ENDBRANCH  26  29
ENDBRANCH  25  26
ENDBRANCH   1  25
TORSDOF 5
ENDMDL
MODEL 5
REMARK VINA RESULT:     -10.1      3.840      7.256
REMARK  Name = 16755766
REMARK  5 active torsions:
REMARK  status: ('A' for Active; 'I' for Inactive)
REMARK    1  A    between atoms: N_1  and  C_25
REMARK    2  A    between atoms: N_3  and  C_12
REMARK    3  A    between atoms: C_5  and  C_20
REMARK    4  A    between atoms: C_25  and  C_26
REMARK    5  A    between atoms: C_26  and  C_29
REMARK                            x       y       z     vdW  Elec       q    Type
REMARK                         _______ _______ _______ _____ _____    ______ ____
ROOT
ATOM      1  N   UNL     1      33.306 -23.450 -15.730  0.00  0.00    -0.174 N 
ATOM      2  N   UNL     1      33.880 -22.801 -16.745  0.00  0.00    -0.096 NA
ATOM      3  N   UNL     1      32.814 -21.847 -18.668  0.00  0.00    -0.246 N 
ATOM      4  N   UNL     1      31.612 -22.956 -16.993  0.00  0.00    -0.319 NA
ATOM      5  C   UNL     1      31.966 -23.543 -15.874  0.00  0.00    +0.216 C 
ATOM      6  C   UNL     1      32.807 -22.520 -17.487  0.00  0.00    +0.165 C 
ATOM      7  H   UNL     1      31.936 -21.812 -19.110  0.00  0.00    +0.165 HD
ENDROOT
BRANCH   3  12
ATOM      8  F   UNL     1      36.075 -18.855 -23.671  0.00  0.00    -0.125 F 
ATOM      9  F   UNL     1      35.996 -17.193 -22.251  0.00  0.00    -0.125 F 
ATOM     10  O   UNL     1      34.421 -18.818 -22.122  0.00  0.00    -0.395 OA
ATOM     11  O   UNL     1      36.728 -19.213 -21.529  0.00  0.00    -0.395 OA
ATOM     12  C   UNL     1      33.847 -21.183 -19.386  0.00  0.00    +0.061 C 
ATOM     13  C   UNL     1      34.548 -19.696 -21.087  0.00  0.00    +0.183 C 
ATOM     14  C   UNL     1      33.511 -20.316 -20.420  0.00  0.00    +0.056 C 
ATOM     15  C   UNL     1      35.865 -19.920 -20.750  0.00  0.00    +0.182 C 
ATOM     16  C   UNL     1      35.184 -21.418 -19.035  0.00  0.00    +0.019 C 
ATOM     17  C   UNL     1      36.215 -20.777 -19.726  0.00  0.00    +0.042 C 
ATOM     18  C   UNL     1      35.801 -18.528 -22.383  0.00  0.00    +0.589 C 
ENDBRANCH   3  12
BRANCH   5  20
ATOM     19  N   UNL     1      29.381 -25.457 -13.115  0.00  0.00    -0.242 NA
ATOM     20  C   UNL     1      31.088 -24.195 -14.934  0.00  0.00    +0.050 C 
ATOM     21  C   UNL     1      31.291 -24.044 -13.566  0.00  0.00    +0.025 C 
ATOM     22  C   UNL     1      30.033 -24.976 -15.393  0.00  0.00    +0.025 C 
ATOM     23  C   UNL     1      30.417 -24.690 -12.707  0.00  0.00    +0.099 C 
ATOM     24  C   UNL     1      29.216 -25.580 -14.451  0.00  0.00    +0.099 C 
ENDBRANCH   5  20
BRANCH   1  25
ATOM     25  C   UNL     1      34.134 -23.968 -14.647  0.00  0.00    +0.129 C 
BRANCH  25  26
ATOM     26  C   UNL     1      35.589 -24.152 -15.073  0.00  0.00    +0.109 C 
BRANCH  26  29
ATOM     27  O   UNL     1      35.996 -26.510 -15.209  0.00  0.00    -0.275 OA
ATOM     28  N   UNL     1      36.917 -25.402 -13.392  0.00  0.00    -0.276 N 
ATOM     29  C   UNL     1      36.178 -25.466 -14.577  0.00  0.00    +0.228 C 
ATOM     30  C   UNL     1      37.121 -24.154 -12.660  0.00  0.00    +0.115 C 
ATOM     31  C   UNL     1      37.539 -26.578 -12.795  0.00  0.00    +0.115 C 
ENDBRANCH  26  29
ENDBRANCH  25  26
ENDBRANCH   1  25
TORSDOF 5
ENDMDL
MODEL 6
REMARK VINA RESULT:      -9.7      1.769      2.073
REMARK  Name = 16755766
REMARK  5 active torsions:
REMARK  status: ('A' for Active; 'I' for Inactive)
REMARK    1  A    between atoms: N_1  and  C_25
REMARK    2  A    between atoms: N_3  and  C_12
REMARK    3  A    between atoms: C_5  and  C_20
REMARK    4  A    between atoms: C_25  and  C_26
REMARK    5  A    between atoms: C_26  and  C_29
REMARK                            x       y       z     vdW  Elec       q    Type
REMARK                         _______ _______ _______ _____ _____    ______ ____
ROOT
ATOM      1  N   UNL     1      33.514 -23.145 -16.231  0.00  0.00    -0.174 N 
ATOM      2  N   UNL     1      34.764 -23.562 -16.022  0.00  0.00    -0.096 NA
ATOM      3  N   UNL     1      35.597 -24.823 -14.161  0.00  0.00    -0.246 N 
ATOM      4  N   UNL     1      33.352 -24.184 -14.333  0.00  0.00    -0.319 NA
ATOM      5  C   UNL     1      32.678 -23.510 -15.236  0.00  0.00    +0.216 C 
ATOM      6  C   UNL     1      34.614 -24.190 -14.854  0.00  0.00    +0.165 C 
ATOM      7  H   UNL     1      35.313 -25.153 -13.279  0.00  0.00    +0.165 HD
ENDROOT
BRANCH   3  12
ATOM      8  F   UNL     1      41.494 -27.956 -14.340  0.00  0.00    -0.125 F 
ATOM      9  F   UNL     1      41.009 -27.985 -16.473  0.00  0.00    -0.125 F 
ATOM     10  O   UNL     1      39.318 -27.854 -14.968  0.00  0.00    -0.395 OA
ATOM     11  O   UNL     1      40.851 -26.027 -15.342  0.00  0.00    -0.395 OA
ATOM     12  C   UNL     1      36.959 -25.100 -14.468  0.00  0.00    +0.061 C 
ATOM     13  C   UNL     1      38.715 -26.638 -14.847  0.00  0.00    +0.183 C 
ATOM     14  C   UNL     1      37.385 -26.421 -14.548  0.00  0.00    +0.056 C 
ATOM     15  C   UNL     1      39.590 -25.596 -15.061  0.00  0.00    +0.182 C 
ATOM     16  C   UNL     1      37.841 -24.033 -14.683  0.00  0.00    +0.019 C 
ATOM     17  C   UNL     1      39.182 -24.280 -14.986  0.00  0.00    +0.042 C 
ATOM     18  C   UNL     1      40.657 -27.447 -15.279  0.00  0.00    +0.589 C 
ENDBRANCH   3  12
BRANCH   5  20
ATOM     19  N   UNL     1      28.548 -22.571 -15.114  0.00  0.00    -0.242 NA
ATOM     20  C   UNL     1      31.271 -23.192 -15.193  0.00  0.00    +0.050 C 
ATOM     21  C   UNL     1      30.714 -22.645 -14.042  0.00  0.00    +0.025 C 
ATOM     22  C   UNL     1      30.469 -23.428 -16.304  0.00  0.00    +0.025 C 
ATOM     23  C   UNL     1      29.359 -22.355 -14.054  0.00  0.00    +0.099 C 
ATOM     24  C   UNL     1      29.125 -23.104 -16.213  0.00  0.00    +0.099 C 
ENDBRANCH   5  20
BRANCH   1  25
ATOM     25  C   UNL     1      33.204 -22.377 -17.432  0.00  0.00    +0.129 C 
BRANCH  25  26
ATOM     26  C   UNL     1      34.018 -22.842 -18.639  0.00  0.00    +0.109 C 
BRANCH  26  29
ATOM     27  O   UNL     1      36.110 -21.754 -19.066  0.00  0.00    -0.275 OA
ATOM     28  N   UNL     1      34.213 -20.721 -19.910  0.00  0.00    -0.276 N 
ATOM     29  C   UNL     1      34.886 -21.733 -19.217  0.00  0.00    +0.228 C 
ATOM     30  C   UNL     1      32.762 -20.716 -20.077  0.00  0.00    +0.115 C 
ATOM     31  C   UNL     1      34.910 -19.594 -20.517  0.00  0.00    +0.115 C 
ENDBRANCH  26  29
ENDBRANCH  25  26
ENDBRANCH   1  25
TORSDOF 5
ENDMDL
MODEL 7
REMARK VINA RESULT:      -9.2      4.180      8.474
REMARK  Name = 16755766
REMARK  5 active torsions:
REMARK  status: ('A' for Active; 'I' for Inactive)
REMARK    1  A    between atoms: N_1  and  C_25
REMARK    2  A    between atoms: N_3  and  C_12
REMARK    3  A    between atoms: C_5  and  C_20
REMARK    4  A    between atoms: C_25  and  C_26
REMARK    5  A    between atoms: C_26  and  C_29
REMARK                            x       y       z     vdW  Elec       q    Type
REMARK                         _______ _______ _______ _____ _____    ______ ____
ROOT
ATOM      1  N   UNL     1      35.076 -22.955 -16.712  0.00  0.00    -0.174 N 
ATOM      2  N   UNL     1      35.204 -22.126 -17.749  0.00  0.00    -0.096 NA
ATOM      3  N   UNL     1      37.053 -20.688 -18.259  0.00  0.00    -0.246 N 
ATOM      4  N   UNL     1      37.029 -22.072 -16.372  0.00  0.00    -0.319 NA
ATOM      5  C   UNL     1      36.152 -22.926 -15.897  0.00  0.00    +0.216 C 
ATOM      6  C   UNL     1      36.410 -21.611 -17.497  0.00  0.00    +0.165 C 
ATOM      7  H   UNL     1      37.896 -20.366 -17.866  0.00  0.00    +0.165 HD
ENDROOT
BRANCH   3  12
ATOM      8  F   UNL     1      34.548 -19.932 -24.405  0.00  0.00    -0.125 F 
ATOM      9  F   UNL     1      33.485 -18.315 -23.385  0.00  0.00    -0.125 F 
ATOM     10  O   UNL     1      34.217 -20.083 -22.168  0.00  0.00    -0.395 OA
ATOM     11  O   UNL     1      35.732 -18.472 -23.137  0.00  0.00    -0.395 OA
ATOM     12  C   UNL     1      36.742 -20.098 -19.516  0.00  0.00    +0.061 C 
ATOM     13  C   UNL     1      35.309 -19.861 -21.384  0.00  0.00    +0.183 C 
ATOM     14  C   UNL     1      35.566 -20.459 -20.167  0.00  0.00    +0.056 C 
ATOM     15  C   UNL     1      36.173 -18.941 -21.937  0.00  0.00    +0.182 C 
ATOM     16  C   UNL     1      37.627 -19.164 -20.071  0.00  0.00    +0.019 C 
ATOM     17  C   UNL     1      37.342 -18.572 -21.304  0.00  0.00    +0.042 C 
ATOM     18  C   UNL     1      34.504 -19.202 -23.262  0.00  0.00    +0.589 C 
ENDBRANCH   3  12
BRANCH   5  20
ATOM     19  N   UNL     1      36.548 -25.245 -12.372  0.00  0.00    -0.242 NA
ATOM     20  C   UNL     1      36.288 -23.715 -14.696  0.00  0.00    +0.050 C 
ATOM     21  C   UNL     1      36.166 -23.114 -13.448  0.00  0.00    +0.025 C 
ATOM     22  C   UNL     1      36.541 -25.079 -14.784  0.00  0.00    +0.025 C 
ATOM     23  C   UNL     1      36.303 -23.916 -12.327  0.00  0.00    +0.099 C 
ATOM     24  C   UNL     1      36.661 -25.793 -13.602  0.00  0.00    +0.099 C 
ENDBRANCH   5  20
BRANCH   1  25
ATOM     25  C   UNL     1      33.861 -23.748 -16.572  0.00  0.00    +0.129 C 
BRANCH  25  26
ATOM     26  C   UNL     1      32.844 -23.082 -15.645  0.00  0.00    +0.109 C 
BRANCH  26  29
ATOM     27  O   UNL     1      32.988 -24.655 -13.842  0.00  0.00    -0.275 OA
ATOM     28  N   UNL     1      30.865 -24.215 -14.667  0.00  0.00    -0.276 N 
ATOM     29  C   UNL     1      32.255 -24.056 -14.633  0.00  0.00    +0.228 C 
ATOM     30  C   UNL     1      30.016 -23.495 -15.613  0.00  0.00    +0.115 C 
ATOM     31  C   UNL     1      30.160 -25.113 -13.761  0.00  0.00    +0.115 C 
ENDBRANCH  26  29
ENDBRANCH  25  26
ENDBRANCH   1  25
TORSDOF 5
ENDMDL
MODEL 8
REMARK VINA RESULT:      -9.1      4.726      8.765
REMARK  Name = 16755766
REMARK  5 active torsions:
REMARK  status: ('A' for Active; 'I' for Inactive)
REMARK    1  A    between atoms: N_1  and  C_25
REMARK    2  A    between atoms: N_3  and  C_12
REMARK    3  A    between atoms: C_5  and  C_20
REMARK    4  A    between atoms: C_25  and  C_26
REMARK    5  A    between atoms: C_26  and  C_29
REMARK                            x       y       z     vdW  Elec       q    Type
REMARK                         _______ _______ _______ _____ _____    ______ ____
ROOT
ATOM      1  N   UNL     1      34.515 -23.957 -14.154  0.00  0.00    -0.174 N 
ATOM      2  N   UNL     1      33.256 -23.967 -14.595  0.00  0.00    -0.096 NA
ATOM      3  N   UNL     1      31.268 -24.442 -13.343  0.00  0.00    -0.246 N 
ATOM      4  N   UNL     1      33.396 -24.483 -12.371  0.00  0.00    -0.319 NA
ATOM      5  C   UNL     1      34.602 -24.261 -12.842  0.00  0.00    +0.216 C 
ATOM      6  C   UNL     1      32.612 -24.293 -13.472  0.00  0.00    +0.165 C 
ATOM      7  H   UNL     1      30.987 -24.769 -12.458  0.00  0.00    +0.165 HD
ENDROOT
BRANCH   3  12
ATOM      8  F   UNL     1      25.569 -22.021 -15.849  0.00  0.00    -0.125 F 
ATOM      9  F   UNL     1      26.971 -21.252 -17.342  0.00  0.00    -0.125 F 
ATOM     10  O   UNL     1      27.732 -21.697 -15.253  0.00  0.00    -0.395 OA
ATOM     11  O   UNL     1      27.068 -23.446 -16.780  0.00  0.00    -0.395 OA
ATOM     12  C   UNL     1      30.188 -24.217 -14.242  0.00  0.00    +0.061 C 
ATOM     13  C   UNL     1      28.491 -22.821 -15.118  0.00  0.00    +0.183 C 
ATOM     14  C   UNL     1      29.532 -22.991 -14.227  0.00  0.00    +0.056 C 
ATOM     15  C   UNL     1      28.112 -23.818 -15.989  0.00  0.00    +0.182 C 
ATOM     16  C   UNL     1      29.809 -25.238 -15.125  0.00  0.00    +0.019 C 
ATOM     17  C   UNL     1      28.753 -25.039 -16.016  0.00  0.00    +0.042 C 
ATOM     18  C   UNL     1      26.845 -22.112 -16.301  0.00  0.00    +0.589 C 
ENDBRANCH   3  12
BRANCH   5  20
ATOM     19  N   UNL     1      38.227 -24.468 -10.658  0.00  0.00    -0.242 NA
ATOM     20  C   UNL     1      35.837 -24.331 -12.099  0.00  0.00    +0.050 C 
ATOM     21  C   UNL     1      36.456 -23.164 -11.663  0.00  0.00    +0.025 C 
ATOM     22  C   UNL     1      36.411 -25.565 -11.816  0.00  0.00    +0.025 C 
ATOM     23  C   UNL     1      37.639 -23.287 -10.952  0.00  0.00    +0.099 C 
ATOM     24  C   UNL     1      37.596 -25.579 -11.098  0.00  0.00    +0.099 C 
ENDBRANCH   5  20
BRANCH   1  25
ATOM     25  C   UNL     1      35.598 -23.649 -15.081  0.00  0.00    +0.129 C 
BRANCH  25  26
ATOM     26  C   UNL     1      36.579 -24.811 -15.227  0.00  0.00    +0.109 C 
BRANCH  26  29
ATOM     27  O   UNL     1      38.313 -23.263 -14.643  0.00  0.00    -0.275 OA
ATOM     28  N   UNL     1      38.848 -25.516 -14.514  0.00  0.00    -0.276 N 
ATOM     29  C   UNL     1      37.985 -24.446 -14.770  0.00  0.00    +0.228 C 
ATOM     30  C   UNL     1      38.437 -26.910 -14.671  0.00  0.00    +0.115 C 
ATOM     31  C   UNL     1      40.224 -25.322 -14.072  0.00  0.00    +0.115 C 
ENDBRANCH  26  29
ENDBRANCH  25  26
ENDBRANCH   1  25
TORSDOF 5
ENDMDL
MODEL 9
REMARK VINA RESULT:      -9.0      4.852      9.662
REMARK  Name = 16755766
REMARK  5 active torsions:
REMARK  status: ('A' for Active; 'I' for Inactive)
REMARK    1  A    between atoms: N_1  and  C_25
REMARK    2  A    between atoms: N_3  and  C_12
REMARK    3  A    between atoms: C_5  and  C_20
REMARK    4  A    between atoms: C_25  and  C_26
REMARK    5  A    between atoms: C_26  and  C_29
REMARK                            x       y       z     vdW  Elec       q    Type
REMARK                         _______ _______ _______ _____ _____    ______ ____
ROOT
ATOM      1  N   UNL     1      35.308 -22.204 -17.924  0.00  0.00    -0.174 N 
ATOM      2  N   UNL     1      35.099 -21.423 -18.985  0.00  0.00    -0.096 NA
ATOM      3  N   UNL     1      36.473 -19.627 -19.779  0.00  0.00    -0.246 N 
ATOM      4  N   UNL     1      37.024 -20.877 -17.878  0.00  0.00    -0.319 NA
ATOM      5  C   UNL     1      36.444 -21.884 -17.268  0.00  0.00    +0.216 C 
ATOM      6  C   UNL     1      36.171 -20.632 -18.915  0.00  0.00    +0.165 C 
ATOM      7  H   UNL     1      37.260 -19.098 -19.514  0.00  0.00    +0.165 HD
ENDROOT
BRANCH   3  12
ATOM      8  F   UNL     1      33.342 -15.718 -24.199  0.00  0.00    -0.125 F 
ATOM      9  F   UNL     1      35.244 -15.987 -25.244  0.00  0.00    -0.125 F 
ATOM     10  O   UNL     1      35.197 -16.197 -22.987  0.00  0.00    -0.395 OA
ATOM     11  O   UNL     1      34.165 -17.815 -24.452  0.00  0.00    -0.395 OA
ATOM     12  C   UNL     1      35.869 -19.192 -20.991  0.00  0.00    +0.061 C 
ATOM     13  C   UNL     1      35.284 -17.467 -22.501  0.00  0.00    +0.183 C 
ATOM     14  C   UNL     1      35.884 -17.839 -21.314  0.00  0.00    +0.056 C 
ATOM     15  C   UNL     1      34.695 -18.390 -23.337  0.00  0.00    +0.182 C 
ATOM     16  C   UNL     1      35.272 -20.139 -21.835  0.00  0.00    +0.019 C 
ATOM     17  C   UNL     1      34.673 -19.735 -23.031  0.00  0.00    +0.042 C 
ATOM     18  C   UNL     1      34.491 -16.439 -24.211  0.00  0.00    +0.589 C 
ENDBRANCH   3  12
BRANCH   5  20
ATOM     19  N   UNL     1      37.838 -23.849 -13.782  0.00  0.00    -0.242 NA
ATOM     20  C   UNL     1      36.919 -22.555 -16.082  0.00  0.00    +0.050 C 
ATOM     21  C   UNL     1      38.135 -23.229 -16.100  0.00  0.00    +0.025 C 
ATOM     22  C   UNL     1      36.162 -22.527 -14.916  0.00  0.00    +0.025 C 
ATOM     23  C   UNL     1      38.546 -23.854 -14.934  0.00  0.00    +0.099 C 
ATOM     24  C   UNL     1      36.662 -23.185 -13.803  0.00  0.00    +0.099 C 
ENDBRANCH   5  20
BRANCH   1  25
ATOM     25  C   UNL     1      34.343 -23.248 -17.598  0.00  0.00    +0.129 C 
BRANCH  25  26
ATOM     26  C   UNL     1      33.079 -22.681 -16.953  0.00  0.00    +0.109 C 
BRANCH  26  29
ATOM     27  O   UNL     1      33.450 -24.103 -15.059  0.00  0.00    -0.275 OA
ATOM     28  N   UNL     1      31.251 -23.501 -15.489  0.00  0.00    -0.276 N 
ATOM     29  C   UNL     1      32.626 -23.495 -15.748  0.00  0.00    +0.228 C 
ATOM     30  C   UNL     1      30.294 -22.773 -16.318  0.00  0.00    +0.115 C 
ATOM     31  C   UNL     1      30.670 -24.236 -14.372  0.00  0.00    +0.115 C 
ENDBRANCH  26  29
ENDBRANCH  25  26
ENDBRANCH   1  25
TORSDOF 5
ENDMDL
