MODEL 1
REMARK VINA RESULT:     -11.3      0.000      0.000
REMARK  Name = 9969613
REMARK  5 active torsions:
REMARK  status: ('A' for Active; 'I' for Inactive)
REMARK    1  A    between atoms: C_3  and  O_7
REMARK    2  A    between atoms: C_4  and  O_17
REMARK    3  A    between atoms: O_7  and  C_13
REMARK    4  A    between atoms: O_17  and  C_21
REMARK    5  A    between atoms: C_18  and  N_24
REMARK                            x       y       z     vdW  Elec       q    Type
REMARK                         _______ _______ _______ _____ _____    ______ ____
ROOT
ATOM      1  N   UNL     1      34.542 -23.388 -16.129  0.00  0.00    -0.283 NA
ATOM      2  N   UNL     1      32.163 -23.338 -16.512  0.00  0.00    -0.151 NA
ATOM      3  C   UNL     1      34.284 -23.231 -14.821  0.00  0.00    +0.296 C 
ATOM      4  C   UNL     1      33.446 -23.432 -16.911  0.00  0.00    +0.260 C 
ATOM      5  C   UNL     1      33.028 -23.122 -14.276  0.00  0.00    +0.094 C 
ATOM      6  C   UNL     1      31.990 -23.183 -15.182  0.00  0.00    +0.119 C 
ENDROOT
BRANCH   3   7
ATOM      7  O   UNL     1      35.380 -23.179 -13.976  0.00  0.00    -0.427 OA
BRANCH   7  13
ATOM      8  O   UNL     1      39.924 -24.690 -14.551  0.00  0.00    -0.435 OA
ATOM      9  O   UNL     1      39.254 -27.004 -14.484  0.00  0.00    -0.435 OA
ATOM     10  C   UNL     1      38.581 -24.834 -14.386  0.00  0.00    +0.179 C 
ATOM     11  C   UNL     1      38.198 -26.156 -14.346  0.00  0.00    +0.177 C 
ATOM     12  C   UNL     1      37.665 -23.810 -14.265  0.00  0.00    +0.078 C 
ATOM     13  C   UNL     1      36.321 -24.156 -14.100  0.00  0.00    +0.151 C 
ATOM     14  C   UNL     1      36.878 -26.525 -14.185  0.00  0.00    +0.043 C 
ATOM     15  C   UNL     1      40.343 -26.068 -14.613  0.00  0.00    +0.429 C 
ATOM     16  C   UNL     1      35.930 -25.506 -14.061  0.00  0.00    +0.041 C 
ENDBRANCH   7  13
ENDBRANCH   3   7
BRANCH   4  17
ATOM     17  O   UNL     1      33.660 -23.592 -18.260  0.00  0.00    -0.383 OA
BRANCH  17  21
ATOM     18  C   UNL     1      34.646 -20.197 -20.437  0.00  0.00    +0.057 C 
ATOM     19  C   UNL     1      33.307 -20.507 -20.195  0.00  0.00    +0.018 C 
ATOM     20  C   UNL     1      35.653 -21.028 -19.946  0.00  0.00    +0.018 C 
ATOM     21  C   UNL     1      33.988 -22.465 -18.983  0.00  0.00    +0.160 C 
ATOM     22  C   UNL     1      32.977 -21.648 -19.464  0.00  0.00    +0.040 C 
ATOM     23  C   UNL     1      35.322 -22.169 -19.215  0.00  0.00    +0.040 C 
BRANCH  18  24
ATOM     24  N   UNL     1      34.974 -19.067 -21.161  0.00  0.00    -0.246 N 
ATOM     25  N   UNL     1      35.682 -17.000 -21.603  0.00  0.00    -0.224 NA
ATOM     26  C   UNL     1      34.876 -18.909 -22.520  0.00  0.00    +0.092 C 
ATOM     27  C   UNL     1      35.465 -17.888 -20.658  0.00  0.00    +0.172 C 
ATOM     28  C   UNL     1      35.316 -17.630 -22.766  0.00  0.00    +0.117 C 
ENDBRANCH  18  24
ENDBRANCH  17  21
ENDBRANCH   4  17
TORSDOF 5
ENDMDL
MODEL 2
REMARK VINA RESULT:     -11.0      3.687      7.339
REMARK  Name = 9969613
REMARK  5 active torsions:
REMARK  status: ('A' for Active; 'I' for Inactive)
REMARK    1  A    between atoms: C_3  and  O_7
REMARK    2  A    between atoms: C_4  and  O_17
REMARK    3  A    between atoms: O_7  and  C_13
REMARK    4  A    between atoms: O_17  and  C_21
REMARK    5  A    between atoms: C_18  and  N_24
REMARK                            x       y       z     vdW  Elec       q    Type
REMARK                         _______ _______ _______ _____ _____    ______ ____
ROOT
ATOM      1  N   UNL     1      34.289 -24.315 -14.112  0.00  0.00    -0.283 NA
ATOM      2  N   UNL     1      34.814 -23.995 -11.782  0.00  0.00    -0.151 NA
ATOM      3  C   UNL     1      35.512 -23.840 -14.400  0.00  0.00    +0.296 C 
ATOM      4  C   UNL     1      34.009 -24.365 -12.796  0.00  0.00    +0.260 C 
ATOM      5  C   UNL     1      36.433 -23.428 -13.470  0.00  0.00    +0.094 C 
ATOM      6  C   UNL     1      36.025 -23.529 -12.157  0.00  0.00    +0.119 C 
ENDROOT
BRANCH   3   7
ATOM      7  O   UNL     1      35.846 -23.769 -15.743  0.00  0.00    -0.427 OA
BRANCH   7  13
ATOM      8  O   UNL     1      34.753 -20.953 -19.502  0.00  0.00    -0.435 OA
ATOM      9  O   UNL     1      32.391 -21.311 -19.193  0.00  0.00    -0.435 OA
ATOM     10  C   UNL     1      34.488 -21.772 -18.448  0.00  0.00    +0.179 C 
ATOM     11  C   UNL     1      33.139 -21.978 -18.271  0.00  0.00    +0.177 C 
ATOM     12  C   UNL     1      35.425 -22.356 -17.620  0.00  0.00    +0.078 C 
ATOM     13  C   UNL     1      34.959 -23.171 -16.585  0.00  0.00    +0.151 C 
ATOM     14  C   UNL     1      32.652 -22.777 -17.257  0.00  0.00    +0.043 C 
ATOM     15  C   UNL     1      33.420 -20.666 -19.969  0.00  0.00    +0.429 C 
ATOM     16  C   UNL     1      33.581 -23.379 -16.404  0.00  0.00    +0.041 C 
ENDBRANCH   7  13
ENDBRANCH   3   7
BRANCH   4  17
ATOM     17  O   UNL     1      32.767 -24.846 -12.450  0.00  0.00    -0.383 OA
BRANCH  17  21
ATOM     18  C   UNL     1      29.558 -23.668 -14.806  0.00  0.00    +0.057 C 
ATOM     19  C   UNL     1      29.803 -25.024 -14.588  0.00  0.00    +0.018 C 
ATOM     20  C   UNL     1      30.391 -22.708 -14.231  0.00  0.00    +0.018 C 
ATOM     21  C   UNL     1      31.701 -24.454 -13.232  0.00  0.00    +0.160 C 
ATOM     22  C   UNL     1      30.882 -25.419 -13.796  0.00  0.00    +0.040 C 
ATOM     23  C   UNL     1      31.470 -23.104 -13.440  0.00  0.00    +0.040 C 
BRANCH  18  24
ATOM     24  N   UNL     1      28.489 -23.276 -15.590  0.00  0.00    -0.246 N 
ATOM     25  N   UNL     1      27.124 -23.142 -17.346  0.00  0.00    -0.224 NA
ATOM     26  C   UNL     1      27.497 -22.396 -15.239  0.00  0.00    +0.092 C 
ATOM     27  C   UNL     1      28.216 -23.695 -16.867  0.00  0.00    +0.172 C 
ATOM     28  C   UNL     1      26.671 -22.330 -16.336  0.00  0.00    +0.117 C 
ENDBRANCH  18  24
ENDBRANCH  17  21
ENDBRANCH   4  17
TORSDOF 5
ENDMDL
MODEL 3
REMARK VINA RESULT:     -10.9      4.450      8.426
REMARK  Name = 9969613
REMARK  5 active torsions:
REMARK  status: ('A' for Active; 'I' for Inactive)
REMARK    1  A    between atoms: C_3  and  O_7
REMARK    2  A    between atoms: C_4  and  O_17
REMARK    3  A    between atoms: O_7  and  C_13
REMARK    4  A    between atoms: O_17  and  C_21
REMARK    5  A    between atoms: C_18  and  N_24
REMARK                            x       y       z     vdW  Elec       q    Type
REMARK                         _______ _______ _______ _____ _____    ______ ____
ROOT
ATOM      1  N   UNL     1      35.514 -17.682 -22.662  0.00  0.00    -0.283 NA
ATOM      2  N   UNL     1      34.097 -17.793 -24.609  0.00  0.00    -0.151 NA
ATOM      3  C   UNL     1      35.159 -18.949 -22.394  0.00  0.00    +0.296 C 
ATOM      4  C   UNL     1      34.952 -17.170 -23.774  0.00  0.00    +0.260 C 
ATOM      5  C   UNL     1      34.301 -19.701 -23.156  0.00  0.00    +0.094 C 
ATOM      6  C   UNL     1      33.792 -19.063 -24.268  0.00  0.00    +0.119 C 
ENDROOT
BRANCH   3   7
ATOM      7  O   UNL     1      35.713 -19.518 -21.259  0.00  0.00    -0.427 OA
BRANCH   7  13
ATOM      8  O   UNL     1      34.915 -22.816 -17.832  0.00  0.00    -0.435 OA
ATOM      9  O   UNL     1      32.530 -22.501 -17.964  0.00  0.00    -0.435 OA
ATOM     10  C   UNL     1      34.568 -21.881 -18.758  0.00  0.00    +0.179 C 
ATOM     11  C   UNL     1      33.205 -21.700 -18.833  0.00  0.00    +0.177 C 
ATOM     12  C   UNL     1      35.439 -21.168 -19.555  0.00  0.00    +0.078 C 
ATOM     13  C   UNL     1      34.892 -20.245 -20.452  0.00  0.00    +0.151 C 
ATOM     14  C   UNL     1      32.640 -20.797 -19.710  0.00  0.00    +0.043 C 
ATOM     15  C   UNL     1      33.620 -23.204 -17.333  0.00  0.00    +0.429 C 
ATOM     16  C   UNL     1      33.501 -20.062 -20.529  0.00  0.00    +0.041 C 
ENDBRANCH   7  13
ENDBRANCH   3   7
BRANCH   4  17
ATOM     17  O   UNL     1      35.286 -15.874 -24.091  0.00  0.00    -0.383 OA
BRANCH  17  21
ATOM     18  C   UNL     1      33.050 -12.855 -22.325  0.00  0.00    +0.057 C 
ATOM     19  C   UNL     1      33.098 -12.965 -23.715  0.00  0.00    +0.018 C 
ATOM     20  C   UNL     1      33.752 -13.760 -21.529  0.00  0.00    +0.018 C 
ATOM     21  C   UNL     1      34.543 -14.872 -23.504  0.00  0.00    +0.160 C 
ATOM     22  C   UNL     1      33.850 -13.980 -24.308  0.00  0.00    +0.040 C 
ATOM     23  C   UNL     1      34.503 -14.775 -22.123  0.00  0.00    +0.040 C 
BRANCH  18  24
ATOM     24  N   UNL     1      32.305 -11.850 -21.737  0.00  0.00    -0.246 N 
ATOM     25  N   UNL     1      31.230  -9.912 -21.497  0.00  0.00    -0.224 NA
ATOM     26  C   UNL     1      31.786 -11.853 -20.467  0.00  0.00    +0.092 C 
ATOM     27  C   UNL     1      31.940 -10.660 -22.313  0.00  0.00    +0.172 C 
ATOM     28  C   UNL     1      31.131 -10.650 -20.345  0.00  0.00    +0.117 C 
ENDBRANCH  18  24
ENDBRANCH  17  21
ENDBRANCH   4  17
TORSDOF 5
ENDMDL
MODEL 4
REMARK VINA RESULT:     -10.7      4.654     10.647
REMARK  Name = 9969613
REMARK  5 active torsions:
REMARK  status: ('A' for Active; 'I' for Inactive)
REMARK    1  A    between atoms: C_3  and  O_7
REMARK    2  A    between atoms: C_4  and  O_17
REMARK    3  A    between atoms: O_7  and  C_13
REMARK    4  A    between atoms: O_17  and  C_21
REMARK    5  A    between atoms: C_18  and  N_24
REMARK                            x       y       z     vdW  Elec       q    Type
REMARK                         _______ _______ _______ _____ _____    ______ ____
ROOT
ATOM      1  N   UNL     1      35.790 -17.585 -22.211  0.00  0.00    -0.283 NA
ATOM      2  N   UNL     1      34.762 -19.569 -23.113  0.00  0.00    -0.151 NA
ATOM      3  C   UNL     1      35.135 -16.881 -23.148  0.00  0.00    +0.296 C 
ATOM      4  C   UNL     1      35.560 -18.912 -22.251  0.00  0.00    +0.260 C 
ATOM      5  C   UNL     1      34.292 -17.419 -24.088  0.00  0.00    +0.094 C 
ATOM      6  C   UNL     1      34.141 -18.789 -24.023  0.00  0.00    +0.119 C 
ENDROOT
BRANCH   3   7
ATOM      7  O   UNL     1      35.340 -15.511 -23.147  0.00  0.00    -0.427 OA
BRANCH   7  13
ATOM      8  O   UNL     1      32.215 -11.868 -22.686  0.00  0.00    -0.435 OA
ATOM      9  O   UNL     1      31.863 -12.352 -20.352  0.00  0.00    -0.435 OA
ATOM     10  C   UNL     1      32.950 -12.932 -22.263  0.00  0.00    +0.179 C 
ATOM     11  C   UNL     1      32.748 -13.210 -20.930  0.00  0.00    +0.177 C 
ATOM     12  C   UNL     1      33.811 -13.681 -23.037  0.00  0.00    +0.078 C 
ATOM     13  C   UNL     1      34.480 -14.743 -22.422  0.00  0.00    +0.151 C 
ATOM     14  C   UNL     1      33.397 -14.252 -20.298  0.00  0.00    +0.043 C 
ATOM     15  C   UNL     1      31.529 -11.506 -21.471  0.00  0.00    +0.429 C 
ATOM     16  C   UNL     1      34.275 -15.025 -21.061  0.00  0.00    +0.041 C 
ENDBRANCH   7  13
ENDBRANCH   3   7
BRANCH   4  17
ATOM     17  O   UNL     1      36.209 -19.676 -21.309  0.00  0.00    -0.383 OA
BRANCH  17  21
ATOM     18  C   UNL     1      33.849 -21.726 -18.578  0.00  0.00    +0.057 C 
ATOM     19  C   UNL     1      35.231 -21.915 -18.586  0.00  0.00    +0.018 C 
ATOM     20  C   UNL     1      33.260 -20.847 -19.488  0.00  0.00    +0.018 C 
ATOM     21  C   UNL     1      35.425 -20.356 -20.402  0.00  0.00    +0.160 C 
ATOM     22  C   UNL     1      36.024 -21.226 -19.504  0.00  0.00    +0.040 C 
ATOM     23  C   UNL     1      34.054 -20.158 -20.406  0.00  0.00    +0.040 C 
BRANCH  18  24
ATOM     24  N   UNL     1      33.062 -22.408 -17.668  0.00  0.00    -0.246 N 
ATOM     25  N   UNL     1      31.249 -23.053 -16.544  0.00  0.00    -0.224 NA
ATOM     26  C   UNL     1      33.482 -23.365 -16.780  0.00  0.00    +0.092 C 
ATOM     27  C   UNL     1      31.711 -22.260 -17.485  0.00  0.00    +0.172 C 
ATOM     28  C   UNL     1      32.349 -23.745 -16.100  0.00  0.00    +0.117 C 
ENDBRANCH  18  24
ENDBRANCH  17  21
ENDBRANCH   4  17
TORSDOF 5
ENDMDL
MODEL 5
REMARK VINA RESULT:     -10.7      2.724      8.003
REMARK  Name = 9969613
REMARK  5 active torsions:
REMARK  status: ('A' for Active; 'I' for Inactive)
REMARK    1  A    between atoms: C_3  and  O_7
REMARK    2  A    between atoms: C_4  and  O_17
REMARK    3  A    between atoms: O_7  and  C_13
REMARK    4  A    between atoms: O_17  and  C_21
REMARK    5  A    between atoms: C_18  and  N_24
REMARK                            x       y       z     vdW  Elec       q    Type
REMARK                         _______ _______ _______ _____ _____    ______ ____
ROOT
ATOM      1  N   UNL     1      34.291 -23.314 -15.988  0.00  0.00    -0.283 NA
ATOM      2  N   UNL     1      32.629 -23.081 -14.257  0.00  0.00    -0.151 NA
ATOM      3  C   UNL     1      33.286 -23.343 -16.878  0.00  0.00    +0.296 C 
ATOM      4  C   UNL     1      33.895 -23.181 -14.707  0.00  0.00    +0.260 C 
ATOM      5  C   UNL     1      31.953 -23.251 -16.561  0.00  0.00    +0.094 C 
ATOM      6  C   UNL     1      31.679 -23.119 -15.216  0.00  0.00    +0.119 C 
ENDROOT
BRANCH   3   7
ATOM      7  O   UNL     1      33.644 -23.478 -18.209  0.00  0.00    -0.427 OA
BRANCH   7  13
ATOM      8  O   UNL     1      36.838 -20.259 -19.848  0.00  0.00    -0.435 OA
ATOM      9  O   UNL     1      35.112 -18.964 -20.920  0.00  0.00    -0.435 OA
ATOM     10  C   UNL     1      35.601 -20.798 -19.669  0.00  0.00    +0.179 C 
ATOM     11  C   UNL     1      34.615 -20.059 -20.283  0.00  0.00    +0.177 C 
ATOM     12  C   UNL     1      35.313 -21.949 -18.966  0.00  0.00    +0.078 C 
ATOM     13  C   UNL     1      33.976 -22.349 -18.893  0.00  0.00    +0.151 C 
ATOM     14  C   UNL     1      33.287 -20.431 -20.225  0.00  0.00    +0.043 C 
ATOM     15  C   UNL     1      36.520 -19.098 -20.641  0.00  0.00    +0.429 C 
ATOM     16  C   UNL     1      32.969 -21.593 -19.518  0.00  0.00    +0.041 C 
ENDBRANCH   7  13
ENDBRANCH   3   7
BRANCH   4  17
ATOM     17  O   UNL     1      34.889 -23.145 -13.758  0.00  0.00    -0.383 OA
BRANCH  17  21
ATOM     18  C   UNL     1      38.179 -25.603 -14.365  0.00  0.00    +0.057 C 
ATOM     19  C   UNL     1      36.993 -26.137 -13.860  0.00  0.00    +0.018 C 
ATOM     20  C   UNL     1      38.259 -24.243 -14.666  0.00  0.00    +0.018 C 
ATOM     21  C   UNL     1      35.982 -23.961 -13.960  0.00  0.00    +0.160 C 
ATOM     22  C   UNL     1      35.888 -25.310 -13.657  0.00  0.00    +0.040 C 
ATOM     23  C   UNL     1      37.154 -23.417 -14.462  0.00  0.00    +0.040 C 
BRANCH  18  24
ATOM     24  N   UNL     1      39.275 -26.422 -14.567  0.00  0.00    -0.246 N 
ATOM     25  N   UNL     1      41.312 -27.287 -14.310  0.00  0.00    -0.224 NA
ATOM     26  C   UNL     1      39.378 -27.438 -15.483  0.00  0.00    +0.092 C 
ATOM     27  C   UNL     1      40.466 -26.375 -13.888  0.00  0.00    +0.172 C 
ATOM     28  C   UNL     1      40.641 -27.954 -15.304  0.00  0.00    +0.117 C 
ENDBRANCH  18  24
ENDBRANCH  17  21
ENDBRANCH   4  17
TORSDOF 5
ENDMDL
MODEL 6
REMARK VINA RESULT:     -10.6      1.618      2.482
REMARK  Name = 9969613
REMARK  5 active torsions:
REMARK  status: ('A' for Active; 'I' for Inactive)
REMARK    1  A    between atoms: C_3  and  O_7
REMARK    2  A    between atoms: C_4  and  O_17
REMARK    3  A    between atoms: O_7  and  C_13
REMARK    4  A    between atoms: O_17  and  C_21
REMARK    5  A    between atoms: C_18  and  N_24
REMARK                            x       y       z     vdW  Elec       q    Type
REMARK                         _______ _______ _______ _____ _____    ______ ____
ROOT
ATOM      1  N   UNL     1      36.044 -22.214 -16.995  0.00  0.00    -0.283 NA
ATOM      2  N   UNL     1      34.514 -22.143 -18.857  0.00  0.00    -0.151 NA
ATOM      3  C   UNL     1      35.075 -22.815 -16.287  0.00  0.00    +0.296 C 
ATOM      4  C   UNL     1      35.699 -21.909 -18.261  0.00  0.00    +0.260 C 
ATOM      5  C   UNL     1      33.823 -23.114 -16.765  0.00  0.00    +0.094 C 
ATOM      6  C   UNL     1      33.595 -22.750 -18.076  0.00  0.00    +0.119 C 
ENDROOT
BRANCH   3   7
ATOM      7  O   UNL     1      35.383 -23.148 -14.978  0.00  0.00    -0.427 OA
BRANCH   7  13
ATOM      8  O   UNL     1      39.872 -24.730 -14.204  0.00  0.00    -0.435 OA
ATOM      9  O   UNL     1      39.146 -27.027 -14.157  0.00  0.00    -0.435 OA
ATOM     10  C   UNL     1      38.530 -24.852 -14.395  0.00  0.00    +0.179 C 
ATOM     11  C   UNL     1      38.115 -26.164 -14.368  0.00  0.00    +0.177 C 
ATOM     12  C   UNL     1      37.643 -23.815 -14.597  0.00  0.00    +0.078 C 
ATOM     13  C   UNL     1      36.295 -24.138 -14.776  0.00  0.00    +0.151 C 
ATOM     14  C   UNL     1      36.791 -26.511 -14.542  0.00  0.00    +0.043 C 
ATOM     15  C   UNL     1      40.255 -26.111 -14.053  0.00  0.00    +0.429 C 
ATOM     16  C   UNL     1      35.872 -25.478 -14.749  0.00  0.00    +0.041 C 
ENDBRANCH   7  13
ENDBRANCH   3   7
BRANCH   4  17
ATOM     17  O   UNL     1      36.661 -21.292 -19.028  0.00  0.00    -0.383 OA
BRANCH  17  21
ATOM     18  C   UNL     1      35.345 -18.695 -21.987  0.00  0.00    +0.057 C 
ATOM     19  C   UNL     1      36.647 -18.593 -21.499  0.00  0.00    +0.018 C 
ATOM     20  C   UNL     1      34.485 -19.670 -21.482  0.00  0.00    +0.018 C 
ATOM     21  C   UNL     1      36.224 -20.430 -20.011  0.00  0.00    +0.160 C 
ATOM     22  C   UNL     1      37.089 -19.466 -20.504  0.00  0.00    +0.040 C 
ATOM     23  C   UNL     1      34.927 -20.543 -20.487  0.00  0.00    +0.040 C 
BRANCH  18  24
ATOM     24  N   UNL     1      34.907 -17.831 -22.973  0.00  0.00    -0.246 N 
ATOM     25  N   UNL     1      33.925 -17.120 -24.844  0.00  0.00    -0.224 NA
ATOM     26  C   UNL     1      35.094 -16.473 -23.012  0.00  0.00    +0.092 C 
ATOM     27  C   UNL     1      34.197 -18.168 -24.098  0.00  0.00    +0.172 C 
ATOM     28  C   UNL     1      34.481 -16.060 -24.172  0.00  0.00    +0.117 C 
ENDBRANCH  18  24
ENDBRANCH  17  21
ENDBRANCH   4  17
TORSDOF 5
ENDMDL
MODEL 7
REMARK VINA RESULT:     -10.5      6.131     12.038
REMARK  Name = 9969613
REMARK  5 active torsions:
REMARK  status: ('A' for Active; 'I' for Inactive)
REMARK    1  A    between atoms: C_3  and  O_7
REMARK    2  A    between atoms: C_4  and  O_17
REMARK    3  A    between atoms: O_7  and  C_13
REMARK    4  A    between atoms: O_17  and  C_21
REMARK    5  A    between atoms: C_18  and  N_24
REMARK                            x       y       z     vdW  Elec       q    Type
REMARK                         _______ _______ _______ _____ _____    ______ ____
ROOT
ATOM      1  N   UNL     1      34.912 -15.867 -22.354  0.00  0.00    -0.283 NA
ATOM      2  N   UNL     1      34.569 -16.503 -24.654  0.00  0.00    -0.151 NA
ATOM      3  C   UNL     1      34.091 -14.827 -22.572  0.00  0.00    +0.296 C 
ATOM      4  C   UNL     1      35.106 -16.657 -23.428  0.00  0.00    +0.260 C 
ATOM      5  C   UNL     1      33.477 -14.549 -23.768  0.00  0.00    +0.094 C 
ATOM      6  C   UNL     1      33.756 -15.434 -24.789  0.00  0.00    +0.119 C 
ENDROOT
BRANCH   3   7
ATOM      7  O   UNL     1      33.862 -13.985 -21.497  0.00  0.00    -0.427 OA
BRANCH   7  13
ATOM      8  O   UNL     1      33.257  -9.783 -23.784  0.00  0.00    -0.435 OA
ATOM      9  O   UNL     1      31.250  -9.298 -22.543  0.00  0.00    -0.435 OA
ATOM     10  C   UNL     1      32.948 -10.768 -22.898  0.00  0.00    +0.179 C 
ATOM     11  C   UNL     1      31.801 -10.491 -22.189  0.00  0.00    +0.177 C 
ATOM     12  C   UNL     1      33.665 -11.928 -22.693  0.00  0.00    +0.078 C 
ATOM     13  C   UNL     1      33.188 -12.826 -21.733  0.00  0.00    +0.151 C 
ATOM     14  C   UNL     1      31.309 -11.360 -21.236  0.00  0.00    +0.043 C 
ATOM     15  C   UNL     1      32.178  -8.856 -23.555  0.00  0.00    +0.429 C 
ATOM     16  C   UNL     1      32.017 -12.543 -21.009  0.00  0.00    +0.041 C 
ENDBRANCH   7  13
ENDBRANCH   3   7
BRANCH   4  17
ATOM     17  O   UNL     1      35.939 -17.737 -23.253  0.00  0.00    -0.383 OA
BRANCH  17  21
ATOM     18  C   UNL     1      34.969 -20.411 -20.230  0.00  0.00    +0.057 C 
ATOM     19  C   UNL     1      36.207 -19.770 -20.223  0.00  0.00    +0.018 C 
ATOM     20  C   UNL     1      34.056 -20.153 -21.253  0.00  0.00    +0.018 C 
ATOM     21  C   UNL     1      35.617 -18.625 -22.249  0.00  0.00    +0.160 C 
ATOM     22  C   UNL     1      36.533 -18.871 -21.239  0.00  0.00    +0.040 C 
ATOM     23  C   UNL     1      34.382 -19.255 -22.269  0.00  0.00    +0.040 C 
BRANCH  18  24
ATOM     24  N   UNL     1      34.645 -21.301 -19.223  0.00  0.00    -0.246 N 
ATOM     25  N   UNL     1      34.906 -22.713 -17.518  0.00  0.00    -0.224 NA
ATOM     26  C   UNL     1      33.387 -21.729 -18.883  0.00  0.00    +0.092 C 
ATOM     27  C   UNL     1      35.521 -21.923 -18.370  0.00  0.00    +0.172 C 
ATOM     28  C   UNL     1      33.575 -22.597 -17.832  0.00  0.00    +0.117 C 
ENDBRANCH  18  24
ENDBRANCH  17  21
ENDBRANCH   4  17
TORSDOF 5
ENDMDL
MODEL 8
REMARK VINA RESULT:     -10.4     10.496     15.505
REMARK  Name = 9969613
REMARK  5 active torsions:
REMARK  status: ('A' for Active; 'I' for Inactive)
REMARK    1  A    between atoms: C_3  and  O_7
REMARK    2  A    between atoms: C_4  and  O_17
REMARK    3  A    between atoms: O_7  and  C_13
REMARK    4  A    between atoms: O_17  and  C_21
REMARK    5  A    between atoms: C_18  and  N_24
REMARK                            x       y       z     vdW  Elec       q    Type
REMARK                         _______ _______ _______ _____ _____    ______ ____
ROOT
ATOM      1  N   UNL     1      34.130 -10.020 -23.326  0.00  0.00    -0.283 NA
ATOM      2  N   UNL     1      35.549  -9.167 -25.078  0.00  0.00    -0.151 NA
ATOM      3  C   UNL     1      33.879 -11.077 -24.114  0.00  0.00    +0.296 C 
ATOM      4  C   UNL     1      34.966  -9.111 -23.865  0.00  0.00    +0.260 C 
ATOM      5  C   UNL     1      34.403 -11.263 -25.369  0.00  0.00    +0.094 C 
ATOM      6  C   UNL     1      35.244 -10.261 -25.807  0.00  0.00    +0.119 C 
ENDROOT
BRANCH   3   7
ATOM      7  O   UNL     1      33.023 -12.039 -23.603  0.00  0.00    -0.427 OA
BRANCH   7  13
ATOM      8  O   UNL     1      33.883 -16.531 -25.133  0.00  0.00    -0.435 OA
ATOM      9  O   UNL     1      34.954 -17.124 -23.059  0.00  0.00    -0.435 OA
ATOM     10  C   UNL     1      33.908 -15.496 -24.250  0.00  0.00    +0.179 C 
ATOM     11  C   UNL     1      34.521 -15.834 -23.065  0.00  0.00    +0.177 C 
ATOM     12  C   UNL     1      33.394 -14.234 -24.466  0.00  0.00    +0.078 C 
ATOM     13  C   UNL     1      33.515 -13.298 -23.435  0.00  0.00    +0.151 C 
ATOM     14  C   UNL     1      34.652 -14.930 -22.031  0.00  0.00    +0.043 C 
ATOM     15  C   UNL     1      34.548 -17.558 -24.372  0.00  0.00    +0.429 C 
ATOM     16  C   UNL     1      34.140 -13.645 -22.225  0.00  0.00    +0.041 C 
ENDBRANCH   7  13
ENDBRANCH   3   7
BRANCH   4  17
ATOM     17  O   UNL     1      35.255  -8.009 -23.094  0.00  0.00    -0.383 OA
BRANCH  17  21
ATOM     18  C   UNL     1      32.725  -4.737 -23.443  0.00  0.00    +0.057 C 
ATOM     19  C   UNL     1      33.711  -4.962 -24.404  0.00  0.00    +0.018 C 
ATOM     20  C   UNL     1      32.590  -5.612 -22.364  0.00  0.00    +0.018 C 
ATOM     21  C   UNL     1      34.415  -6.923 -23.210  0.00  0.00    +0.160 C 
ATOM     22  C   UNL     1      34.561  -6.062 -24.286  0.00  0.00    +0.040 C 
ATOM     23  C   UNL     1      33.440  -6.711 -22.248  0.00  0.00    +0.040 C 
BRANCH  18  24
ATOM     24  N   UNL     1      31.882  -3.647 -23.559  0.00  0.00    -0.246 N 
ATOM     25  N   UNL     1      30.440  -2.050 -22.979  0.00  0.00    -0.224 NA
ATOM     26  C   UNL     1      31.629  -2.927 -24.698  0.00  0.00    +0.092 C 
ATOM     27  C   UNL     1      31.142  -3.077 -22.554  0.00  0.00    +0.172 C 
ATOM     28  C   UNL     1      30.738  -1.951 -24.315  0.00  0.00    +0.117 C 
ENDBRANCH  18  24
ENDBRANCH  17  21
ENDBRANCH   4  17
TORSDOF 5
ENDMDL
MODEL 9
REMARK VINA RESULT:     -10.3      9.638     15.682
REMARK  Name = 9969613
REMARK  5 active torsions:
REMARK  status: ('A' for Active; 'I' for Inactive)
REMARK    1  A    between atoms: C_3  and  O_7
REMARK    2  A    between atoms: C_4  and  O_17
REMARK    3  A    between atoms: O_7  and  C_13
REMARK    4  A    between atoms: O_17  and  C_21
REMARK    5  A    between atoms: C_18  and  N_24
REMARK                            x       y       z     vdW  Elec       q    Type
REMARK                         _______ _______ _______ _____ _____    ______ ____
ROOT
ATOM      1  N   UNL     1      34.090 -10.128 -23.533  0.00  0.00    -0.283 NA
ATOM      2  N   UNL     1      34.394 -11.306 -25.614  0.00  0.00    -0.151 NA
ATOM      3  C   UNL     1      34.969  -9.216 -23.980  0.00  0.00    +0.296 C 
ATOM      4  C   UNL     1      33.851 -11.137 -24.393  0.00  0.00    +0.260 C 
ATOM      5  C   UNL     1      35.597  -9.263 -25.199  0.00  0.00    +0.094 C 
ATOM      6  C   UNL     1      35.267 -10.346 -25.987  0.00  0.00    +0.119 C 
ENDROOT
BRANCH   3   7
ATOM      7  O   UNL     1      35.248  -8.159 -23.129  0.00  0.00    -0.427 OA
BRANCH   7  13
ATOM      8  O   UNL     1      31.490  -6.089 -20.926  0.00  0.00    -0.435 OA
ATOM      9  O   UNL     1      31.429  -4.293 -22.531  0.00  0.00    -0.435 OA
ATOM     10  C   UNL     1      32.457  -6.211 -21.876  0.00  0.00    +0.179 C 
ATOM     11  C   UNL     1      32.424  -5.185 -22.792  0.00  0.00    +0.177 C 
ATOM     12  C   UNL     1      33.389  -7.225 -21.957  0.00  0.00    +0.078 C 
ATOM     13  C   UNL     1      34.309  -7.180 -23.008  0.00  0.00    +0.151 C 
ATOM     14  C   UNL     1      33.319  -5.117 -23.840  0.00  0.00    +0.043 C 
ATOM     15  C   UNL     1      30.843  -4.872 -21.347  0.00  0.00    +0.429 C 
ATOM     16  C   UNL     1      34.273  -6.133 -23.945  0.00  0.00    +0.041 C 
ENDBRANCH   7  13
ENDBRANCH   3   7
BRANCH   4  17
ATOM     17  O   UNL     1      32.956 -12.096 -23.981  0.00  0.00    -0.383 OA
BRANCH  17  21
ATOM     18  C   UNL     1      34.500 -15.813 -22.964  0.00  0.00    +0.057 C 
ATOM     19  C   UNL     1      34.521 -14.772 -22.037  0.00  0.00    +0.018 C 
ATOM     20  C   UNL     1      33.959 -15.606 -24.234  0.00  0.00    +0.018 C 
ATOM     21  C   UNL     1      33.468 -13.331 -23.643  0.00  0.00    +0.160 C 
ATOM     22  C   UNL     1      34.002 -13.523 -22.379  0.00  0.00    +0.040 C 
ATOM     23  C   UNL     1      33.440 -14.356 -24.575  0.00  0.00    +0.040 C 
BRANCH  18  24
ATOM     24  N   UNL     1      35.013 -17.051 -22.626  0.00  0.00    -0.246 N 
ATOM     25  N   UNL     1      35.538 -19.212 -22.789  0.00  0.00    -0.224 NA
ATOM     26  C   UNL     1      35.682 -17.372 -21.472  0.00  0.00    +0.092 C 
ATOM     27  C   UNL     1      34.955 -18.194 -23.383  0.00  0.00    +0.172 C 
ATOM     28  C   UNL     1      35.993 -18.706 -21.596  0.00  0.00    +0.117 C 
ENDBRANCH  18  24
ENDBRANCH  17  21
ENDBRANCH   4  17
TORSDOF 5
ENDMDL
