MODEL 1
REMARK VINA RESULT:     -11.1      0.000      0.000
REMARK  Name = 176407
REMARK  5 active torsions:
REMARK  status: ('A' for Active; 'I' for Inactive)
REMARK    1  A    between atoms: N_1  and  C_20
REMARK    2  A    between atoms: C_11  and  C_16
REMARK    3  A    between atoms: C_20  and  C_21
REMARK    4  A    between atoms: C_21  and  C_22
REMARK    5  A    between atoms: C_27  and  O_28
REMARK                            x       y       z     vdW  Elec       q    Type
REMARK                         _______ _______ _______ _____ _____    ______ ____
ROOT
ATOM      1  N   UNL     1      36.021 -21.203 -19.175  0.00  0.00    -0.258 N 
ATOM      2  N   UNL     1      33.960 -23.101 -16.328  0.00  0.00    -0.059 N 
ATOM      3  N   UNL     1      33.976 -21.951 -18.374  0.00  0.00    -0.245 NA
ATOM      4  N   UNL     1      35.970 -22.364 -17.120  0.00  0.00    -0.294 NA
ATOM      5  N   UNL     1      33.141 -23.710 -15.458  0.00  0.00    -0.090 NA
ATOM      6  N   UNL     1      32.004 -22.866 -17.257  0.00  0.00    -0.267 NA
ATOM      7  N   UNL     1      35.898 -23.531 -15.056  0.00  0.00    -0.318 N 
ATOM      8  C   UNL     1      35.278 -21.850 -18.216  0.00  0.00    +0.213 C 
ATOM      9  C   UNL     1      33.286 -22.597 -17.403  0.00  0.00    +0.251 C 
ATOM     10  C   UNL     1      35.329 -22.987 -16.175  0.00  0.00    +0.282 C 
ATOM     11  C   UNL     1      31.965 -23.539 -16.067  0.00  0.00    +0.153 C 
ATOM     12  H   UNL     1      36.995 -21.129 -19.054  0.00  0.00    +0.160 HD
ATOM     13  H   UNL     1      35.334 -23.988 -14.389  0.00  0.00    +0.146 HD
ATOM     14  H   UNL     1      36.870 -23.468 -14.917  0.00  0.00    +0.146 HD
ENDROOT
BRANCH  11  16
ATOM     15  O   UNL     1      29.469 -23.641 -15.882  0.00  0.00    -0.439 OA
ATOM     16  C   UNL     1      30.706 -24.046 -15.493  0.00  0.00    +0.221 C 
ATOM     17  C   UNL     1      30.613 -24.988 -14.494  0.00  0.00    +0.052 C 
ATOM     18  C   UNL     1      29.231 -25.173 -14.255  0.00  0.00    +0.045 C 
ATOM     19  C   UNL     1      28.577 -24.331 -15.123  0.00  0.00    +0.181 C 
ENDBRANCH  11  16
BRANCH   1  20
ATOM     20  C   UNL     1      35.424 -20.636 -20.342  0.00  0.00    +0.103 C 
BRANCH  20  21
ATOM     21  C   UNL     1      36.141 -19.350 -20.753  0.00  0.00    +0.048 C 
BRANCH  21  22
ATOM     22  C   UNL     1      35.504 -18.671 -21.940  0.00  0.00    -0.020 C 
ATOM     23  C   UNL     1      35.585 -17.292 -22.058  0.00  0.00    -0.001 C 
ATOM     24  C   UNL     1      34.850 -19.437 -22.891  0.00  0.00    -0.001 C 
ATOM     25  C   UNL     1      34.996 -16.664 -23.155  0.00  0.00    +0.036 C 
ATOM     26  C   UNL     1      34.261 -18.809 -23.988  0.00  0.00    +0.036 C 
ATOM     27  C   UNL     1      34.334 -17.422 -24.121  0.00  0.00    +0.134 C 
BRANCH  27  28
ATOM     28  O   UNL     1      33.760 -16.808 -25.191  0.00  0.00    -0.506 OA
ATOM     29  H   UNL     1      34.153 -16.880 -26.039  0.00  0.00    +0.292 HD
ENDBRANCH  27  28
ENDBRANCH  21  22
ENDBRANCH  20  21
ENDBRANCH   1  20
TORSDOF 5
ENDMDL
MODEL 2
REMARK VINA RESULT:     -10.7      5.244      9.974
REMARK  Name = 176407
REMARK  5 active torsions:
REMARK  status: ('A' for Active; 'I' for Inactive)
REMARK    1  A    between atoms: N_1  and  C_20
REMARK    2  A    between atoms: C_11  and  C_16
REMARK    3  A    between atoms: C_20  and  C_21
REMARK    4  A    between atoms: C_21  and  C_22
REMARK    5  A    between atoms: C_27  and  O_28
REMARK                            x       y       z     vdW  Elec       q    Type
REMARK                         _______ _______ _______ _____ _____    ______ ____
ROOT
ATOM      1  N   UNL     1      35.984 -17.911 -22.261  0.00  0.00    -0.258 N 
ATOM      2  N   UNL     1      33.814 -14.673 -23.136  0.00  0.00    -0.059 N 
ATOM      3  N   UNL     1      34.912 -15.987 -21.531  0.00  0.00    -0.245 NA
ATOM      4  N   UNL     1      34.870 -16.566 -23.851  0.00  0.00    -0.294 NA
ATOM      5  N   UNL     1      33.092 -13.552 -23.277  0.00  0.00    -0.090 NA
ATOM      6  N   UNL     1      33.695 -13.912 -21.099  0.00  0.00    -0.267 NA
ATOM      7  N   UNL     1      33.744 -15.203 -25.432  0.00  0.00    -0.318 N 
ATOM      8  C   UNL     1      35.238 -16.786 -22.524  0.00  0.00    +0.213 C 
ATOM      9  C   UNL     1      34.177 -14.891 -21.837  0.00  0.00    +0.251 C 
ATOM     10  C   UNL     1      34.163 -15.522 -24.169  0.00  0.00    +0.282 C 
ATOM     11  C   UNL     1      33.047 -13.127 -22.012  0.00  0.00    +0.153 C 
ATOM     12  H   UNL     1      36.226 -18.507 -23.007  0.00  0.00    +0.160 HD
ATOM     13  H   UNL     1      33.211 -14.388 -25.583  0.00  0.00    +0.146 HD
ATOM     14  H   UNL     1      33.976 -15.786 -26.190  0.00  0.00    +0.146 HD
ENDROOT
BRANCH  11  16
ATOM     15  O   UNL     1      32.239 -10.790 -22.416  0.00  0.00    -0.439 OA
ATOM     16  C   UNL     1      32.344 -11.891 -21.626  0.00  0.00    +0.221 C 
ATOM     17  C   UNL     1      31.708 -11.684 -20.424  0.00  0.00    +0.052 C 
ATOM     18  C   UNL     1      31.178 -10.373 -20.479  0.00  0.00    +0.045 C 
ATOM     19  C   UNL     1      31.528  -9.872 -21.711  0.00  0.00    +0.181 C 
ENDBRANCH  11  16
BRANCH   1  20
ATOM     20  C   UNL     1      36.421 -18.241 -20.942  0.00  0.00    +0.103 C 
BRANCH  20  21
ATOM     21  C   UNL     1      36.643 -19.746 -20.801  0.00  0.00    +0.048 C 
BRANCH  21  22
ATOM     22  C   UNL     1      35.504 -20.450 -20.105  0.00  0.00    -0.020 C 
ATOM     23  C   UNL     1      35.783 -21.417 -19.152  0.00  0.00    -0.001 C 
ATOM     24  C   UNL     1      34.199 -20.118 -20.432  0.00  0.00    -0.001 C 
ATOM     25  C   UNL     1      34.731 -22.068 -18.510  0.00  0.00    +0.036 C 
ATOM     26  C   UNL     1      33.146 -20.769 -19.790  0.00  0.00    +0.036 C 
ATOM     27  C   UNL     1      33.412 -21.744 -18.828  0.00  0.00    +0.134 C 
BRANCH  27  28
ATOM     28  O   UNL     1      32.385 -22.380 -18.200  0.00  0.00    -0.506 OA
ATOM     29  H   UNL     1      32.312 -23.312 -18.248  0.00  0.00    +0.292 HD
ENDBRANCH  27  28
ENDBRANCH  21  22
ENDBRANCH  20  21
ENDBRANCH   1  20
TORSDOF 5
ENDMDL
MODEL 3
REMARK VINA RESULT:     -10.7      2.854      4.055
REMARK  Name = 176407
REMARK  5 active torsions:
REMARK  status: ('A' for Active; 'I' for Inactive)
REMARK    1  A    between atoms: N_1  and  C_20
REMARK    2  A    between atoms: C_11  and  C_16
REMARK    3  A    between atoms: C_20  and  C_21
REMARK    4  A    between atoms: C_21  and  C_22
REMARK    5  A    between atoms: C_27  and  O_28
REMARK                            x       y       z     vdW  Elec       q    Type
REMARK                         _______ _______ _______ _____ _____    ______ ____
ROOT
ATOM      1  N   UNL     1      34.517 -20.131 -20.651  0.00  0.00    -0.258 N 
ATOM      2  N   UNL     1      34.446 -22.476 -17.418  0.00  0.00    -0.059 N 
ATOM      3  N   UNL     1      35.676 -21.166 -18.927  0.00  0.00    -0.245 NA
ATOM      4  N   UNL     1      33.309 -21.457 -19.115  0.00  0.00    -0.294 NA
ATOM      5  N   UNL     1      34.576 -23.241 -16.324  0.00  0.00    -0.090 NA
ATOM      6  N   UNL     1      36.584 -22.384 -17.013  0.00  0.00    -0.267 NA
ATOM      7  N   UNL     1      32.114 -22.793 -17.562  0.00  0.00    -0.318 N 
ATOM      8  C   UNL     1      34.532 -20.933 -19.534  0.00  0.00    +0.213 C 
ATOM      9  C   UNL     1      35.642 -21.962 -17.832  0.00  0.00    +0.251 C 
ATOM     10  C   UNL     1      33.252 -22.224 -18.066  0.00  0.00    +0.282 C 
ATOM     11  C   UNL     1      35.892 -23.154 -16.118  0.00  0.00    +0.153 C 
ATOM     12  H   UNL     1      33.660 -19.959 -21.103  0.00  0.00    +0.160 HD
ATOM     13  H   UNL     1      32.162 -23.363 -16.759  0.00  0.00    +0.146 HD
ATOM     14  H   UNL     1      31.247 -22.633 -17.999  0.00  0.00    +0.146 HD
ENDROOT
BRANCH  11  16
ATOM     15  O   UNL     1      36.806 -25.177 -14.956  0.00  0.00    -0.439 OA
ATOM     16  C   UNL     1      36.557 -23.842 -14.997  0.00  0.00    +0.221 C 
ATOM     17  C   UNL     1      37.009 -23.232 -13.850  0.00  0.00    +0.052 C 
ATOM     18  C   UNL     1      37.572 -24.258 -13.054  0.00  0.00    +0.045 C 
ATOM     19  C   UNL     1      37.423 -25.422 -13.771  0.00  0.00    +0.181 C 
ENDBRANCH  11  16
BRANCH   1  20
ATOM     20  C   UNL     1      35.706 -19.538 -21.175  0.00  0.00    +0.103 C 
BRANCH  20  21
ATOM     21  C   UNL     1      35.683 -18.020 -20.999  0.00  0.00    +0.048 C 
BRANCH  21  22
ATOM     22  C   UNL     1      35.170 -17.291 -22.216  0.00  0.00    -0.020 C 
ATOM     23  C   UNL     1      34.998 -15.916 -22.163  0.00  0.00    -0.001 C 
ATOM     24  C   UNL     1      34.880 -18.008 -23.366  0.00  0.00    -0.001 C 
ATOM     25  C   UNL     1      34.523 -15.243 -23.287  0.00  0.00    +0.036 C 
ATOM     26  C   UNL     1      34.405 -17.335 -24.490  0.00  0.00    +0.036 C 
ATOM     27  C   UNL     1      34.227 -15.951 -24.452  0.00  0.00    +0.134 C 
BRANCH  27  28
ATOM     28  O   UNL     1      33.764 -15.292 -25.549  0.00  0.00    -0.506 OA
ATOM     29  H   UNL     1      33.133 -15.699 -26.108  0.00  0.00    +0.292 HD
ENDBRANCH  27  28
ENDBRANCH  21  22
ENDBRANCH  20  21
ENDBRANCH   1  20
TORSDOF 5
ENDMDL
MODEL 4
REMARK VINA RESULT:     -10.7      3.070      4.690
REMARK  Name = 176407
REMARK  5 active torsions:
REMARK  status: ('A' for Active; 'I' for Inactive)
REMARK    1  A    between atoms: N_1  and  C_20
REMARK    2  A    between atoms: C_11  and  C_16
REMARK    3  A    between atoms: C_20  and  C_21
REMARK    4  A    between atoms: C_21  and  C_22
REMARK    5  A    between atoms: C_27  and  O_28
REMARK                            x       y       z     vdW  Elec       q    Type
REMARK                         _______ _______ _______ _____ _____    ______ ____
ROOT
ATOM      1  N   UNL     1      32.640 -22.278 -18.565  0.00  0.00    -0.258 N 
ATOM      2  N   UNL     1      33.511 -23.762 -14.959  0.00  0.00    -0.059 N 
ATOM      3  N   UNL     1      34.243 -23.035 -17.067  0.00  0.00    -0.245 NA
ATOM      4  N   UNL     1      31.937 -23.017 -16.434  0.00  0.00    -0.294 NA
ATOM      5  N   UNL     1      33.953 -24.259 -13.795  0.00  0.00    -0.090 NA
ATOM      6  N   UNL     1      35.663 -23.886 -15.270  0.00  0.00    -0.267 NA
ATOM      7  N   UNL     1      31.251 -23.763 -14.290  0.00  0.00    -0.318 N 
ATOM      8  C   UNL     1      32.978 -22.789 -17.333  0.00  0.00    +0.213 C 
ATOM      9  C   UNL     1      34.529 -23.537 -15.842  0.00  0.00    +0.251 C 
ATOM     10  C   UNL     1      32.187 -23.499 -15.252  0.00  0.00    +0.282 C 
ATOM     11  C   UNL     1      35.266 -24.316 -14.034  0.00  0.00    +0.153 C 
ATOM     12  H   UNL     1      31.692 -22.096 -18.760  0.00  0.00    +0.160 HD
ATOM     13  H   UNL     1      31.530 -24.129 -13.418  0.00  0.00    +0.146 HD
ATOM     14  H   UNL     1      30.299 -23.587 -14.467  0.00  0.00    +0.146 HD
ENDROOT
BRANCH  11  16
ATOM     15  O   UNL     1      36.796 -26.042 -13.056  0.00  0.00    -0.439 OA
ATOM     16  C   UNL     1      36.224 -24.810 -13.029  0.00  0.00    +0.221 C 
ATOM     17  C   UNL     1      36.663 -24.097 -11.937  0.00  0.00    +0.052 C 
ATOM     18  C   UNL     1      37.563 -24.946 -11.249  0.00  0.00    +0.045 C 
ATOM     19  C   UNL     1      37.609 -26.117 -11.970  0.00  0.00    +0.181 C 
ENDBRANCH  11  16
BRANCH   1  20
ATOM     20  C   UNL     1      33.619 -22.003 -19.567  0.00  0.00    +0.103 C 
BRANCH  20  21
ATOM     21  C   UNL     1      33.426 -20.604 -20.150  0.00  0.00    +0.048 C 
BRANCH  21  22
ATOM     22  C   UNL     1      34.710 -19.986 -20.646  0.00  0.00    -0.020 C 
ATOM     23  C   UNL     1      34.701 -19.254 -21.823  0.00  0.00    -0.001 C 
ATOM     24  C   UNL     1      35.875 -20.163 -19.917  0.00  0.00    -0.001 C 
ATOM     25  C   UNL     1      35.888 -18.684 -22.282  0.00  0.00    +0.036 C 
ATOM     26  C   UNL     1      37.062 -19.593 -20.376  0.00  0.00    +0.036 C 
ATOM     27  C   UNL     1      37.069 -18.853 -21.559  0.00  0.00    +0.134 C 
BRANCH  27  28
ATOM     28  O   UNL     1      38.227 -18.296 -22.007  0.00  0.00    -0.506 OA
ATOM     29  H   UNL     1      38.630 -18.619 -22.788  0.00  0.00    +0.292 HD
ENDBRANCH  27  28
ENDBRANCH  21  22
ENDBRANCH  20  21
ENDBRANCH   1  20
TORSDOF 5
ENDMDL
MODEL 5
REMARK VINA RESULT:     -10.5      2.304      3.703
REMARK  Name = 176407
REMARK  5 active torsions:
REMARK  status: ('A' for Active; 'I' for Inactive)
REMARK    1  A    between atoms: N_1  and  C_20
REMARK    2  A    between atoms: C_11  and  C_16
REMARK    3  A    between atoms: C_20  and  C_21
REMARK    4  A    between atoms: C_21  and  C_22
REMARK    5  A    between atoms: C_27  and  O_28
REMARK                            x       y       z     vdW  Elec       q    Type
REMARK                         _______ _______ _______ _____ _____    ______ ____
ROOT
ATOM      1  N   UNL     1      33.954 -21.360 -19.788  0.00  0.00    -0.258 N 
ATOM      2  N   UNL     1      33.591 -23.143 -16.231  0.00  0.00    -0.059 N 
ATOM      3  N   UNL     1      34.975 -22.302 -17.929  0.00  0.00    -0.245 NA
ATOM      4  N   UNL     1      32.589 -22.216 -18.061  0.00  0.00    -0.294 NA
ATOM      5  N   UNL     1      33.625 -23.744 -15.033  0.00  0.00    -0.090 NA
ATOM      6  N   UNL     1      35.726 -23.350 -15.853  0.00  0.00    -0.267 NA
ATOM      7  N   UNL     1      31.236 -23.082 -16.316  0.00  0.00    -0.318 N 
ATOM      8  C   UNL     1      33.869 -21.975 -18.561  0.00  0.00    +0.213 C 
ATOM      9  C   UNL     1      34.843 -22.905 -16.724  0.00  0.00    +0.251 C 
ATOM     10  C   UNL     1      32.437 -22.795 -16.906  0.00  0.00    +0.282 C 
ATOM     11  C   UNL     1      34.943 -23.849 -14.848  0.00  0.00    +0.153 C 
ATOM     12  H   UNL     1      33.123 -21.117 -20.257  0.00  0.00    +0.160 HD
ATOM     13  H   UNL     1      31.213 -23.524 -15.435  0.00  0.00    +0.146 HD
ATOM     14  H   UNL     1      30.395 -22.847 -16.770  0.00  0.00    +0.146 HD
ENDROOT
BRANCH  11  16
ATOM     15  O   UNL     1      35.082 -24.216 -12.373  0.00  0.00    -0.439 OA
ATOM     16  C   UNL     1      35.518 -24.461 -13.637  0.00  0.00    +0.221 C 
ATOM     17  C   UNL     1      36.566 -25.353 -13.621  0.00  0.00    +0.052 C 
ATOM     18  C   UNL     1      36.786 -25.677 -12.261  0.00  0.00    +0.045 C 
ATOM     19  C   UNL     1      35.859 -24.960 -11.543  0.00  0.00    +0.181 C 
ENDBRANCH  11  16
BRANCH   1  20
ATOM     20  C   UNL     1      35.208 -21.061 -20.401  0.00  0.00    +0.103 C 
BRANCH  20  21
ATOM     21  C   UNL     1      35.503 -19.563 -20.339  0.00  0.00    +0.048 C 
BRANCH  21  22
ATOM     22  C   UNL     1      35.160 -18.838 -21.617  0.00  0.00    -0.020 C 
ATOM     23  C   UNL     1      34.558 -19.535 -22.653  0.00  0.00    -0.001 C 
ATOM     24  C   UNL     1      35.454 -17.489 -21.733  0.00  0.00    -0.001 C 
ATOM     25  C   UNL     1      34.241 -18.866 -23.834  0.00  0.00    +0.036 C 
ATOM     26  C   UNL     1      35.138 -16.819 -22.914  0.00  0.00    +0.036 C 
ATOM     27  C   UNL     1      34.531 -17.507 -23.965  0.00  0.00    +0.134 C 
BRANCH  27  28
ATOM     28  O   UNL     1      34.221 -16.854 -25.119  0.00  0.00    -0.506 OA
ATOM     29  H   UNL     1      33.371 -16.954 -25.500  0.00  0.00    +0.292 HD
ENDBRANCH  27  28
ENDBRANCH  21  22
ENDBRANCH  20  21
ENDBRANCH   1  20
TORSDOF 5
ENDMDL
MODEL 6
REMARK VINA RESULT:     -10.5      1.492      2.437
REMARK  Name = 176407
REMARK  5 active torsions:
REMARK  status: ('A' for Active; 'I' for Inactive)
REMARK    1  A    between atoms: N_1  and  C_20
REMARK    2  A    between atoms: C_11  and  C_16
REMARK    3  A    between atoms: C_20  and  C_21
REMARK    4  A    between atoms: C_21  and  C_22
REMARK    5  A    between atoms: C_27  and  O_28
REMARK                            x       y       z     vdW  Elec       q    Type
REMARK                         _______ _______ _______ _____ _____    ______ ____
ROOT
ATOM      1  N   UNL     1      35.558 -19.900 -21.245  0.00  0.00    -0.258 N 
ATOM      2  N   UNL     1      34.550 -21.981 -17.987  0.00  0.00    -0.059 N 
ATOM      3  N   UNL     1      33.893 -20.836 -19.928  0.00  0.00    -0.245 NA
ATOM      4  N   UNL     1      36.186 -21.059 -19.285  0.00  0.00    -0.294 NA
ATOM      5  N   UNL     1      34.063 -22.663 -16.940  0.00  0.00    -0.090 NA
ATOM      6  N   UNL     1      32.400 -21.931 -18.332  0.00  0.00    -0.267 NA
ATOM      7  N   UNL     1      36.795 -22.226 -17.312  0.00  0.00    -0.318 N 
ATOM      8  C   UNL     1      35.173 -20.613 -20.134  0.00  0.00    +0.213 C 
ATOM      9  C   UNL     1      33.561 -21.543 -18.821  0.00  0.00    +0.251 C 
ATOM     10  C   UNL     1      35.891 -21.739 -18.216  0.00  0.00    +0.282 C 
ATOM     11  C   UNL     1      32.754 -22.604 -17.195  0.00  0.00    +0.153 C 
ATOM     12  H   UNL     1      36.517 -19.735 -21.395  0.00  0.00    +0.160 HD
ATOM     13  H   UNL     1      36.483 -22.733 -16.527  0.00  0.00    +0.146 HD
ATOM     14  H   UNL     1      37.758 -22.071 -17.446  0.00  0.00    +0.146 HD
ENDROOT
BRANCH  11  16
ATOM     15  O   UNL     1      30.413 -23.186 -16.518  0.00  0.00    -0.439 OA
ATOM     16  C   UNL     1      31.755 -23.226 -16.308  0.00  0.00    +0.221 C 
ATOM     17  C   UNL     1      32.043 -23.922 -15.157  0.00  0.00    +0.052 C 
ATOM     18  C   UNL     1      30.798 -24.338 -14.627  0.00  0.00    +0.045 C 
ATOM     19  C   UNL     1      29.838 -23.865 -15.491  0.00  0.00    +0.181 C 
ENDBRANCH  11  16
BRANCH   1  20
ATOM     20  C   UNL     1      34.612 -19.393 -22.186  0.00  0.00    +0.103 C 
BRANCH  20  21
ATOM     21  C   UNL     1      35.309 -18.581 -23.277  0.00  0.00    +0.048 C 
BRANCH  21  22
ATOM     22  C   UNL     1      34.854 -17.143 -23.327  0.00  0.00    -0.020 C 
ATOM     23  C   UNL     1      34.247 -16.661 -24.476  0.00  0.00    -0.001 C 
ATOM     24  C   UNL     1      35.052 -16.330 -22.222  0.00  0.00    -0.001 C 
ATOM     25  C   UNL     1      33.828 -15.332 -24.521  0.00  0.00    +0.036 C 
ATOM     26  C   UNL     1      34.633 -15.001 -22.267  0.00  0.00    +0.036 C 
ATOM     27  C   UNL     1      34.021 -14.501 -23.417  0.00  0.00    +0.134 C 
BRANCH  27  28
ATOM     28  O   UNL     1      33.610 -13.204 -23.462  0.00  0.00    -0.506 OA
ATOM     29  H   UNL     1      32.898 -12.919 -22.926  0.00  0.00    +0.292 HD
ENDBRANCH  27  28
ENDBRANCH  21  22
ENDBRANCH  20  21
ENDBRANCH   1  20
TORSDOF 5
ENDMDL
MODEL 7
REMARK VINA RESULT:     -10.4      7.735     12.678
REMARK  Name = 176407
REMARK  5 active torsions:
REMARK  status: ('A' for Active; 'I' for Inactive)
REMARK    1  A    between atoms: N_1  and  C_20
REMARK    2  A    between atoms: C_11  and  C_16
REMARK    3  A    between atoms: C_20  and  C_21
REMARK    4  A    between atoms: C_21  and  C_22
REMARK    5  A    between atoms: C_27  and  O_28
REMARK                            x       y       z     vdW  Elec       q    Type
REMARK                         _______ _______ _______ _____ _____    ______ ____
ROOT
ATOM      1  N   UNL     1      33.663 -14.860 -23.100  0.00  0.00    -0.258 N 
ATOM      2  N   UNL     1      32.643 -11.029 -22.612  0.00  0.00    -0.059 N 
ATOM      3  N   UNL     1      34.051 -12.626 -23.596  0.00  0.00    -0.245 NA
ATOM      4  N   UNL     1      32.264 -13.226 -22.126  0.00  0.00    -0.294 NA
ATOM      5  N   UNL     1      32.418  -9.708 -22.545  0.00  0.00    -0.090 NA
ATOM      6  N   UNL     1      34.187 -10.206 -23.908  0.00  0.00    -0.267 NA
ATOM      7  N   UNL     1      30.869 -11.570 -21.157  0.00  0.00    -0.318 N 
ATOM      8  C   UNL     1      33.342 -13.531 -22.957  0.00  0.00    +0.213 C 
ATOM      9  C   UNL     1      33.698 -11.330 -23.425  0.00  0.00    +0.251 C 
ATOM     10  C   UNL     1      31.906 -11.989 -21.946  0.00  0.00    +0.282 C 
ATOM     11  C   UNL     1      33.382  -9.253 -23.348  0.00  0.00    +0.153 C 
ATOM     12  H   UNL     1      33.130 -15.533 -22.620  0.00  0.00    +0.160 HD
ATOM     13  H   UNL     1      30.667 -10.609 -21.078  0.00  0.00    +0.146 HD
ATOM     14  H   UNL     1      30.324 -12.229 -20.669  0.00  0.00    +0.146 HD
ENDROOT
BRANCH  11  16
ATOM     15  O   UNL     1      32.550  -6.945 -23.857  0.00  0.00    -0.439 OA
ATOM     16  C   UNL     1      33.565  -7.815 -23.616  0.00  0.00    +0.221 C 
ATOM     17  C   UNL     1      34.778  -7.166 -23.658  0.00  0.00    +0.052 C 
ATOM     18  C   UNL     1      34.488  -5.810 -23.944  0.00  0.00    +0.045 C 
ATOM     19  C   UNL     1      33.120  -5.728 -24.056  0.00  0.00    +0.181 C 
ENDBRANCH  11  16
BRANCH   1  20
ATOM     20  C   UNL     1      34.746 -15.293 -23.925  0.00  0.00    +0.103 C 
BRANCH  20  21
ATOM     21  C   UNL     1      34.606 -16.774 -24.275  0.00  0.00    +0.048 C 
BRANCH  21  22
ATOM     22  C   UNL     1      34.882 -17.688 -23.106  0.00  0.00    -0.020 C 
ATOM     23  C   UNL     1      35.648 -17.225 -22.048  0.00  0.00    -0.001 C 
ATOM     24  C   UNL     1      34.365 -18.973 -23.113  0.00  0.00    -0.001 C 
ATOM     25  C   UNL     1      35.903 -18.070 -20.968  0.00  0.00    +0.036 C 
ATOM     26  C   UNL     1      34.620 -19.818 -22.033  0.00  0.00    +0.036 C 
ATOM     27  C   UNL     1      35.389 -19.367 -20.960  0.00  0.00    +0.134 C 
BRANCH  27  28
ATOM     28  O   UNL     1      35.638 -20.190 -19.905  0.00  0.00    -0.506 OA
ATOM     29  H   UNL     1      35.088 -20.161 -19.148  0.00  0.00    +0.292 HD
ENDBRANCH  27  28
ENDBRANCH  21  22
ENDBRANCH  20  21
ENDBRANCH   1  20
TORSDOF 5
ENDMDL
MODEL 8
REMARK VINA RESULT:     -10.4      3.400      9.398
REMARK  Name = 176407
REMARK  5 active torsions:
REMARK  status: ('A' for Active; 'I' for Inactive)
REMARK    1  A    between atoms: N_1  and  C_20
REMARK    2  A    between atoms: C_11  and  C_16
REMARK    3  A    between atoms: C_20  and  C_21
REMARK    4  A    between atoms: C_21  and  C_22
REMARK    5  A    between atoms: C_27  and  O_28
REMARK                            x       y       z     vdW  Elec       q    Type
REMARK                         _______ _______ _______ _____ _____    ______ ____
ROOT
ATOM      1  N   UNL     1      36.379 -23.313 -15.613  0.00  0.00    -0.258 N 
ATOM      2  N   UNL     1      34.505 -21.611 -18.703  0.00  0.00    -0.059 N 
ATOM      3  N   UNL     1      36.482 -21.944 -17.484  0.00  0.00    -0.245 NA
ATOM      4  N   UNL     1      34.407 -22.957 -16.863  0.00  0.00    -0.294 NA
ATOM      5  N   UNL     1      34.014 -20.977 -19.778  0.00  0.00    -0.090 NA
ATOM      6  N   UNL     1      36.248 -20.570 -19.491  0.00  0.00    -0.267 NA
ATOM      7  N   UNL     1      32.437 -22.587 -18.131  0.00  0.00    -0.318 N 
ATOM      8  C   UNL     1      35.768 -22.710 -16.687  0.00  0.00    +0.213 C 
ATOM      9  C   UNL     1      35.839 -21.372 -18.529  0.00  0.00    +0.251 C 
ATOM     10  C   UNL     1      33.767 -22.418 -17.859  0.00  0.00    +0.282 C 
ATOM     11  C   UNL     1      35.111 -20.358 -20.221  0.00  0.00    +0.153 C 
ATOM     12  H   UNL     1      35.841 -23.885 -15.019  0.00  0.00    +0.160 HD
ATOM     13  H   UNL     1      32.033 -22.140 -18.910  0.00  0.00    +0.146 HD
ATOM     14  H   UNL     1      31.883 -23.156 -17.549  0.00  0.00    +0.146 HD
ENDROOT
BRANCH  11  16
ATOM     15  O   UNL     1      34.217 -19.637 -22.448  0.00  0.00    -0.439 OA
ATOM     16  C   UNL     1      35.097 -19.503 -21.422  0.00  0.00    +0.221 C 
ATOM     17  C   UNL     1      35.968 -18.465 -21.664  0.00  0.00    +0.052 C 
ATOM     18  C   UNL     1      35.597 -17.927 -22.920  0.00  0.00    +0.045 C 
ATOM     19  C   UNL     1      34.528 -18.674 -23.355  0.00  0.00    +0.181 C 
ENDBRANCH  11  16
BRANCH   1  20
ATOM     20  C   UNL     1      37.768 -23.135 -15.332  0.00  0.00    +0.103 C 
BRANCH  20  21
ATOM     21  C   UNL     1      38.300 -24.275 -14.464  0.00  0.00    +0.048 C 
BRANCH  21  22
ATOM     22  C   UNL     1      37.684 -24.308 -13.087  0.00  0.00    -0.020 C 
ATOM     23  C   UNL     1      37.733 -23.173 -12.293  0.00  0.00    -0.001 C 
ATOM     24  C   UNL     1      37.080 -25.473 -12.641  0.00  0.00    -0.001 C 
ATOM     25  C   UNL     1      37.164 -23.205 -11.020  0.00  0.00    +0.036 C 
ATOM     26  C   UNL     1      36.511 -25.504 -11.368  0.00  0.00    +0.036 C 
ATOM     27  C   UNL     1      36.553 -24.370 -10.557  0.00  0.00    +0.134 C 
BRANCH  27  28
ATOM     28  O   UNL     1      35.998 -24.399  -9.315  0.00  0.00    -0.506 OA
ATOM     29  H   UNL     1      35.078 -24.544  -9.216  0.00  0.00    +0.292 HD
ENDBRANCH  27  28
ENDBRANCH  21  22
ENDBRANCH  20  21
ENDBRANCH   1  20
TORSDOF 5
ENDMDL
MODEL 9
REMARK VINA RESULT:     -10.0      7.237     12.202
REMARK  Name = 176407
REMARK  5 active torsions:
REMARK  status: ('A' for Active; 'I' for Inactive)
REMARK    1  A    between atoms: N_1  and  C_20
REMARK    2  A    between atoms: C_11  and  C_16
REMARK    3  A    between atoms: C_20  and  C_21
REMARK    4  A    between atoms: C_21  and  C_22
REMARK    5  A    between atoms: C_27  and  O_28
REMARK                            x       y       z     vdW  Elec       q    Type
REMARK                         _______ _______ _______ _____ _____    ______ ____
ROOT
ATOM      1  N   UNL     1      34.146 -16.069 -24.390  0.00  0.00    -0.258 N 
ATOM      2  N   UNL     1      33.511 -12.148 -24.809  0.00  0.00    -0.059 N 
ATOM      3  N   UNL     1      34.161 -13.947 -23.451  0.00  0.00    -0.245 NA
ATOM      4  N   UNL     1      33.497 -14.236 -25.730  0.00  0.00    -0.294 NA
ATOM      5  N   UNL     1      33.342 -10.817 -24.801  0.00  0.00    -0.090 NA
ATOM      6  N   UNL     1      34.067 -11.600 -22.776  0.00  0.00    -0.267 NA
ATOM      7  N   UNL     1      32.847 -12.382 -27.059  0.00  0.00    -0.318 N 
ATOM      8  C   UNL     1      33.939 -14.714 -24.496  0.00  0.00    +0.213 C 
ATOM      9  C   UNL     1      33.944 -12.619 -23.602  0.00  0.00    +0.251 C 
ATOM     10  C   UNL     1      33.280 -12.964 -25.899  0.00  0.00    +0.282 C 
ATOM     11  C   UNL     1      33.692 -10.533 -23.544  0.00  0.00    +0.153 C 
ATOM     12  H   UNL     1      33.978 -16.640 -25.175  0.00  0.00    +0.160 HD
ATOM     13  H   UNL     1      32.710 -11.407 -27.099  0.00  0.00    +0.146 HD
ATOM     14  H   UNL     1      32.674 -12.936 -27.854  0.00  0.00    +0.146 HD
ENDROOT
BRANCH  11  16
ATOM     15  O   UNL     1      32.840  -8.716 -22.043  0.00  0.00    -0.439 OA
ATOM     16  C   UNL     1      33.677  -9.156 -23.019  0.00  0.00    +0.221 C 
ATOM     17  C   UNL     1      34.499  -8.137 -23.445  0.00  0.00    +0.052 C 
ATOM     18  C   UNL     1      34.144  -7.000 -22.680  0.00  0.00    +0.045 C 
ATOM     19  C   UNL     1      33.131  -7.404 -21.843  0.00  0.00    +0.181 C 
ENDBRANCH  11  16
BRANCH   1  20
ATOM     20  C   UNL     1      34.598 -16.674 -23.178  0.00  0.00    +0.103 C 
BRANCH  20  21
ATOM     21  C   UNL     1      34.803 -18.178 -23.362  0.00  0.00    +0.048 C 
BRANCH  21  22
ATOM     22  C   UNL     1      35.337 -18.858 -22.125  0.00  0.00    -0.020 C 
ATOM     23  C   UNL     1      36.632 -18.593 -21.709  0.00  0.00    -0.001 C 
ATOM     24  C   UNL     1      34.521 -19.736 -21.428  0.00  0.00    -0.001 C 
ATOM     25  C   UNL     1      37.124 -19.223 -20.566  0.00  0.00    +0.036 C 
ATOM     26  C   UNL     1      35.014 -20.365 -20.286  0.00  0.00    +0.036 C 
ATOM     27  C   UNL     1      36.316 -20.109 -19.854  0.00  0.00    +0.134 C 
BRANCH  27  28
ATOM     28  O   UNL     1      36.798 -20.722 -18.739  0.00  0.00    -0.506 OA
ATOM     29  H   UNL     1      37.722 -20.804 -18.611  0.00  0.00    +0.292 HD
ENDBRANCH  27  28
ENDBRANCH  21  22
ENDBRANCH  20  21
ENDBRANCH   1  20
TORSDOF 5
ENDMDL
