MODEL 1
REMARK VINA RESULT:     -12.2      0.000      0.000
REMARK  Name = 46911863
REMARK  3 active torsions:
REMARK  status: ('A' for Active; 'I' for Inactive)
REMARK    1  A    between atoms: C_5  and  C_18
REMARK    2  A    between atoms: C_7  and  C_12
REMARK    3  A    between atoms: C_18  and  C_20
REMARK                            x       y       z     vdW  Elec       q    Type
REMARK                         _______ _______ _______ _____ _____    ______ ____
ROOT
ATOM      1  N   UNL     1      34.331 -22.257 -17.819  0.00  0.00    -0.190 N 
ATOM      2  N   UNL     1      35.357 -22.669 -17.035  0.00  0.00    -0.162 NA
ATOM      3  N   UNL     1      33.214 -21.331 -19.462  0.00  0.00    -0.126 NA
ATOM      4  N   UNL     1      32.307 -21.895 -18.589  0.00  0.00    -0.127 NA
ATOM      5  C   UNL     1      34.419 -21.558 -18.987  0.00  0.00    +0.228 A 
ATOM      6  C   UNL     1      32.985 -22.448 -17.606  0.00  0.00    +0.187 A 
ATOM      7  C   UNL     1      34.979 -23.314 -15.967  0.00  0.00    +0.104 C 
ATOM      8  C   UNL     1      32.606 -23.162 -16.453  0.00  0.00    +0.042 C 
ATOM      9  C   UNL     1      33.552 -23.611 -15.618  0.00  0.00    +0.024 C 
ENDROOT
BRANCH   7  12
ATOM     10  N   UNL     1      37.106 -25.037 -13.581  0.00  0.00    -0.208 N 
ATOM     11  N   UNL     1      37.914 -23.979 -13.770  0.00  0.00    -0.176 NA
ATOM     12  C   UNL     1      36.013 -23.813 -15.023  0.00  0.00    +0.056 C 
ATOM     13  C   UNL     1      35.954 -24.986 -14.309  0.00  0.00    +0.087 C 
ATOM     14  C   UNL     1      37.241 -23.235 -14.651  0.00  0.00    +0.121 C 
ATOM     15  C   UNL     1      37.500 -26.087 -12.673  0.00  0.00    +0.140 C 
ENDBRANCH   7  12
BRANCH   5  18
ATOM     16  F   UNL     1      36.344 -22.209 -20.221  0.00  0.00    -0.191 F 
ATOM     17  F   UNL     1      36.651 -20.833 -18.598  0.00  0.00    -0.191 F 
ATOM     18  C   UNL     1      35.748 -21.125 -19.604  0.00  0.00    +0.335 C 
BRANCH  18  20
ATOM     19  N   UNL     1      35.130 -16.754 -23.143  0.00  0.00    -0.244 NA
ATOM     20  C   UNL     1      35.580 -19.980 -20.543  0.00  0.00    +0.045 C 
ATOM     21  C   UNL     1      34.868 -20.144 -21.727  0.00  0.00    +0.003 C 
ATOM     22  C   UNL     1      34.706 -19.066 -22.615  0.00  0.00    +0.018 C 
ATOM     23  C   UNL     1      36.134 -18.742 -20.241  0.00  0.00    +0.003 C 
ATOM     24  C   UNL     1      35.265 -17.807 -22.315  0.00  0.00    +0.081 C 
ATOM     25  C   UNL     1      35.973 -17.671 -21.124  0.00  0.00    +0.019 C 
ATOM     26  C   UNL     1      33.994 -19.203 -23.814  0.00  0.00    +0.003 C 
ATOM     27  C   UNL     1      33.852 -18.120 -24.669  0.00  0.00    +0.021 C 
ATOM     28  C   UNL     1      34.434 -16.927 -24.290  0.00  0.00    +0.099 C 
ENDBRANCH  18  20
ENDBRANCH   5  18
TORSDOF 3
ENDMDL
MODEL 2
REMARK VINA RESULT:     -11.3      2.058      3.003
REMARK  Name = 46911863
REMARK  3 active torsions:
REMARK  status: ('A' for Active; 'I' for Inactive)
REMARK    1  A    between atoms: C_5  and  C_18
REMARK    2  A    between atoms: C_7  and  C_12
REMARK    3  A    between atoms: C_18  and  C_20
REMARK                            x       y       z     vdW  Elec       q    Type
REMARK                         _______ _______ _______ _____ _____    ______ ____
ROOT
ATOM      1  N   UNL     1      32.805 -23.186 -15.924  0.00  0.00    -0.190 N 
ATOM      2  N   UNL     1      33.833 -23.686 -15.194  0.00  0.00    -0.162 NA
ATOM      3  N   UNL     1      31.642 -22.403 -17.609  0.00  0.00    -0.126 NA
ATOM      4  N   UNL     1      30.828 -22.421 -16.494  0.00  0.00    -0.127 NA
ATOM      5  C   UNL     1      32.819 -22.865 -17.250  0.00  0.00    +0.228 A 
ATOM      6  C   UNL     1      31.534 -22.892 -15.488  0.00  0.00    +0.187 A 
ATOM      7  C   UNL     1      33.538 -23.893 -13.942  0.00  0.00    +0.104 C 
ATOM      8  C   UNL     1      31.239 -23.141 -14.134  0.00  0.00    +0.042 C 
ATOM      9  C   UNL     1      32.192 -23.636 -13.334  0.00  0.00    +0.024 C 
ENDROOT
BRANCH   7  12
ATOM     10  N   UNL     1      36.419 -25.339 -12.271  0.00  0.00    -0.208 N 
ATOM     11  N   UNL     1      35.717 -25.070 -11.157  0.00  0.00    -0.176 NA
ATOM     12  C   UNL     1      34.584 -24.435 -13.035  0.00  0.00    +0.056 C 
ATOM     13  C   UNL     1      35.785 -24.978 -13.423  0.00  0.00    +0.087 C 
ATOM     14  C   UNL     1      34.596 -24.518 -11.631  0.00  0.00    +0.121 C 
ATOM     15  C   UNL     1      37.721 -25.955 -12.166  0.00  0.00    +0.140 C 
ENDBRANCH   7  12
BRANCH   5  18
ATOM     16  F   UNL     1      33.956 -24.225 -18.836  0.00  0.00    -0.191 F 
ATOM     17  F   UNL     1      35.164 -23.253 -17.347  0.00  0.00    -0.191 F 
ATOM     18  C   UNL     1      34.051 -23.035 -18.138  0.00  0.00    +0.335 C 
BRANCH  18  20
ATOM     19  N   UNL     1      34.743 -18.624 -21.614  0.00  0.00    -0.244 NA
ATOM     20  C   UNL     1      34.243 -21.873 -19.052  0.00  0.00    +0.045 C 
ATOM     21  C   UNL     1      35.517 -21.355 -19.267  0.00  0.00    +0.003 C 
ATOM     22  C   UNL     1      35.703 -20.260 -20.129  0.00  0.00    +0.018 C 
ATOM     23  C   UNL     1      33.152 -21.300 -19.693  0.00  0.00    +0.003 C 
ATOM     24  C   UNL     1      34.600 -19.674 -20.783  0.00  0.00    +0.081 C 
ATOM     25  C   UNL     1      33.338 -20.212 -20.549  0.00  0.00    +0.019 C 
ATOM     26  C   UNL     1      36.974 -19.719 -20.364  0.00  0.00    +0.003 C 
ATOM     27  C   UNL     1      37.124 -18.638 -21.220  0.00  0.00    +0.021 C 
ATOM     28  C   UNL     1      35.986 -18.132 -21.816  0.00  0.00    +0.099 C 
ENDBRANCH  18  20
ENDBRANCH   5  18
TORSDOF 3
ENDMDL
MODEL 3
REMARK VINA RESULT:     -11.2      5.219      8.635
REMARK  Name = 46911863
REMARK  3 active torsions:
REMARK  status: ('A' for Active; 'I' for Inactive)
REMARK    1  A    between atoms: C_5  and  C_18
REMARK    2  A    between atoms: C_7  and  C_12
REMARK    3  A    between atoms: C_18  and  C_20
REMARK                            x       y       z     vdW  Elec       q    Type
REMARK                         _______ _______ _______ _____ _____    ______ ____
ROOT
ATOM      1  N   UNL     1      34.282 -15.902 -23.135  0.00  0.00    -0.190 N 
ATOM      2  N   UNL     1      34.779 -16.634 -22.107  0.00  0.00    -0.162 NA
ATOM      3  N   UNL     1      33.426 -14.240 -24.279  0.00  0.00    -0.126 NA
ATOM      4  N   UNL     1      33.597 -15.309 -25.135  0.00  0.00    -0.127 NA
ATOM      5  C   UNL     1      33.842 -14.613 -23.089  0.00  0.00    +0.228 A 
ATOM      6  C   UNL     1      34.111 -16.302 -24.441  0.00  0.00    +0.187 A 
ATOM      7  C   UNL     1      35.117 -17.848 -22.438  0.00  0.00    +0.104 C 
ATOM      8  C   UNL     1      34.500 -17.614 -24.773  0.00  0.00    +0.042 C 
ATOM      9  C   UNL     1      35.003 -18.411 -23.822  0.00  0.00    +0.024 C 
ENDROOT
BRANCH   7  12
ATOM     10  N   UNL     1      35.911 -20.376 -19.955  0.00  0.00    -0.208 N 
ATOM     11  N   UNL     1      37.062 -19.689 -19.848  0.00  0.00    -0.176 NA
ATOM     12  C   UNL     1      35.670 -18.752 -21.395  0.00  0.00    +0.056 C 
ATOM     13  C   UNL     1      35.043 -19.855 -20.869  0.00  0.00    +0.087 C 
ATOM     14  C   UNL     1      36.908 -18.698 -20.729  0.00  0.00    +0.121 C 
ATOM     15  C   UNL     1      35.696 -21.547 -19.140  0.00  0.00    +0.140 C 
ENDBRANCH   7  12
BRANCH   5  18
ATOM     16  F   UNL     1      35.155 -13.590 -21.389  0.00  0.00    -0.191 F 
ATOM     17  F   UNL     1      33.309 -14.505 -20.773  0.00  0.00    -0.191 F 
ATOM     18  C   UNL     1      33.851 -13.771 -21.812  0.00  0.00    +0.335 C 
BRANCH  18  20
ATOM     19  N   UNL     1      31.139  -8.852 -22.491  0.00  0.00    -0.244 NA
ATOM     20  C   UNL     1      33.145 -12.472 -21.997  0.00  0.00    +0.045 C 
ATOM     21  C   UNL     1      33.726 -11.461 -22.756  0.00  0.00    +0.003 C 
ATOM     22  C   UNL     1      33.063 -10.234 -22.933  0.00  0.00    +0.018 C 
ATOM     23  C   UNL     1      31.902 -12.262 -21.411  0.00  0.00    +0.003 C 
ATOM     24  C   UNL     1      31.801 -10.015 -22.342  0.00  0.00    +0.081 C 
ATOM     25  C   UNL     1      31.244 -11.043 -21.587  0.00  0.00    +0.019 C 
ATOM     26  C   UNL     1      33.624  -9.199 -23.693  0.00  0.00    +0.003 C 
ATOM     27  C   UNL     1      32.944  -8.000 -23.849  0.00  0.00    +0.021 C 
ATOM     28  C   UNL     1      31.715  -7.878 -23.233  0.00  0.00    +0.099 C 
ENDBRANCH  18  20
ENDBRANCH   5  18
TORSDOF 3
ENDMDL
MODEL 4
REMARK VINA RESULT:     -11.2      2.509      8.686
REMARK  Name = 46911863
REMARK  3 active torsions:
REMARK  status: ('A' for Active; 'I' for Inactive)
REMARK    1  A    between atoms: C_5  and  C_18
REMARK    2  A    between atoms: C_7  and  C_12
REMARK    3  A    between atoms: C_18  and  C_20
REMARK                            x       y       z     vdW  Elec       q    Type
REMARK                         _______ _______ _______ _____ _____    ______ ____
ROOT
ATOM      1  N   UNL     1      35.576 -20.651 -19.688  0.00  0.00    -0.190 N 
ATOM      2  N   UNL     1      34.909 -20.138 -20.751  0.00  0.00    -0.162 NA
ATOM      3  N   UNL     1      36.048 -21.840 -17.908  0.00  0.00    -0.126 NA
ATOM      4  N   UNL     1      37.134 -21.038 -18.190  0.00  0.00    -0.127 NA
ATOM      5  C   UNL     1      35.127 -21.597 -18.813  0.00  0.00    +0.228 A 
ATOM      6  C   UNL     1      36.843 -20.328 -19.259  0.00  0.00    +0.187 A 
ATOM      7  C   UNL     1      35.581 -19.238 -21.411  0.00  0.00    +0.104 C 
ATOM      8  C   UNL     1      37.552 -19.364 -20.001  0.00  0.00    +0.042 C 
ATOM      9  C   UNL     1      36.974 -18.801 -21.070  0.00  0.00    +0.024 C 
ENDROOT
BRANCH   7  12
ATOM     10  N   UNL     1      34.270 -17.118 -24.051  0.00  0.00    -0.208 N 
ATOM     11  N   UNL     1      33.827 -18.283 -24.557  0.00  0.00    -0.176 NA
ATOM     12  C   UNL     1      34.954 -18.596 -22.596  0.00  0.00    +0.056 C 
ATOM     13  C   UNL     1      34.951 -17.251 -22.878  0.00  0.00    +0.087 C 
ATOM     14  C   UNL     1      34.248 -19.181 -23.663  0.00  0.00    +0.121 C 
ATOM     15  C   UNL     1      34.006 -15.885 -24.753  0.00  0.00    +0.140 C 
ENDBRANCH   7  12
BRANCH   5  18
ATOM     16  F   UNL     1      33.792 -23.287 -19.822  0.00  0.00    -0.191 F 
ATOM     17  F   UNL     1      32.872 -21.365 -19.535  0.00  0.00    -0.191 F 
ATOM     18  C   UNL     1      33.745 -22.242 -18.918  0.00  0.00    +0.335 C 
BRANCH  18  20
ATOM     19  N   UNL     1      31.846 -23.934 -13.864  0.00  0.00    -0.244 NA
ATOM     20  C   UNL     1      33.235 -22.685 -17.589  0.00  0.00    +0.045 C 
ATOM     21  C   UNL     1      31.880 -22.584 -17.291  0.00  0.00    +0.003 C 
ATOM     22  C   UNL     1      31.394 -23.001 -16.039  0.00  0.00    +0.018 C 
ATOM     23  C   UNL     1      34.110 -23.201 -16.642  0.00  0.00    +0.003 C 
ATOM     24  C   UNL     1      32.277 -23.526 -15.072  0.00  0.00    +0.081 C 
ATOM     25  C   UNL     1      33.627 -23.614 -15.398  0.00  0.00    +0.019 C 
ATOM     26  C   UNL     1      30.035 -22.911 -15.712  0.00  0.00    +0.003 C 
ATOM     27  C   UNL     1      29.587 -23.331 -14.468  0.00  0.00    +0.021 C 
ATOM     28  C   UNL     1      30.525 -23.831 -13.587  0.00  0.00    +0.099 C 
ENDBRANCH  18  20
ENDBRANCH   5  18
TORSDOF 3
ENDMDL
MODEL 5
REMARK VINA RESULT:     -10.7      6.783     12.464
REMARK  Name = 46911863
REMARK  3 active torsions:
REMARK  status: ('A' for Active; 'I' for Inactive)
REMARK    1  A    between atoms: C_5  and  C_18
REMARK    2  A    between atoms: C_7  and  C_12
REMARK    3  A    between atoms: C_18  and  C_20
REMARK                            x       y       z     vdW  Elec       q    Type
REMARK                         _______ _______ _______ _____ _____    ______ ____
ROOT
ATOM      1  N   UNL     1      32.500 -11.682 -21.890  0.00  0.00    -0.190 N 
ATOM      2  N   UNL     1      32.685 -10.599 -22.685  0.00  0.00    -0.162 NA
ATOM      3  N   UNL     1      32.518 -13.747 -21.155  0.00  0.00    -0.126 NA
ATOM      4  N   UNL     1      31.910 -12.956 -20.202  0.00  0.00    -0.127 NA
ATOM      5  C   UNL     1      32.865 -12.969 -22.156  0.00  0.00    +0.228 A 
ATOM      6  C   UNL     1      31.903 -11.718 -20.650  0.00  0.00    +0.187 A 
ATOM      7  C   UNL     1      32.227  -9.489 -22.179  0.00  0.00    +0.104 C 
ATOM      8  C   UNL     1      31.432 -10.501 -20.122  0.00  0.00    +0.042 C 
ATOM      9  C   UNL     1      31.572  -9.377 -20.835  0.00  0.00    +0.024 C 
ENDROOT
BRANCH   7  12
ATOM     10  N   UNL     1      33.194  -6.478 -23.963  0.00  0.00    -0.208 N 
ATOM     11  N   UNL     1      31.875  -6.377 -24.199  0.00  0.00    -0.176 NA
ATOM     12  C   UNL     1      32.364  -8.231 -22.959  0.00  0.00    +0.056 C 
ATOM     13  C   UNL     1      33.540  -7.571 -23.224  0.00  0.00    +0.087 C 
ATOM     14  C   UNL     1      31.373  -7.450 -23.582  0.00  0.00    +0.121 C 
ATOM     15  C   UNL     1      34.094  -5.477 -24.483  0.00  0.00    +0.140 C 
ENDBRANCH   7  12
BRANCH   5  18
ATOM     16  F   UNL     1      34.613 -12.519 -23.705  0.00  0.00    -0.191 F 
ATOM     17  F   UNL     1      32.732 -13.162 -24.522  0.00  0.00    -0.191 F 
ATOM     18  C   UNL     1      33.570 -13.388 -23.446  0.00  0.00    +0.335 C 
BRANCH  18  20
ATOM     19  N   UNL     1      35.310 -18.770 -23.284  0.00  0.00    -0.244 NA
ATOM     20  C   UNL     1      34.031 -14.804 -23.393  0.00  0.00    +0.045 C 
ATOM     21  C   UNL     1      34.598 -15.313 -22.229  0.00  0.00    +0.003 C 
ATOM     22  C   UNL     1      35.034 -16.648 -22.175  0.00  0.00    +0.018 C 
ATOM     23  C   UNL     1      33.899 -15.624 -24.507  0.00  0.00    +0.003 C 
ATOM     24  C   UNL     1      34.902 -17.486 -23.301  0.00  0.00    +0.081 C 
ATOM     25  C   UNL     1      34.333 -16.951 -24.453  0.00  0.00    +0.019 C 
ATOM     26  C   UNL     1      35.608 -17.187 -21.015  0.00  0.00    +0.003 C 
ATOM     27  C   UNL     1      36.028 -18.509 -20.994  0.00  0.00    +0.021 C 
ATOM     28  C   UNL     1      35.857 -19.251 -22.145  0.00  0.00    +0.099 C 
ENDBRANCH  18  20
ENDBRANCH   5  18
TORSDOF 3
ENDMDL
MODEL 6
REMARK VINA RESULT:     -10.5      9.597     13.675
REMARK  Name = 46911863
REMARK  3 active torsions:
REMARK  status: ('A' for Active; 'I' for Inactive)
REMARK    1  A    between atoms: C_5  and  C_18
REMARK    2  A    between atoms: C_7  and  C_12
REMARK    3  A    between atoms: C_18  and  C_20
REMARK                            x       y       z     vdW  Elec       q    Type
REMARK                         _______ _______ _______ _____ _____    ______ ____
ROOT
ATOM      1  N   UNL     1      32.390 -10.635 -21.733  0.00  0.00    -0.190 N 
ATOM      2  N   UNL     1      32.828 -11.468 -22.708  0.00  0.00    -0.162 NA
ATOM      3  N   UNL     1      31.848  -8.808 -20.649  0.00  0.00    -0.126 NA
ATOM      4  N   UNL     1      31.602  -9.887 -19.824  0.00  0.00    -0.127 NA
ATOM      5  C   UNL     1      32.317  -9.274 -21.785  0.00  0.00    +0.228 A 
ATOM      6  C   UNL     1      31.930 -10.979 -20.482  0.00  0.00    +0.187 A 
ATOM      7  C   UNL     1      32.796 -12.728 -22.380  0.00  0.00    +0.104 C 
ATOM      8  C   UNL     1      31.890 -12.349 -20.161  0.00  0.00    +0.042 C 
ATOM      9  C   UNL     1      32.303 -13.248 -21.063  0.00  0.00    +0.024 C 
ENDROOT
BRANCH   7  12
ATOM     10  N   UNL     1      34.125 -15.532 -24.267  0.00  0.00    -0.208 N 
ATOM     11  N   UNL     1      33.688 -14.828 -25.326  0.00  0.00    -0.176 NA
ATOM     12  C   UNL     1      33.257 -13.742 -23.364  0.00  0.00    +0.056 C 
ATOM     13  C   UNL     1      33.891 -14.925 -23.068  0.00  0.00    +0.087 C 
ATOM     14  C   UNL     1      33.160 -13.736 -24.768  0.00  0.00    +0.121 C 
ATOM     15  C   UNL     1      34.771 -16.806 -24.469  0.00  0.00    +0.140 C 
ENDBRANCH   7  12
BRANCH   5  18
ATOM     16  F   UNL     1      32.286  -9.090 -24.156  0.00  0.00    -0.191 F 
ATOM     17  F   UNL     1      34.109  -8.531 -23.162  0.00  0.00    -0.191 F 
ATOM     18  C   UNL     1      32.736  -8.461 -23.010  0.00  0.00    +0.335 C 
BRANCH  18  20
ATOM     19  N   UNL     1      30.909  -3.116 -22.683  0.00  0.00    -0.244 NA
ATOM     20  C   UNL     1      32.261  -7.050 -22.932  0.00  0.00    +0.045 C 
ATOM     21  C   UNL     1      32.759  -6.094 -23.812  0.00  0.00    +0.003 C 
ATOM     22  C   UNL     1      32.313  -4.763 -23.742  0.00  0.00    +0.018 C 
ATOM     23  C   UNL     1      31.319  -6.682 -21.979  0.00  0.00    +0.003 C 
ATOM     24  C   UNL     1      31.357  -4.383 -22.778  0.00  0.00    +0.081 C 
ATOM     25  C   UNL     1      30.877  -5.359 -21.910  0.00  0.00    +0.019 C 
ATOM     26  C   UNL     1      32.797  -3.780 -24.616  0.00  0.00    +0.003 C 
ATOM     27  C   UNL     1      32.336  -2.475 -24.521  0.00  0.00    +0.021 C 
ATOM     28  C   UNL     1      31.400  -2.197 -23.546  0.00  0.00    +0.099 C 
ENDBRANCH  18  20
ENDBRANCH   5  18
TORSDOF 3
ENDMDL
MODEL 7
REMARK VINA RESULT:     -10.4      9.638     14.026
REMARK  Name = 46911863
REMARK  3 active torsions:
REMARK  status: ('A' for Active; 'I' for Inactive)
REMARK    1  A    between atoms: C_5  and  C_18
REMARK    2  A    between atoms: C_7  and  C_12
REMARK    3  A    between atoms: C_18  and  C_20
REMARK                            x       y       z     vdW  Elec       q    Type
REMARK                         _______ _______ _______ _____ _____    ______ ____
ROOT
ATOM      1  N   UNL     1      32.853  -9.917 -22.273  0.00  0.00    -0.190 N 
ATOM      2  N   UNL     1      33.286 -10.908 -23.091  0.00  0.00    -0.162 NA
ATOM      3  N   UNL     1      32.566  -7.934 -21.384  0.00  0.00    -0.126 NA
ATOM      4  N   UNL     1      31.833  -8.845 -20.651  0.00  0.00    -0.127 NA
ATOM      5  C   UNL     1      33.168  -8.592 -22.349  0.00  0.00    +0.228 A 
ATOM      6  C   UNL     1      32.011 -10.032 -21.191  0.00  0.00    +0.187 A 
ATOM      7  C   UNL     1      32.829 -12.087 -22.777  0.00  0.00    +0.104 C 
ATOM      8  C   UNL     1      31.519 -11.316 -20.886  0.00  0.00    +0.042 C 
ATOM      9  C   UNL     1      31.892 -12.358 -21.639  0.00  0.00    +0.024 C 
ENDROOT
BRANCH   7  12
ATOM     10  N   UNL     1      34.013 -15.204 -24.216  0.00  0.00    -0.208 N 
ATOM     11  N   UNL     1      33.608 -14.648 -25.371  0.00  0.00    -0.176 NA
ATOM     12  C   UNL     1      33.237 -13.259 -23.596  0.00  0.00    +0.056 C 
ATOM     13  C   UNL     1      33.813 -14.413 -23.123  0.00  0.00    +0.087 C 
ATOM     14  C   UNL     1      33.135 -13.459 -24.986  0.00  0.00    +0.121 C 
ATOM     15  C   UNL     1      34.595 -16.525 -24.222  0.00  0.00    +0.140 C 
ENDBRANCH   7  12
BRANCH   5  18
ATOM     16  F   UNL     1      34.368  -8.984 -24.365  0.00  0.00    -0.191 F 
ATOM     17  F   UNL     1      35.341  -7.779 -22.873  0.00  0.00    -0.191 F 
ATOM     18  C   UNL     1      34.093  -8.013 -23.420  0.00  0.00    +0.335 C 
BRANCH  18  20
ATOM     19  N   UNL     1      31.897  -3.357 -25.769  0.00  0.00    -0.244 NA
ATOM     20  C   UNL     1      33.524  -6.783 -24.042  0.00  0.00    +0.045 C 
ATOM     21  C   UNL     1      34.356  -5.882 -24.699  0.00  0.00    +0.003 C 
ATOM     22  C   UNL     1      33.824  -4.722 -25.287  0.00  0.00    +0.018 C 
ATOM     23  C   UNL     1      32.160  -6.530 -23.969  0.00  0.00    +0.003 C 
ATOM     24  C   UNL     1      32.440  -4.459 -25.217  0.00  0.00    +0.081 C 
ATOM     25  C   UNL     1      31.632  -5.377 -24.553  0.00  0.00    +0.019 C 
ATOM     26  C   UNL     1      34.639  -3.798 -25.955  0.00  0.00    +0.003 C 
ATOM     27  C   UNL     1      34.082  -2.662 -26.526  0.00  0.00    +0.021 C 
ATOM     28  C   UNL     1      32.718  -2.490 -26.406  0.00  0.00    +0.099 C 
ENDBRANCH  18  20
ENDBRANCH   5  18
TORSDOF 3
ENDMDL
MODEL 8
REMARK VINA RESULT:     -10.4      9.564     13.920
REMARK  Name = 46911863
REMARK  3 active torsions:
REMARK  status: ('A' for Active; 'I' for Inactive)
REMARK    1  A    between atoms: C_5  and  C_18
REMARK    2  A    between atoms: C_7  and  C_12
REMARK    3  A    between atoms: C_18  and  C_20
REMARK                            x       y       z     vdW  Elec       q    Type
REMARK                         _______ _______ _______ _____ _____    ______ ____
ROOT
ATOM      1  N   UNL     1      32.919 -10.009 -22.530  0.00  0.00    -0.190 N 
ATOM      2  N   UNL     1      33.387 -11.063 -23.244  0.00  0.00    -0.162 NA
ATOM      3  N   UNL     1      32.616  -7.966 -21.798  0.00  0.00    -0.126 NA
ATOM      4  N   UNL     1      31.806  -8.809 -21.066  0.00  0.00    -0.127 NA
ATOM      5  C   UNL     1      33.272  -8.700 -22.669  0.00  0.00    +0.228 A 
ATOM      6  C   UNL     1      31.994 -10.034 -21.511  0.00  0.00    +0.187 A 
ATOM      7  C   UNL     1      32.877 -12.208 -22.890  0.00  0.00    +0.104 C 
ATOM      8  C   UNL     1      31.448 -11.284 -21.161  0.00  0.00    +0.042 C 
ATOM      9  C   UNL     1      31.849 -12.382 -21.813  0.00  0.00    +0.024 C 
ENDROOT
BRANCH   7  12
ATOM     10  N   UNL     1      34.131 -15.420 -24.030  0.00  0.00    -0.208 N 
ATOM     11  N   UNL     1      33.733 -14.975 -25.235  0.00  0.00    -0.176 NA
ATOM     12  C   UNL     1      33.315 -13.441 -23.597  0.00  0.00    +0.056 C 
ATOM     13  C   UNL     1      33.903 -14.538 -23.015  0.00  0.00    +0.087 C 
ATOM     14  C   UNL     1      33.236 -13.766 -24.964  0.00  0.00    +0.121 C 
ATOM     15  C   UNL     1      34.735 -16.725 -23.912  0.00  0.00    +0.140 C 
ENDBRANCH   7  12
BRANCH   5  18
ATOM     16  F   UNL     1      34.344  -9.109 -24.752  0.00  0.00    -0.191 F 
ATOM     17  F   UNL     1      35.565  -8.312 -23.172  0.00  0.00    -0.191 F 
ATOM     18  C   UNL     1      34.291  -8.214 -23.700  0.00  0.00    +0.335 C 
BRANCH  18  20
ATOM     19  N   UNL     1      33.196  -2.959 -25.491  0.00  0.00    -0.244 NA
ATOM     20  C   UNL     1      33.993  -6.830 -24.168  0.00  0.00    +0.045 C 
ATOM     21  C   UNL     1      32.752  -6.256 -23.908  0.00  0.00    +0.003 C 
ATOM     22  C   UNL     1      32.467  -4.951 -24.346  0.00  0.00    +0.018 C 
ATOM     23  C   UNL     1      34.951  -6.107 -24.866  0.00  0.00    +0.003 C 
ATOM     24  C   UNL     1      33.436  -4.211 -25.056  0.00  0.00    +0.081 C 
ATOM     25  C   UNL     1      34.667  -4.811 -25.303  0.00  0.00    +0.019 C 
ATOM     26  C   UNL     1      31.227  -4.347 -24.098  0.00  0.00    +0.003 C 
ATOM     27  C   UNL     1      30.977  -3.058 -24.544  0.00  0.00    +0.021 C 
ATOM     28  C   UNL     1      31.986  -2.412 -25.230  0.00  0.00    +0.099 C 
ENDBRANCH  18  20
ENDBRANCH   5  18
TORSDOF 3
ENDMDL
MODEL 9
REMARK VINA RESULT:     -10.2      4.513      8.823
REMARK  Name = 46911863
REMARK  3 active torsions:
REMARK  status: ('A' for Active; 'I' for Inactive)
REMARK    1  A    between atoms: C_5  and  C_18
REMARK    2  A    between atoms: C_7  and  C_12
REMARK    3  A    between atoms: C_18  and  C_20
REMARK                            x       y       z     vdW  Elec       q    Type
REMARK                         _______ _______ _______ _____ _____    ______ ____
ROOT
ATOM      1  N   UNL     1      34.448 -23.228 -15.968  0.00  0.00    -0.190 N 
ATOM      2  N   UNL     1      33.225 -23.538 -15.470  0.00  0.00    -0.162 NA
ATOM      3  N   UNL     1      36.622 -23.034 -16.166  0.00  0.00    -0.126 NA
ATOM      4  N   UNL     1      36.037 -22.464 -17.277  0.00  0.00    -0.127 NA
ATOM      5  C   UNL     1      35.658 -23.486 -15.395  0.00  0.00    +0.228 A 
ATOM      6  C   UNL     1      34.732 -22.584 -17.151  0.00  0.00    +0.187 A 
ATOM      7  C   UNL     1      32.236 -23.162 -16.230  0.00  0.00    +0.104 C 
ATOM      8  C   UNL     1      33.643 -22.205 -17.960  0.00  0.00    +0.042 C 
ATOM      9  C   UNL     1      32.397 -22.471 -17.551  0.00  0.00    +0.024 C 
ENDROOT
BRANCH   7  12
ATOM     10  N   UNL     1      28.696 -23.274 -15.428  0.00  0.00    -0.208 N 
ATOM     11  N   UNL     1      29.015 -24.456 -14.874  0.00  0.00    -0.176 NA
ATOM     12  C   UNL     1      30.844 -23.441 -15.791  0.00  0.00    +0.056 C 
ATOM     13  C   UNL     1      29.756 -22.625 -15.991  0.00  0.00    +0.087 C 
ATOM     14  C   UNL     1      30.328 -24.552 -15.098  0.00  0.00    +0.121 C 
ATOM     15  C   UNL     1      27.331 -22.808 -15.388  0.00  0.00    +0.140 C 
ENDBRANCH   7  12
BRANCH   5  18
ATOM     16  F   UNL     1      34.766 -25.084 -13.876  0.00  0.00    -0.191 F 
ATOM     17  F   UNL     1      35.600 -23.295 -13.025  0.00  0.00    -0.191 F 
ATOM     18  C   UNL     1      35.812 -24.197 -14.051  0.00  0.00    +0.335 C 
BRANCH  18  20
ATOM     19  N   UNL     1      40.841 -26.741 -13.547  0.00  0.00    -0.244 NA
ATOM     20  C   UNL     1      37.135 -24.873 -13.926  0.00  0.00    +0.045 C 
ATOM     21  C   UNL     1      37.505 -25.859 -14.836  0.00  0.00    +0.003 C 
ATOM     22  C   UNL     1      38.752 -26.498 -14.722  0.00  0.00    +0.018 C 
ATOM     23  C   UNL     1      38.005 -24.523 -12.901  0.00  0.00    +0.003 C 
ATOM     24  C   UNL     1      39.640 -26.148 -13.685  0.00  0.00    +0.081 C 
ATOM     25  C   UNL     1      39.243 -25.159 -12.789  0.00  0.00    +0.019 C 
ATOM     26  C   UNL     1      39.151 -27.494 -15.625  0.00  0.00    +0.003 C 
ATOM     27  C   UNL     1      40.388 -28.106 -15.486  0.00  0.00    +0.021 C 
ATOM     28  C   UNL     1      41.189 -27.696 -14.439  0.00  0.00    +0.099 C 
ENDBRANCH  18  20
ENDBRANCH   5  18
TORSDOF 3
ENDMDL
