MODEL 1
REMARK VINA RESULT:     -11.9      0.000      0.000
REMARK  Name = 66555680
REMARK  4 active torsions:
REMARK  status: ('A' for Active; 'I' for Inactive)
REMARK    1  A    between atoms: N_1  and  C_8
REMARK    2  A    between atoms: C_3  and  C_22
REMARK    3  A    between atoms: C_4  and  N_18
REMARK    4  A    between atoms: C_22  and  C_24
REMARK                            x       y       z     vdW  Elec       q    Type
REMARK                         _______ _______ _______ _____ _____    ______ ____
ROOT
ATOM      1  N   UNL     1      34.264 -15.226 -22.779  0.00  0.00    -0.177 N 
ATOM      2  N   UNL     1      34.290 -15.733 -24.024  0.00  0.00    -0.171 NA
ATOM      3  C   UNL     1      35.329 -17.116 -22.532  0.00  0.00    +0.090 C 
ATOM      4  C   UNL     1      34.873 -16.015 -21.849  0.00  0.00    +0.122 C 
ATOM      5  C   UNL     1      34.942 -16.888 -23.866  0.00  0.00    +0.124 C 
ENDROOT
BRANCH   1   8
ATOM      6  N   UNL     1      33.284 -10.501 -23.771  0.00  0.00    -0.318 N 
ATOM      7  N   UNL     1      31.907 -10.260 -22.043  0.00  0.00    -0.318 N 
ATOM      8  C   UNL     1      33.646 -13.994 -22.554  0.00  0.00    +0.077 C 
ATOM      9  C   UNL     1      33.263 -11.722 -23.147  0.00  0.00    +0.060 C 
ATOM     10  C   UNL     1      33.906 -12.928 -23.422  0.00  0.00    +0.032 C 
ATOM     11  C   UNL     1      32.396 -11.546 -22.072  0.00  0.00    +0.059 C 
ATOM     12  C   UNL     1      32.782 -13.847 -21.467  0.00  0.00    +0.018 C 
ATOM     13  C   UNL     1      32.146 -12.627 -21.209  0.00  0.00    +0.017 C 
ATOM     14  C   UNL     1      32.459  -9.662 -23.074  0.00  0.00    +0.144 C 
ATOM     15  C   UNL     1      32.262  -8.262 -23.492  0.00  0.00    +0.044 C 
ATOM     16  H   UNL     1      33.801 -10.270 -24.576  0.00  0.00    +0.148 HD
ATOM     17  H   UNL     1      31.280  -9.872 -21.391  0.00  0.00    +0.148 HD
ENDBRANCH   1   8
BRANCH   4  18
ATOM     18  N   UNL     1      34.942 -15.666 -20.546  0.00  0.00    -0.344 N 
ATOM     19  H   UNL     1      35.627 -15.027 -20.243  0.00  0.00    +0.144 HD
ATOM     20  H   UNL     1      34.309 -16.052 -19.899  0.00  0.00    +0.144 HD
ENDBRANCH   4  18
BRANCH   3  22
ATOM     21  O   UNL     1      37.282 -18.377 -22.272  0.00  0.00    -0.285 OA
ATOM     22  C   UNL     1      36.075 -18.289 -21.947  0.00  0.00    +0.213 C 
BRANCH  22  24
ATOM     23  N   UNL     1      36.170 -20.026 -20.197  0.00  0.00    -0.310 N 
ATOM     24  C   UNL     1      35.469 -19.249 -21.079  0.00  0.00    +0.088 C 
ATOM     25  C   UNL     1      35.311 -20.850 -19.504  0.00  0.00    +0.048 C 
ATOM     26  C   UNL     1      34.021 -20.582 -19.967  0.00  0.00    +0.015 C 
ATOM     27  C   UNL     1      34.136 -19.569 -20.961  0.00  0.00    +0.019 C 
ATOM     28  C   UNL     1      35.574 -21.802 -18.514  0.00  0.00    +0.015 C 
ATOM     29  C   UNL     1      32.940 -21.297 -19.416  0.00  0.00    +0.001 C 
ATOM     30  C   UNL     1      34.487 -22.500 -17.981  0.00  0.00    +0.001 C 
ATOM     31  C   UNL     1      33.189 -22.253 -18.424  0.00  0.00    +0.000 C 
ATOM     32  H   UNL     1      37.146 -20.000 -20.075  0.00  0.00    +0.152 HD
ENDBRANCH  22  24
ENDBRANCH   3  22
TORSDOF 4
ENDMDL
MODEL 2
REMARK VINA RESULT:     -11.6      2.978      5.286
REMARK  Name = 66555680
REMARK  4 active torsions:
REMARK  status: ('A' for Active; 'I' for Inactive)
REMARK    1  A    between atoms: N_1  and  C_8
REMARK    2  A    between atoms: C_3  and  C_22
REMARK    3  A    between atoms: C_4  and  N_18
REMARK    4  A    between atoms: C_22  and  C_24
REMARK                            x       y       z     vdW  Elec       q    Type
REMARK                         _______ _______ _______ _____ _____    ______ ____
ROOT
ATOM      1  N   UNL     1      33.240 -10.797 -23.354  0.00  0.00    -0.177 N 
ATOM      2  N   UNL     1      32.715 -11.435 -22.294  0.00  0.00    -0.171 NA
ATOM      3  C   UNL     1      33.355 -12.902 -23.924  0.00  0.00    +0.090 C 
ATOM      4  C   UNL     1      33.639 -11.630 -24.358  0.00  0.00    +0.122 C 
ATOM      5  C   UNL     1      32.788 -12.721 -22.649  0.00  0.00    +0.124 C 
ENDROOT
BRANCH   1   8
ATOM      6  N   UNL     1      31.400  -6.230 -23.195  0.00  0.00    -0.318 N 
ATOM      7  N   UNL     1      33.395  -5.254 -23.291  0.00  0.00    -0.318 N 
ATOM      8  C   UNL     1      33.329  -9.403 -23.340  0.00  0.00    +0.077 C 
ATOM      9  C   UNL     1      32.308  -7.256 -23.257  0.00  0.00    +0.060 C 
ATOM     10  C   UNL     1      32.158  -8.643 -23.266  0.00  0.00    +0.032 C 
ATOM     11  C   UNL     1      33.545  -6.621 -23.317  0.00  0.00    +0.059 C 
ATOM     12  C   UNL     1      34.585  -8.794 -23.401  0.00  0.00    +0.018 C 
ATOM     13  C   UNL     1      34.712  -7.400 -23.390  0.00  0.00    +0.017 C 
ATOM     14  C   UNL     1      32.098  -5.054 -23.218  0.00  0.00    +0.144 C 
ATOM     15  C   UNL     1      31.407  -3.753 -23.163  0.00  0.00    +0.044 C 
ATOM     16  H   UNL     1      30.422  -6.324 -23.142  0.00  0.00    +0.148 HD
ATOM     17  H   UNL     1      34.105  -4.572 -23.321  0.00  0.00    +0.148 HD
ENDBRANCH   1   8
BRANCH   4  18
ATOM     18  N   UNL     1      34.190 -11.165 -25.500  0.00  0.00    -0.344 N 
ATOM     19  H   UNL     1      34.918 -11.664 -25.935  0.00  0.00    +0.144 HD
ATOM     20  H   UNL     1      33.863 -10.326 -25.898  0.00  0.00    +0.144 HD
ENDBRANCH   4  18
BRANCH   3  22
ATOM     21  O   UNL     1      33.381 -14.139 -25.910  0.00  0.00    -0.285 OA
ATOM     22  C   UNL     1      33.609 -14.183 -24.678  0.00  0.00    +0.213 C 
BRANCH  22  24
ATOM     23  N   UNL     1      33.805 -16.638 -24.519  0.00  0.00    -0.310 N 
ATOM     24  C   UNL     1      34.077 -15.380 -24.053  0.00  0.00    +0.088 C 
ATOM     25  C   UNL     1      34.391 -17.583 -23.706  0.00  0.00    +0.048 C 
ATOM     26  C   UNL     1      35.056 -16.894 -22.689  0.00  0.00    +0.015 C 
ATOM     27  C   UNL     1      34.849 -15.505 -22.921  0.00  0.00    +0.019 C 
ATOM     28  C   UNL     1      34.382 -18.979 -23.792  0.00  0.00    +0.015 C 
ATOM     29  C   UNL     1      35.747 -17.634 -21.710  0.00  0.00    +0.001 C 
ATOM     30  C   UNL     1      35.075 -19.691 -22.809  0.00  0.00    +0.001 C 
ATOM     31  C   UNL     1      35.748 -19.031 -21.783  0.00  0.00    +0.000 C 
ATOM     32  H   UNL     1      33.269 -16.838 -25.320  0.00  0.00    +0.152 HD
ENDBRANCH  22  24
ENDBRANCH   3  22
TORSDOF 4
ENDMDL
MODEL 3
REMARK VINA RESULT:     -11.4      3.084     10.494
REMARK  Name = 66555680
REMARK  4 active torsions:
REMARK  status: ('A' for Active; 'I' for Inactive)
REMARK    1  A    between atoms: N_1  and  C_8
REMARK    2  A    between atoms: C_3  and  C_22
REMARK    3  A    between atoms: C_4  and  N_18
REMARK    4  A    between atoms: C_22  and  C_24
REMARK                            x       y       z     vdW  Elec       q    Type
REMARK                         _______ _______ _______ _____ _____    ______ ____
ROOT
ATOM      1  N   UNL     1      33.531 -12.949 -23.053  0.00  0.00    -0.177 N 
ATOM      2  N   UNL     1      34.038 -12.053 -23.917  0.00  0.00    -0.171 NA
ATOM      3  C   UNL     1      32.509 -11.094 -22.516  0.00  0.00    +0.090 C 
ATOM      4  C   UNL     1      32.611 -12.425 -22.192  0.00  0.00    +0.122 C 
ATOM      5  C   UNL     1      33.410 -10.921 -23.584  0.00  0.00    +0.124 C 
ENDROOT
BRANCH   1   8
ATOM      6  N   UNL     1      35.569 -17.031 -21.195  0.00  0.00    -0.318 N 
ATOM      7  N   UNL     1      35.320 -18.198 -23.071  0.00  0.00    -0.318 N 
ATOM      8  C   UNL     1      33.966 -14.274 -23.105  0.00  0.00    +0.077 C 
ATOM      9  C   UNL     1      34.969 -16.174 -22.083  0.00  0.00    +0.060 C 
ATOM     10  C   UNL     1      34.554 -14.848 -21.972  0.00  0.00    +0.032 C 
ATOM     11  C   UNL     1      34.825 -16.926 -23.245  0.00  0.00    +0.059 C 
ATOM     12  C   UNL     1      33.808 -15.004 -24.285  0.00  0.00    +0.018 C 
ATOM     13  C   UNL     1      34.233 -16.335 -24.374  0.00  0.00    +0.017 C 
ATOM     14  C   UNL     1      35.758 -18.226 -21.832  0.00  0.00    +0.144 C 
ATOM     15  C   UNL     1      36.386 -19.369 -21.144  0.00  0.00    +0.044 C 
ATOM     16  H   UNL     1      35.818 -16.822 -20.266  0.00  0.00    +0.148 HD
ATOM     17  H   UNL     1      35.342 -18.929 -23.730  0.00  0.00    +0.148 HD
ENDBRANCH   1   8
BRANCH   4  18
ATOM     18  N   UNL     1      31.996 -13.178 -21.254  0.00  0.00    -0.344 N 
ATOM     19  H   UNL     1      31.022 -13.112 -21.130  0.00  0.00    +0.144 HD
ATOM     20  H   UNL     1      32.523 -13.792 -20.693  0.00  0.00    +0.144 HD
ENDBRANCH   4  18
BRANCH   3  22
ATOM     21  O   UNL     1      30.808 -10.534 -21.013  0.00  0.00    -0.285 OA
ATOM     22  C   UNL     1      31.619 -10.075 -21.851  0.00  0.00    +0.213 C 
BRANCH  22  24
ATOM     23  N   UNL     1      31.416  -8.146 -23.375  0.00  0.00    -0.310 N 
ATOM     24  C   UNL     1      31.675  -8.677 -22.140  0.00  0.00    +0.088 C 
ATOM     25  C   UNL     1      31.552  -6.776 -23.340  0.00  0.00    +0.048 C 
ATOM     26  C   UNL     1      31.910  -6.431 -22.035  0.00  0.00    +0.015 C 
ATOM     27  C   UNL     1      31.984  -7.642 -21.289  0.00  0.00    +0.019 C 
ATOM     28  C   UNL     1      31.387  -5.825 -24.353  0.00  0.00    +0.015 C 
ATOM     29  C   UNL     1      32.113  -5.073 -21.724  0.00  0.00    +0.001 C 
ATOM     30  C   UNL     1      31.593  -4.484 -24.021  0.00  0.00    +0.001 C 
ATOM     31  C   UNL     1      31.952  -4.111 -22.727  0.00  0.00    +0.000 C 
ATOM     32  H   UNL     1      31.168  -8.667 -24.173  0.00  0.00    +0.152 HD
ENDBRANCH  22  24
ENDBRANCH   3  22
TORSDOF 4
ENDMDL
MODEL 4
REMARK VINA RESULT:     -11.2      2.976      5.807
REMARK  Name = 66555680
REMARK  4 active torsions:
REMARK  status: ('A' for Active; 'I' for Inactive)
REMARK    1  A    between atoms: N_1  and  C_8
REMARK    2  A    between atoms: C_3  and  C_22
REMARK    3  A    between atoms: C_4  and  N_18
REMARK    4  A    between atoms: C_22  and  C_24
REMARK                            x       y       z     vdW  Elec       q    Type
REMARK                         _______ _______ _______ _____ _____    ______ ____
ROOT
ATOM      1  N   UNL     1      35.430 -19.861 -20.338  0.00  0.00    -0.177 N 
ATOM      2  N   UNL     1      36.663 -20.123 -19.869  0.00  0.00    -0.171 NA
ATOM      3  C   UNL     1      35.119 -21.580 -19.026  0.00  0.00    +0.090 C 
ATOM      4  C   UNL     1      34.469 -20.705 -19.863  0.00  0.00    +0.122 C 
ATOM      5  C   UNL     1      36.466 -21.175 -19.069  0.00  0.00    +0.124 C 
ENDROOT
BRANCH   1   8
ATOM      6  N   UNL     1      34.628 -15.146 -21.518  0.00  0.00    -0.318 N 
ATOM      7  N   UNL     1      34.673 -15.523 -23.708  0.00  0.00    -0.318 N 
ATOM      8  C   UNL     1      35.245 -18.800 -21.226  0.00  0.00    +0.077 C 
ATOM      9  C   UNL     1      34.853 -16.492 -21.654  0.00  0.00    +0.060 C 
ATOM     10  C   UNL     1      35.033 -17.513 -20.720  0.00  0.00    +0.032 C 
ATOM     11  C   UNL     1      34.877 -16.702 -23.029  0.00  0.00    +0.059 C 
ATOM     12  C   UNL     1      35.273 -19.041 -22.601  0.00  0.00    +0.018 C 
ATOM     13  C   UNL     1      35.090 -18.001 -23.520  0.00  0.00    +0.017 C 
ATOM     14  C   UNL     1      34.528 -14.611 -22.772  0.00  0.00    +0.144 C 
ATOM     15  C   UNL     1      34.285 -13.171 -22.973  0.00  0.00    +0.044 C 
ATOM     16  H   UNL     1      34.554 -14.653 -20.669  0.00  0.00    +0.148 HD
ATOM     17  H   UNL     1      34.641 -15.390 -24.683  0.00  0.00    +0.148 HD
ENDBRANCH   1   8
BRANCH   4  18
ATOM     18  N   UNL     1      33.173 -20.593 -20.225  0.00  0.00    -0.344 N 
ATOM     19  H   UNL     1      32.939 -20.332 -21.145  0.00  0.00    +0.144 HD
ATOM     20  H   UNL     1      32.461 -20.770 -19.568  0.00  0.00    +0.144 HD
ENDBRANCH   4  18
BRANCH   3  22
ATOM     21  O   UNL     1      33.695 -23.432 -18.900  0.00  0.00    -0.285 OA
ATOM     22  C   UNL     1      34.491 -22.712 -18.252  0.00  0.00    +0.213 C 
BRANCH  22  24
ATOM     23  N   UNL     1      35.977 -22.714 -16.282  0.00  0.00    -0.310 N 
ATOM     24  C   UNL     1      34.768 -22.966 -16.874  0.00  0.00    +0.088 C 
ATOM     25  C   UNL     1      35.935 -23.063 -14.951  0.00  0.00    +0.048 C 
ATOM     26  C   UNL     1      34.653 -23.553 -14.693  0.00  0.00    +0.015 C 
ATOM     27  C   UNL     1      33.928 -23.486 -15.917  0.00  0.00    +0.019 C 
ATOM     28  C   UNL     1      36.924 -22.983 -13.964  0.00  0.00    +0.015 C 
ATOM     29  C   UNL     1      34.341 -23.984 -13.390  0.00  0.00    +0.001 C 
ATOM     30  C   UNL     1      36.592 -23.416 -12.678  0.00  0.00    +0.001 C 
ATOM     31  C   UNL     1      35.320 -23.910 -12.393  0.00  0.00    +0.000 C 
ATOM     32  H   UNL     1      36.762 -22.338 -16.742  0.00  0.00    +0.152 HD
ENDBRANCH  22  24
ENDBRANCH   3  22
TORSDOF 4
ENDMDL
MODEL 5
REMARK VINA RESULT:     -11.0      2.857      5.683
REMARK  Name = 66555680
REMARK  4 active torsions:
REMARK  status: ('A' for Active; 'I' for Inactive)
REMARK    1  A    between atoms: N_1  and  C_8
REMARK    2  A    between atoms: C_3  and  C_22
REMARK    3  A    between atoms: C_4  and  N_18
REMARK    4  A    between atoms: C_22  and  C_24
REMARK                            x       y       z     vdW  Elec       q    Type
REMARK                         _______ _______ _______ _____ _____    ______ ____
ROOT
ATOM      1  N   UNL     1      35.243 -19.874 -20.393  0.00  0.00    -0.177 N 
ATOM      2  N   UNL     1      36.414 -20.159 -19.797  0.00  0.00    -0.171 NA
ATOM      3  C   UNL     1      34.837 -21.751 -19.354  0.00  0.00    +0.090 C 
ATOM      4  C   UNL     1      34.265 -20.796 -20.159  0.00  0.00    +0.122 C 
ATOM      5  C   UNL     1      36.159 -21.308 -19.164  0.00  0.00    +0.124 C 
ENDROOT
BRANCH   1   8
ATOM      6  N   UNL     1      34.520 -15.049 -21.078  0.00  0.00    -0.318 N 
ATOM      7  N   UNL     1      34.759 -15.167 -23.286  0.00  0.00    -0.318 N 
ATOM      8  C   UNL     1      35.130 -18.715 -21.164  0.00  0.00    +0.077 C 
ATOM      9  C   UNL     1      34.764 -16.371 -21.351  0.00  0.00    +0.060 C 
ATOM     10  C   UNL     1      34.868 -17.495 -20.531  0.00  0.00    +0.032 C 
ATOM     11  C   UNL     1      34.910 -16.418 -22.734  0.00  0.00    +0.059 C 
ATOM     12  C   UNL     1      35.281 -18.793 -22.550  0.00  0.00    +0.018 C 
ATOM     13  C   UNL     1      35.173 -17.652 -23.353  0.00  0.00    +0.017 C 
ATOM     14  C   UNL     1      34.528 -14.371 -22.266  0.00  0.00    +0.144 C 
ATOM     15  C   UNL     1      34.294 -12.916 -22.317  0.00  0.00    +0.044 C 
ATOM     16  H   UNL     1      34.369 -14.659 -20.188  0.00  0.00    +0.148 HD
ATOM     17  H   UNL     1      34.813 -14.920 -24.237  0.00  0.00    +0.148 HD
ENDBRANCH   1   8
BRANCH   4  18
ATOM     18  N   UNL     1      33.024 -20.674 -20.678  0.00  0.00    -0.344 N 
ATOM     19  H   UNL     1      32.243 -20.627 -20.081  0.00  0.00    +0.144 HD
ATOM     20  H   UNL     1      32.901 -20.631 -21.654  0.00  0.00    +0.144 HD
ENDBRANCH   4  18
BRANCH   3  22
ATOM     21  O   UNL     1      34.233 -24.003 -19.547  0.00  0.00    -0.285 OA
ATOM     22  C   UNL     1      34.163 -22.988 -18.815  0.00  0.00    +0.213 C 
BRANCH  22  24
ATOM     23  N   UNL     1      32.129 -22.866 -17.422  0.00  0.00    -0.310 N 
ATOM     24  C   UNL     1      33.482 -23.024 -17.559  0.00  0.00    +0.088 C 
ATOM     25  C   UNL     1      31.773 -22.950 -16.095  0.00  0.00    +0.048 C 
ATOM     26  C   UNL     1      32.945 -23.169 -15.367  0.00  0.00    +0.015 C 
ATOM     27  C   UNL     1      34.016 -23.213 -16.305  0.00  0.00    +0.019 C 
ATOM     28  C   UNL     1      30.517 -22.849 -15.488  0.00  0.00    +0.015 C 
ATOM     29  C   UNL     1      32.861 -23.294 -13.968  0.00  0.00    +0.001 C 
ATOM     30  C   UNL     1      30.458 -22.977 -14.098  0.00  0.00    +0.001 C 
ATOM     31  C   UNL     1      31.611 -23.196 -13.347  0.00  0.00    +0.000 C 
ATOM     32  H   UNL     1      31.502 -22.714 -18.165  0.00  0.00    +0.152 HD
ENDBRANCH  22  24
ENDBRANCH   3  22
TORSDOF 4
ENDMDL
MODEL 6
REMARK VINA RESULT:     -10.9      2.395      9.256
REMARK  Name = 66555680
REMARK  4 active torsions:
REMARK  status: ('A' for Active; 'I' for Inactive)
REMARK    1  A    between atoms: N_1  and  C_8
REMARK    2  A    between atoms: C_3  and  C_22
REMARK    3  A    between atoms: C_4  and  N_18
REMARK    4  A    between atoms: C_22  and  C_24
REMARK                            x       y       z     vdW  Elec       q    Type
REMARK                         _______ _______ _______ _____ _____    ______ ____
ROOT
ATOM      1  N   UNL     1      35.278 -19.750 -20.870  0.00  0.00    -0.177 N 
ATOM      2  N   UNL     1      36.501 -19.200 -20.964  0.00  0.00    -0.171 NA
ATOM      3  C   UNL     1      35.125 -18.475 -22.637  0.00  0.00    +0.090 C 
ATOM      4  C   UNL     1      34.416 -19.349 -21.848  0.00  0.00    +0.122 C 
ATOM      5  C   UNL     1      36.400 -18.422 -22.045  0.00  0.00    +0.124 C 
ENDROOT
BRANCH   1   8
ATOM      6  N   UNL     1      32.320 -22.305 -17.872  0.00  0.00    -0.318 N 
ATOM      7  N   UNL     1      33.999 -23.264 -16.774  0.00  0.00    -0.318 N 
ATOM      8  C   UNL     1      35.005 -20.643 -19.831  0.00  0.00    +0.077 C 
ATOM      9  C   UNL     1      33.463 -21.817 -18.451  0.00  0.00    +0.060 C 
ATOM     10  C   UNL     1      33.675 -20.919 -19.497  0.00  0.00    +0.032 C 
ATOM     11  C   UNL     1      34.497 -22.430 -17.749  0.00  0.00    +0.059 C 
ATOM     12  C   UNL     1      36.063 -21.242 -19.144  0.00  0.00    +0.018 C 
ATOM     13  C   UNL     1      35.827 -22.141 -18.097  0.00  0.00    +0.017 C 
ATOM     14  C   UNL     1      32.693 -23.166 -16.876  0.00  0.00    +0.144 C 
ATOM     15  C   UNL     1      31.688 -23.865 -16.054  0.00  0.00    +0.044 C 
ATOM     16  H   UNL     1      31.397 -22.078 -18.128  0.00  0.00    +0.148 HD
ATOM     17  H   UNL     1      34.511 -23.815 -16.138  0.00  0.00    +0.148 HD
ENDBRANCH   1   8
BRANCH   4  18
ATOM     18  N   UNL     1      33.144 -19.798 -21.912  0.00  0.00    -0.344 N 
ATOM     19  H   UNL     1      32.426 -19.202 -22.226  0.00  0.00    +0.144 HD
ATOM     20  H   UNL     1      32.934 -20.722 -21.644  0.00  0.00    +0.144 HD
ENDBRANCH   4  18
BRANCH   3  22
ATOM     21  O   UNL     1      34.414 -18.471 -24.865  0.00  0.00    -0.285 OA
ATOM     22  C   UNL     1      34.612 -17.753 -23.857  0.00  0.00    +0.213 C 
BRANCH  22  24
ATOM     23  N   UNL     1      33.934 -15.674 -25.000  0.00  0.00    -0.310 N 
ATOM     24  C   UNL     1      34.364 -16.346 -23.888  0.00  0.00    +0.088 C 
ATOM     25  C   UNL     1      33.787 -14.334 -24.718  0.00  0.00    +0.048 C 
ATOM     26  C   UNL     1      34.136 -14.155 -23.378  0.00  0.00    +0.015 C 
ATOM     27  C   UNL     1      34.498 -15.434 -22.867  0.00  0.00    +0.019 C 
ATOM     28  C   UNL     1      33.375 -13.278 -25.538  0.00  0.00    +0.015 C 
ATOM     29  C   UNL     1      34.072 -12.861 -22.827  0.00  0.00    +0.001 C 
ATOM     30  C   UNL     1      33.319 -12.003 -24.970  0.00  0.00    +0.001 C 
ATOM     31  C   UNL     1      33.662 -11.795 -23.635  0.00  0.00    +0.000 C 
ATOM     32  H   UNL     1      33.757 -16.088 -25.876  0.00  0.00    +0.152 HD
ENDBRANCH  22  24
ENDBRANCH   3  22
TORSDOF 4
ENDMDL
MODEL 7
REMARK VINA RESULT:     -10.9      2.473      9.758
REMARK  Name = 66555680
REMARK  4 active torsions:
REMARK  status: ('A' for Active; 'I' for Inactive)
REMARK    1  A    between atoms: N_1  and  C_8
REMARK    2  A    between atoms: C_3  and  C_22
REMARK    3  A    between atoms: C_4  and  N_18
REMARK    4  A    between atoms: C_22  and  C_24
REMARK                            x       y       z     vdW  Elec       q    Type
REMARK                         _______ _______ _______ _____ _____    ______ ____
ROOT
ATOM      1  N   UNL     1      34.586 -20.908 -19.557  0.00  0.00    -0.177 N 
ATOM      2  N   UNL     1      33.443 -20.780 -20.252  0.00  0.00    -0.171 NA
ATOM      3  C   UNL     1      35.114 -19.504 -21.145  0.00  0.00    +0.090 C 
ATOM      4  C   UNL     1      35.618 -20.165 -20.050  0.00  0.00    +0.122 C 
ATOM      5  C   UNL     1      33.772 -19.921 -21.221  0.00  0.00    +0.124 C 
ENDROOT
BRANCH   1   8
ATOM      6  N   UNL     1      36.730 -23.046 -15.672  0.00  0.00    -0.318 N 
ATOM      7  N   UNL     1      34.916 -24.198 -15.105  0.00  0.00    -0.318 N 
ATOM      8  C   UNL     1      34.621 -21.750 -18.443  0.00  0.00    +0.077 C 
ATOM      9  C   UNL     1      35.778 -22.709 -16.599  0.00  0.00    +0.060 C 
ATOM     10  C   UNL     1      35.802 -21.853 -17.701  0.00  0.00    +0.032 C 
ATOM     11  C   UNL     1      34.656 -23.441 -16.224  0.00  0.00    +0.059 C 
ATOM     12  C   UNL     1      33.479 -22.472 -18.091  0.00  0.00    +0.018 C 
ATOM     13  C   UNL     1      33.478 -23.325 -16.982  0.00  0.00    +0.017 C 
ATOM     14  C   UNL     1      36.167 -23.937 -14.801  0.00  0.00    +0.144 C 
ATOM     15  C   UNL     1      36.937 -24.497 -13.675  0.00  0.00    +0.044 C 
ATOM     16  H   UNL     1      37.654 -22.705 -15.638  0.00  0.00    +0.148 HD
ATOM     17  H   UNL     1      34.299 -24.804 -14.634  0.00  0.00    +0.148 HD
ENDBRANCH   1   8
BRANCH   4  18
ATOM     18  N   UNL     1      36.842 -20.169 -19.480  0.00  0.00    -0.344 N 
ATOM     19  H   UNL     1      37.525 -19.524 -19.775  0.00  0.00    +0.144 HD
ATOM     20  H   UNL     1      37.052 -20.817 -18.770  0.00  0.00    +0.144 HD
ENDBRANCH   4  18
BRANCH   3  22
ATOM     21  O   UNL     1      37.049 -18.875 -22.299  0.00  0.00    -0.285 OA
ATOM     22  C   UNL     1      35.866 -18.552 -22.041  0.00  0.00    +0.213 C 
BRANCH  22  24
ATOM     23  N   UNL     1      35.182 -16.188 -21.863  0.00  0.00    -0.310 N 
ATOM     24  C   UNL     1      35.291 -17.355 -22.570  0.00  0.00    +0.088 C 
ATOM     25  C   UNL     1      34.587 -15.218 -22.639  0.00  0.00    +0.048 C 
ATOM     26  C   UNL     1      34.310 -15.796 -23.880  0.00  0.00    +0.015 C 
ATOM     27  C   UNL     1      34.760 -17.145 -23.821  0.00  0.00    +0.019 C 
ATOM     28  C   UNL     1      34.275 -13.887 -22.340  0.00  0.00    +0.015 C 
ATOM     29  C   UNL     1      33.693 -15.010 -24.872  0.00  0.00    +0.001 C 
ATOM     30  C   UNL     1      33.663 -13.126 -23.340  0.00  0.00    +0.001 C 
ATOM     31  C   UNL     1      33.376 -13.677 -24.587  0.00  0.00    +0.000 C 
ATOM     32  H   UNL     1      35.485 -16.059 -20.936  0.00  0.00    +0.152 HD
ENDBRANCH  22  24
ENDBRANCH   3  22
TORSDOF 4
ENDMDL
MODEL 8
REMARK VINA RESULT:     -10.7      3.893     11.356
REMARK  Name = 66555680
REMARK  4 active torsions:
REMARK  status: ('A' for Active; 'I' for Inactive)
REMARK    1  A    between atoms: N_1  and  C_8
REMARK    2  A    between atoms: C_3  and  C_22
REMARK    3  A    between atoms: C_4  and  N_18
REMARK    4  A    between atoms: C_22  and  C_24
REMARK                            x       y       z     vdW  Elec       q    Type
REMARK                         _______ _______ _______ _____ _____    ______ ____
ROOT
ATOM      1  N   UNL     1      32.987 -11.066 -22.912  0.00  0.00    -0.177 N 
ATOM      2  N   UNL     1      31.824 -10.882 -22.263  0.00  0.00    -0.171 NA
ATOM      3  C   UNL     1      32.989  -8.928 -22.467  0.00  0.00    +0.090 C 
ATOM      4  C   UNL     1      33.722  -9.926 -23.061  0.00  0.00    +0.122 C 
ATOM      5  C   UNL     1      31.832  -9.573 -21.994  0.00  0.00    +0.124 C 
ENDROOT
BRANCH   1   8
ATOM      6  N   UNL     1      34.755 -15.632 -22.375  0.00  0.00    -0.318 N 
ATOM      7  N   UNL     1      34.410 -16.185 -24.500  0.00  0.00    -0.318 N 
ATOM      8  C   UNL     1      33.329 -12.344 -23.358  0.00  0.00    +0.077 C 
ATOM      9  C   UNL     1      34.208 -14.519 -22.959  0.00  0.00    +0.060 C 
ATOM     10  C   UNL     1      33.885 -13.258 -22.457  0.00  0.00    +0.032 C 
ATOM     11  C   UNL     1      34.002 -14.889 -24.284  0.00  0.00    +0.059 C 
ATOM     12  C   UNL     1      33.110 -12.687 -24.694  0.00  0.00    +0.018 C 
ATOM     13  C   UNL     1      33.442 -13.959 -25.176  0.00  0.00    +0.017 C 
ATOM     14  C   UNL     1      34.855 -16.600 -23.335  0.00  0.00    +0.144 C 
ATOM     15  C   UNL     1      35.410 -17.931 -23.025  0.00  0.00    +0.044 C 
ATOM     16  H   UNL     1      35.026 -15.719 -21.432  0.00  0.00    +0.148 HD
ATOM     17  H   UNL     1      34.376 -16.693 -25.343  0.00  0.00    +0.148 HD
ENDBRANCH   1   8
BRANCH   4  18
ATOM     18  N   UNL     1      34.918  -9.920 -23.689  0.00  0.00    -0.344 N 
ATOM     19  H   UNL     1      35.003 -10.303 -24.592  0.00  0.00    +0.144 HD
ATOM     20  H   UNL     1      35.706  -9.533 -23.243  0.00  0.00    +0.144 HD
ENDBRANCH   4  18
BRANCH   3  22
ATOM     21  O   UNL     1      33.455  -7.016 -21.202  0.00  0.00    -0.285 OA
ATOM     22  C   UNL     1      33.374  -7.473 -22.366  0.00  0.00    +0.213 C 
BRANCH  22  24
ATOM     23  N   UNL     1      32.648  -6.092 -24.278  0.00  0.00    -0.310 N 
ATOM     24  C   UNL     1      33.631  -6.650 -23.506  0.00  0.00    +0.088 C 
ATOM     25  C   UNL     1      33.207  -5.356 -25.300  0.00  0.00    +0.048 C 
ATOM     26  C   UNL     1      34.594  -5.455 -25.166  0.00  0.00    +0.015 C 
ATOM     27  C   UNL     1      34.847  -6.274 -24.030  0.00  0.00    +0.019 C 
ATOM     28  C   UNL     1      32.598  -4.620 -26.321  0.00  0.00    +0.015 C 
ATOM     29  C   UNL     1      35.414  -4.785 -26.094  0.00  0.00    +0.001 C 
ATOM     30  C   UNL     1      33.431  -3.964 -27.230  0.00  0.00    +0.001 C 
ATOM     31  C   UNL     1      34.819  -4.044 -27.121  0.00  0.00    +0.000 C 
ATOM     32  H   UNL     1      31.682  -6.201 -24.126  0.00  0.00    +0.152 HD
ENDBRANCH  22  24
ENDBRANCH   3  22
TORSDOF 4
ENDMDL
MODEL 9
REMARK VINA RESULT:     -10.6      3.870     11.704
REMARK  Name = 66555680
REMARK  4 active torsions:
REMARK  status: ('A' for Active; 'I' for Inactive)
REMARK    1  A    between atoms: N_1  and  C_8
REMARK    2  A    between atoms: C_3  and  C_22
REMARK    3  A    between atoms: C_4  and  N_18
REMARK    4  A    between atoms: C_22  and  C_24
REMARK                            x       y       z     vdW  Elec       q    Type
REMARK                         _______ _______ _______ _____ _____    ______ ____
ROOT
ATOM      1  N   UNL     1      33.399 -10.754 -23.387  0.00  0.00    -0.177 N 
ATOM      2  N   UNL     1      32.275 -10.367 -22.760  0.00  0.00    -0.171 NA
ATOM      3  C   UNL     1      33.696  -8.610 -23.090  0.00  0.00    +0.090 C 
ATOM      4  C   UNL     1      34.284  -9.739 -23.609  0.00  0.00    +0.122 C 
ATOM      5  C   UNL     1      32.463  -9.057 -22.581  0.00  0.00    +0.124 C 
ENDROOT
BRANCH   1   8
ATOM      6  N   UNL     1      34.706 -15.434 -22.581  0.00  0.00    -0.318 N 
ATOM      7  N   UNL     1      34.118 -16.114 -24.615  0.00  0.00    -0.318 N 
ATOM      8  C   UNL     1      33.561 -12.094 -23.742  0.00  0.00    +0.077 C 
ATOM      9  C   UNL     1      34.233 -14.316 -23.219  0.00  0.00    +0.060 C 
ATOM     10  C   UNL     1      34.093 -12.990 -22.808  0.00  0.00    +0.032 C 
ATOM     11  C   UNL     1      33.872 -14.766 -24.485  0.00  0.00    +0.059 C 
ATOM     12  C   UNL     1      33.191 -12.516 -25.021  0.00  0.00    +0.018 C 
ATOM     13  C   UNL     1      33.340 -13.852 -25.411  0.00  0.00    +0.017 C 
ATOM     14  C   UNL     1      34.617 -16.482 -23.456  0.00  0.00    +0.144 C 
ATOM     15  C   UNL     1      35.049 -17.838 -23.072  0.00  0.00    +0.044 C 
ATOM     16  H   UNL     1      35.047 -15.476 -21.659  0.00  0.00    +0.148 HD
ATOM     17  H   UNL     1      33.956 -16.680 -25.404  0.00  0.00    +0.148 HD
ENDBRANCH   1   8
BRANCH   4  18
ATOM     18  N   UNL     1      35.467  -9.940 -24.227  0.00  0.00    -0.344 N 
ATOM     19  H   UNL     1      35.489 -10.268 -25.155  0.00  0.00    +0.144 HD
ATOM     20  H   UNL     1      36.309  -9.759 -23.750  0.00  0.00    +0.144 HD
ENDBRANCH   4  18
BRANCH   3  22
ATOM     21  O   UNL     1      35.447  -7.124 -22.647  0.00  0.00    -0.285 OA
ATOM     22  C   UNL     1      34.278  -7.218 -23.087  0.00  0.00    +0.213 C 
BRANCH  22  24
ATOM     23  N   UNL     1      32.773  -5.293 -22.743  0.00  0.00    -0.310 N 
ATOM     24  C   UNL     1      33.563  -6.070 -23.548  0.00  0.00    +0.088 C 
ATOM     25  C   UNL     1      32.219  -4.265 -23.473  0.00  0.00    +0.048 C 
ATOM     26  C   UNL     1      32.675  -4.399 -24.786  0.00  0.00    +0.015 C 
ATOM     27  C   UNL     1      33.522  -5.543 -24.818  0.00  0.00    +0.019 C 
ATOM     28  C   UNL     1      31.357  -3.237 -23.075  0.00  0.00    +0.015 C 
ATOM     29  C   UNL     1      32.253  -3.464 -25.749  0.00  0.00    +0.001 C 
ATOM     30  C   UNL     1      30.951  -2.321 -24.048  0.00  0.00    +0.001 C 
ATOM     31  C   UNL     1      31.391  -2.430 -25.366  0.00  0.00    +0.000 C 
ATOM     32  H   UNL     1      32.624  -5.447 -21.782  0.00  0.00    +0.152 HD
ENDBRANCH  22  24
ENDBRANCH   3  22
TORSDOF 4
ENDMDL
