MODEL 1
REMARK VINA RESULT:     -11.4      0.000      0.000
REMARK  Name = 445770
REMARK  5 active torsions:
REMARK  status: ('A' for Active; 'I' for Inactive)
REMARK    1  A    between atoms: N_2  and  C_17
REMARK    2  A    between atoms: C_3  and  C_5
REMARK    3  A    between atoms: C_6  and  S_11
REMARK    4  A    between atoms: S_11  and  N_14
REMARK    5  A    between atoms: C_17  and  C_23
REMARK                            x       y       z     vdW  Elec       q    Type
REMARK                         _______ _______ _______ _____ _____    ______ ____
ROOT
ATOM      1  O   UNL     1      37.276 -18.853 -21.211  0.00  0.00    -0.270 OA
ATOM      2  N   UNL     1      35.194 -18.163 -21.962  0.00  0.00    -0.297 N 
ATOM      3  C   UNL     1      36.038 -18.970 -21.190  0.00  0.00    +0.246 C 
ATOM      4  H   UNL     1      34.222 -18.310 -21.897  0.00  0.00    +0.150 HD
ENDROOT
BRANCH   3   5
ATOM      5  C   UNL     1      35.406 -19.989 -20.366  0.00  0.00    +0.053 C 
ATOM      6  C   UNL     1      34.194 -21.942 -18.787  0.00  0.00    +0.122 C 
ATOM      7  C   UNL     1      34.019 -20.138 -20.384  0.00  0.00    +0.006 C 
ATOM      8  C   UNL     1      36.187 -20.815 -19.558  0.00  0.00    +0.006 C 
ATOM      9  C   UNL     1      33.414 -21.115 -19.594  0.00  0.00    +0.020 C 
ATOM     10  C   UNL     1      35.581 -21.793 -18.769  0.00  0.00    +0.020 C 
BRANCH   6  11
ATOM     11  S   UNL     1      33.436 -23.166 -17.799  0.00  0.00    +0.057 S 
ATOM     12  O   UNL     1      33.585 -24.454 -18.462  0.00  0.00    -0.153 OA
ATOM     13  O   UNL     1      32.111 -22.696 -17.421  0.00  0.00    -0.153 OA
BRANCH  11  14
ATOM     14  N   UNL     1      34.444 -23.140 -16.419  0.00  0.00    -0.203 NA
ATOM     15  H   UNL     1      34.359 -24.025 -15.919  0.00  0.00    +0.144 HD
ATOM     16  H   UNL     1      34.161 -22.375 -15.806  0.00  0.00    +0.144 HD
ENDBRANCH  11  14
ENDBRANCH   6  11
ENDBRANCH   3   5
BRANCH   2  17
ATOM     17  C   UNL     1      35.671 -17.124 -22.847  0.00  0.00    +0.121 C 
BRANCH  17  23
ATOM     18  F   UNL     1      34.510 -15.991 -25.159  0.00  0.00    -0.202 F 
ATOM     19  F   UNL     1      35.048 -15.779 -20.446  0.00  0.00    -0.202 F 
ATOM     20  F   UNL     1      33.457 -13.567 -20.371  0.00  0.00    -0.199 F 
ATOM     21  F   UNL     1      32.917 -13.781 -25.071  0.00  0.00    -0.199 F 
ATOM     22  F   UNL     1      32.388 -12.565 -22.678  0.00  0.00    -0.199 F 
ATOM     23  C   UNL     1      34.792 -15.903 -22.803  0.00  0.00    +0.057 A 
ATOM     24  C   UNL     1      34.255 -15.403 -23.982  0.00  0.00    +0.170 A 
ATOM     25  C   UNL     1      34.529 -15.295 -21.584  0.00  0.00    +0.170 A 
ATOM     26  C   UNL     1      33.715 -14.164 -21.541  0.00  0.00    +0.197 A 
ATOM     27  C   UNL     1      33.441 -14.271 -23.940  0.00  0.00    +0.197 A 
ATOM     28  C   UNL     1      33.170 -13.651 -22.720  0.00  0.00    +0.199 A 
ENDBRANCH  17  23
ENDBRANCH   2  17
TORSDOF 5
ENDMDL
MODEL 2
REMARK VINA RESULT:     -11.4      0.046      2.338
REMARK  Name = 445770
REMARK  5 active torsions:
REMARK  status: ('A' for Active; 'I' for Inactive)
REMARK    1  A    between atoms: N_2  and  C_17
REMARK    2  A    between atoms: C_3  and  C_5
REMARK    3  A    between atoms: C_6  and  S_11
REMARK    4  A    between atoms: S_11  and  N_14
REMARK    5  A    between atoms: C_17  and  C_23
REMARK                            x       y       z     vdW  Elec       q    Type
REMARK                         _______ _______ _______ _____ _____    ______ ____
ROOT
ATOM      1  O   UNL     1      37.288 -18.879 -21.212  0.00  0.00    -0.270 OA
ATOM      2  N   UNL     1      35.204 -18.197 -21.963  0.00  0.00    -0.297 N 
ATOM      3  C   UNL     1      36.051 -18.996 -21.187  0.00  0.00    +0.246 C 
ATOM      4  H   UNL     1      34.232 -18.344 -21.896  0.00  0.00    +0.150 HD
ENDROOT
BRANCH   3   5
ATOM      5  C   UNL     1      35.421 -20.009 -20.353  0.00  0.00    +0.053 C 
ATOM      6  C   UNL     1      34.214 -21.950 -18.755  0.00  0.00    +0.122 C 
ATOM      7  C   UNL     1      36.204 -20.824 -19.536  0.00  0.00    +0.006 C 
ATOM      8  C   UNL     1      34.035 -20.164 -20.372  0.00  0.00    +0.006 C 
ATOM      9  C   UNL     1      35.600 -21.795 -18.737  0.00  0.00    +0.020 C 
ATOM     10  C   UNL     1      33.432 -21.135 -19.572  0.00  0.00    +0.020 C 
BRANCH   6  11
ATOM     11  S   UNL     1      33.459 -23.164 -17.753  0.00  0.00    +0.057 S 
ATOM     12  O   UNL     1      33.585 -24.455 -18.415  0.00  0.00    -0.153 OA
ATOM     13  O   UNL     1      32.143 -22.680 -17.358  0.00  0.00    -0.153 OA
BRANCH  11  14
ATOM     14  N   UNL     1      34.486 -23.145 -16.388  0.00  0.00    -0.203 NA
ATOM     15  H   UNL     1      33.938 -22.938 -15.553  0.00  0.00    +0.144 HD
ATOM     16  H   UNL     1      35.201 -22.428 -16.511  0.00  0.00    +0.144 HD
ENDBRANCH  11  14
ENDBRANCH   6  11
ENDBRANCH   3   5
BRANCH   2  17
ATOM     17  C   UNL     1      35.678 -17.165 -22.859  0.00  0.00    +0.121 C 
BRANCH  17  23
ATOM     18  F   UNL     1      35.102 -15.791 -20.460  0.00  0.00    -0.202 F 
ATOM     19  F   UNL     1      34.486 -16.050 -25.160  0.00  0.00    -0.202 F 
ATOM     20  F   UNL     1      32.907 -13.829 -25.069  0.00  0.00    -0.199 F 
ATOM     21  F   UNL     1      33.525 -13.569 -20.381  0.00  0.00    -0.199 F 
ATOM     22  F   UNL     1      32.425 -12.585 -22.684  0.00  0.00    -0.199 F 
ATOM     23  C   UNL     1      34.807 -15.938 -22.811  0.00  0.00    +0.057 A 
ATOM     24  C   UNL     1      34.568 -15.315 -21.593  0.00  0.00    +0.170 A 
ATOM     25  C   UNL     1      34.255 -15.447 -23.985  0.00  0.00    +0.170 A 
ATOM     26  C   UNL     1      33.448 -14.311 -23.943  0.00  0.00    +0.197 A 
ATOM     27  C   UNL     1      33.761 -14.179 -21.550  0.00  0.00    +0.197 A 
ATOM     28  C   UNL     1      33.200 -13.676 -22.725  0.00  0.00    +0.199 A 
ENDBRANCH  17  23
ENDBRANCH   2  17
TORSDOF 5
ENDMDL
MODEL 3
REMARK VINA RESULT:     -10.7      4.392      6.677
REMARK  Name = 445770
REMARK  5 active torsions:
REMARK  status: ('A' for Active; 'I' for Inactive)
REMARK    1  A    between atoms: N_2  and  C_17
REMARK    2  A    between atoms: C_3  and  C_5
REMARK    3  A    between atoms: C_6  and  S_11
REMARK    4  A    between atoms: S_11  and  N_14
REMARK    5  A    between atoms: C_17  and  C_23
REMARK                            x       y       z     vdW  Elec       q    Type
REMARK                         _______ _______ _______ _____ _____    ______ ____
ROOT
ATOM      1  O   UNL     1      32.915 -13.782 -25.623  0.00  0.00    -0.270 OA
ATOM      2  N   UNL     1      33.804 -12.327 -24.053  0.00  0.00    -0.297 N 
ATOM      3  C   UNL     1      33.563 -13.602 -24.577  0.00  0.00    +0.246 C 
ATOM      4  H   UNL     1      34.324 -12.256 -23.219  0.00  0.00    +0.150 HD
ENDROOT
BRANCH   3   5
ATOM      5  C   UNL     1      34.085 -14.734 -23.826  0.00  0.00    +0.053 C 
ATOM      6  C   UNL     1      35.084 -16.904 -22.388  0.00  0.00    +0.122 C 
ATOM      7  C   UNL     1      34.355 -14.602 -22.464  0.00  0.00    +0.006 C 
ATOM      8  C   UNL     1      34.314 -15.950 -24.470  0.00  0.00    +0.006 C 
ATOM      9  C   UNL     1      34.855 -15.688 -21.745  0.00  0.00    +0.020 C 
ATOM     10  C   UNL     1      34.813 -17.036 -23.749  0.00  0.00    +0.020 C 
BRANCH   6  11
ATOM     11  S   UNL     1      35.709 -18.263 -21.487  0.00  0.00    +0.057 S 
ATOM     12  O   UNL     1      34.830 -19.405 -21.703  0.00  0.00    -0.153 OA
ATOM     13  O   UNL     1      36.000 -17.821 -20.131  0.00  0.00    -0.153 OA
BRANCH  11  14
ATOM     14  N   UNL     1      37.184 -18.544 -22.303  0.00  0.00    -0.203 NA
ATOM     15  H   UNL     1      37.278 -19.540 -22.501  0.00  0.00    +0.144 HD
ATOM     16  H   UNL     1      37.960 -18.239 -21.716  0.00  0.00    +0.144 HD
ENDBRANCH  11  14
ENDBRANCH   6  11
ENDBRANCH   3   5
BRANCH   2  17
ATOM     17  C   UNL     1      33.331 -11.107 -24.669  0.00  0.00    +0.121 C 
BRANCH  17  23
ATOM     18  F   UNL     1      31.505 -10.802 -22.536  0.00  0.00    -0.202 F 
ATOM     19  F   UNL     1      35.253  -9.051 -24.866  0.00  0.00    -0.202 F 
ATOM     20  F   UNL     1      35.334  -6.943 -23.138  0.00  0.00    -0.199 F 
ATOM     21  F   UNL     1      31.598  -8.692 -20.812  0.00  0.00    -0.199 F 
ATOM     22  F   UNL     1      33.510  -6.760 -21.110  0.00  0.00    -0.199 F 
ATOM     23  C   UNL     1      33.378  -9.944 -23.715  0.00  0.00    +0.057 A 
ATOM     24  C   UNL     1      32.446  -9.861 -22.689  0.00  0.00    +0.170 A 
ATOM     25  C   UNL     1      34.354  -8.969 -23.875  0.00  0.00    +0.170 A 
ATOM     26  C   UNL     1      34.399  -7.890 -22.992  0.00  0.00    +0.197 A 
ATOM     27  C   UNL     1      32.491  -8.782 -21.807  0.00  0.00    +0.197 A 
ATOM     28  C   UNL     1      33.467  -7.796 -21.957  0.00  0.00    +0.199 A 
ENDBRANCH  17  23
ENDBRANCH   2  17
TORSDOF 5
ENDMDL
MODEL 4
REMARK VINA RESULT:     -10.7      4.384      6.537
REMARK  Name = 445770
REMARK  5 active torsions:
REMARK  status: ('A' for Active; 'I' for Inactive)
REMARK    1  A    between atoms: N_2  and  C_17
REMARK    2  A    between atoms: C_3  and  C_5
REMARK    3  A    between atoms: C_6  and  S_11
REMARK    4  A    between atoms: S_11  and  N_14
REMARK    5  A    between atoms: C_17  and  C_23
REMARK                            x       y       z     vdW  Elec       q    Type
REMARK                         _______ _______ _______ _____ _____    ______ ____
ROOT
ATOM      1  O   UNL     1      32.917 -13.797 -25.618  0.00  0.00    -0.270 OA
ATOM      2  N   UNL     1      33.805 -12.336 -24.053  0.00  0.00    -0.297 N 
ATOM      3  C   UNL     1      33.565 -13.613 -24.573  0.00  0.00    +0.246 C 
ATOM      4  H   UNL     1      34.325 -12.263 -23.219  0.00  0.00    +0.150 HD
ENDROOT
BRANCH   3   5
ATOM      5  C   UNL     1      34.087 -14.742 -23.819  0.00  0.00    +0.053 C 
ATOM      6  C   UNL     1      35.089 -16.908 -22.375  0.00  0.00    +0.122 C 
ATOM      7  C   UNL     1      34.354 -14.608 -22.457  0.00  0.00    +0.006 C 
ATOM      8  C   UNL     1      34.322 -15.959 -24.460  0.00  0.00    +0.006 C 
ATOM      9  C   UNL     1      34.855 -15.691 -21.735  0.00  0.00    +0.020 C 
ATOM     10  C   UNL     1      34.823 -17.042 -23.737  0.00  0.00    +0.020 C 
BRANCH   6  11
ATOM     11  S   UNL     1      35.715 -18.264 -21.471  0.00  0.00    +0.057 S 
ATOM     12  O   UNL     1      34.841 -19.408 -21.687  0.00  0.00    -0.153 OA
ATOM     13  O   UNL     1      36.002 -17.819 -20.114  0.00  0.00    -0.153 OA
BRANCH  11  14
ATOM     14  N   UNL     1      37.193 -18.542 -22.283  0.00  0.00    -0.203 NA
ATOM     15  H   UNL     1      37.909 -18.802 -21.605  0.00  0.00    +0.144 HD
ATOM     16  H   UNL     1      37.478 -17.692 -22.770  0.00  0.00    +0.144 HD
ENDBRANCH  11  14
ENDBRANCH   6  11
ENDBRANCH   3   5
BRANCH   2  17
ATOM     17  C   UNL     1      33.331 -11.118 -24.672  0.00  0.00    +0.121 C 
BRANCH  17  23
ATOM     18  F   UNL     1      35.247  -9.055 -24.887  0.00  0.00    -0.202 F 
ATOM     19  F   UNL     1      31.519 -10.813 -22.531  0.00  0.00    -0.202 F 
ATOM     20  F   UNL     1      31.616  -8.699 -20.812  0.00  0.00    -0.199 F 
ATOM     21  F   UNL     1      35.332  -6.943 -23.165  0.00  0.00    -0.199 F 
ATOM     22  F   UNL     1      33.519  -6.761 -21.126  0.00  0.00    -0.199 F 
ATOM     23  C   UNL     1      33.382  -9.951 -23.723  0.00  0.00    +0.057 A 
ATOM     24  C   UNL     1      34.353  -8.973 -23.892  0.00  0.00    +0.170 A 
ATOM     25  C   UNL     1      32.456  -9.869 -22.692  0.00  0.00    +0.170 A 
ATOM     26  C   UNL     1      32.502  -8.788 -21.812  0.00  0.00    +0.197 A 
ATOM     27  C   UNL     1      34.400  -7.893 -23.011  0.00  0.00    +0.197 A 
ATOM     28  C   UNL     1      33.475  -7.799 -21.971  0.00  0.00    +0.199 A 
ENDBRANCH  17  23
ENDBRANCH   2  17
TORSDOF 5
ENDMDL
MODEL 5
REMARK VINA RESULT:     -10.3      6.461     10.461
REMARK  Name = 445770
REMARK  5 active torsions:
REMARK  status: ('A' for Active; 'I' for Inactive)
REMARK    1  A    between atoms: N_2  and  C_17
REMARK    2  A    between atoms: C_3  and  C_5
REMARK    3  A    between atoms: C_6  and  S_11
REMARK    4  A    between atoms: S_11  and  N_14
REMARK    5  A    between atoms: C_17  and  C_23
REMARK                            x       y       z     vdW  Elec       q    Type
REMARK                         _______ _______ _______ _____ _____    ______ ____
ROOT
ATOM      1  O   UNL     1      33.443 -24.043 -18.161  0.00  0.00    -0.270 OA
ATOM      2  N   UNL     1      34.300 -22.918 -16.325  0.00  0.00    -0.297 N 
ATOM      3  C   UNL     1      34.052 -23.064 -17.694  0.00  0.00    +0.246 C 
ATOM      4  H   UNL     1      34.790 -22.117 -16.023  0.00  0.00    +0.150 HD
ENDROOT
BRANCH   3   5
ATOM      5  C   UNL     1      34.565 -22.025 -18.574  0.00  0.00    +0.053 C 
ATOM      6  C   UNL     1      35.549 -20.033 -20.260  0.00  0.00    +0.122 C 
ATOM      7  C   UNL     1      33.685 -21.273 -19.352  0.00  0.00    +0.006 C 
ATOM      8  C   UNL     1      35.937 -21.782 -18.638  0.00  0.00    +0.006 C 
ATOM      9  C   UNL     1      34.177 -20.277 -20.195  0.00  0.00    +0.020 C 
ATOM     10  C   UNL     1      36.429 -20.785 -19.481  0.00  0.00    +0.020 C 
BRANCH   6  11
ATOM     11  S   UNL     1      36.165 -18.785 -21.314  0.00  0.00    +0.057 S 
ATOM     12  O   UNL     1      35.491 -18.891 -22.600  0.00  0.00    -0.153 OA
ATOM     13  O   UNL     1      37.620 -18.811 -21.256  0.00  0.00    -0.153 OA
BRANCH  11  14
ATOM     14  N   UNL     1      35.607 -17.381 -20.516  0.00  0.00    -0.203 NA
ATOM     15  H   UNL     1      36.357 -16.691 -20.479  0.00  0.00    +0.144 HD
ATOM     16  H   UNL     1      35.318 -17.621 -19.568  0.00  0.00    +0.144 HD
ENDBRANCH  11  14
ENDBRANCH   6  11
ENDBRANCH   3   5
BRANCH   2  17
ATOM     17  C   UNL     1      33.876 -23.876 -15.328  0.00  0.00    +0.121 C 
BRANCH  17  23
ATOM     18  F   UNL     1      33.241 -24.519 -12.653  0.00  0.00    -0.202 F 
ATOM     19  F   UNL     1      36.640 -23.649 -15.851  0.00  0.00    -0.202 F 
ATOM     20  F   UNL     1      38.536 -24.020 -13.927  0.00  0.00    -0.199 F 
ATOM     21  F   UNL     1      35.146 -24.892 -10.738  0.00  0.00    -0.199 F 
ATOM     22  F   UNL     1      37.794 -24.642 -11.372  0.00  0.00    -0.199 F 
ATOM     23  C   UNL     1      34.925 -24.081 -14.268  0.00  0.00    +0.057 A 
ATOM     24  C   UNL     1      34.536 -24.397 -12.972  0.00  0.00    +0.170 A 
ATOM     25  C   UNL     1      36.266 -23.953 -14.600  0.00  0.00    +0.170 A 
ATOM     26  C   UNL     1      37.239 -24.143 -13.619  0.00  0.00    +0.197 A 
ATOM     27  C   UNL     1      35.509 -24.586 -11.991  0.00  0.00    +0.197 A 
ATOM     28  C   UNL     1      36.860 -24.460 -12.314  0.00  0.00    +0.199 A 
ENDBRANCH  17  23
ENDBRANCH   2  17
TORSDOF 5
ENDMDL
MODEL 6
REMARK VINA RESULT:     -10.3      6.466     10.338
REMARK  Name = 445770
REMARK  5 active torsions:
REMARK  status: ('A' for Active; 'I' for Inactive)
REMARK    1  A    between atoms: N_2  and  C_17
REMARK    2  A    between atoms: C_3  and  C_5
REMARK    3  A    between atoms: C_6  and  S_11
REMARK    4  A    between atoms: S_11  and  N_14
REMARK    5  A    between atoms: C_17  and  C_23
REMARK                            x       y       z     vdW  Elec       q    Type
REMARK                         _______ _______ _______ _____ _____    ______ ____
ROOT
ATOM      1  O   UNL     1      33.443 -24.043 -18.156  0.00  0.00    -0.270 OA
ATOM      2  N   UNL     1      34.302 -22.917 -16.321  0.00  0.00    -0.297 N 
ATOM      3  C   UNL     1      34.052 -23.064 -17.690  0.00  0.00    +0.246 C 
ATOM      4  H   UNL     1      34.792 -22.117 -16.020  0.00  0.00    +0.150 HD
ENDROOT
BRANCH   3   5
ATOM      5  C   UNL     1      34.564 -22.026 -18.571  0.00  0.00    +0.053 C 
ATOM      6  C   UNL     1      35.547 -20.034 -20.259  0.00  0.00    +0.122 C 
ATOM      7  C   UNL     1      33.684 -21.276 -19.350  0.00  0.00    +0.006 C 
ATOM      8  C   UNL     1      35.936 -21.781 -18.635  0.00  0.00    +0.006 C 
ATOM      9  C   UNL     1      34.175 -20.281 -20.195  0.00  0.00    +0.020 C 
ATOM     10  C   UNL     1      36.427 -20.784 -19.479  0.00  0.00    +0.020 C 
BRANCH   6  11
ATOM     11  S   UNL     1      36.162 -18.787 -21.314  0.00  0.00    +0.057 S 
ATOM     12  O   UNL     1      35.488 -18.895 -22.600  0.00  0.00    -0.153 OA
ATOM     13  O   UNL     1      37.616 -18.811 -21.256  0.00  0.00    -0.153 OA
BRANCH  11  14
ATOM     14  N   UNL     1      35.602 -17.382 -20.518  0.00  0.00    -0.203 NA
ATOM     15  H   UNL     1      34.961 -17.647 -19.771  0.00  0.00    +0.144 HD
ATOM     16  H   UNL     1      35.118 -16.783 -21.187  0.00  0.00    +0.144 HD
ENDBRANCH  11  14
ENDBRANCH   6  11
ENDBRANCH   3   5
BRANCH   2  17
ATOM     17  C   UNL     1      33.879 -23.874 -15.324  0.00  0.00    +0.121 C 
BRANCH  17  23
ATOM     18  F   UNL     1      36.645 -23.668 -15.857  0.00  0.00    -0.202 F 
ATOM     19  F   UNL     1      33.249 -24.508 -12.647  0.00  0.00    -0.202 F 
ATOM     20  F   UNL     1      35.158 -24.892 -10.738  0.00  0.00    -0.199 F 
ATOM     21  F   UNL     1      38.545 -24.049 -13.939  0.00  0.00    -0.199 F 
ATOM     22  F   UNL     1      37.805 -24.662 -11.379  0.00  0.00    -0.199 F 
ATOM     23  C   UNL     1      34.932 -24.085 -14.268  0.00  0.00    +0.057 A 
ATOM     24  C   UNL     1      36.273 -23.966 -14.605  0.00  0.00    +0.170 A 
ATOM     25  C   UNL     1      34.545 -24.394 -12.971  0.00  0.00    +0.170 A 
ATOM     26  C   UNL     1      35.519 -24.590 -11.992  0.00  0.00    +0.197 A 
ATOM     27  C   UNL     1      37.247 -24.162 -13.626  0.00  0.00    +0.197 A 
ATOM     28  C   UNL     1      36.871 -24.474 -12.319  0.00  0.00    +0.199 A 
ENDBRANCH  17  23
ENDBRANCH   2  17
TORSDOF 5
ENDMDL
MODEL 7
REMARK VINA RESULT:     -10.2      9.282     11.215
REMARK  Name = 445770
REMARK  5 active torsions:
REMARK  status: ('A' for Active; 'I' for Inactive)
REMARK    1  A    between atoms: N_2  and  C_17
REMARK    2  A    between atoms: C_3  and  C_5
REMARK    3  A    between atoms: C_6  and  S_11
REMARK    4  A    between atoms: S_11  and  N_14
REMARK    5  A    between atoms: C_17  and  C_23
REMARK                            x       y       z     vdW  Elec       q    Type
REMARK                         _______ _______ _______ _____ _____    ______ ____
ROOT
ATOM      1  O   UNL     1      34.828 -25.018 -10.850  0.00  0.00    -0.270 OA
ATOM      2  N   UNL     1      34.226 -23.959 -12.822  0.00  0.00    -0.297 N 
ATOM      3  C   UNL     1      35.117 -24.666 -12.007  0.00  0.00    +0.246 C 
ATOM      4  H   UNL     1      34.520 -23.711 -13.729  0.00  0.00    +0.150 HD
ENDROOT
BRANCH   3   5
ATOM      5  C   UNL     1      36.430 -24.958 -12.562  0.00  0.00    +0.053 C 
ATOM      6  C   UNL     1      38.947 -25.518 -13.625  0.00  0.00    +0.122 C 
ATOM      7  C   UNL     1      36.844 -24.334 -13.738  0.00  0.00    +0.006 C 
ATOM      8  C   UNL     1      37.273 -25.863 -11.917  0.00  0.00    +0.006 C 
ATOM      9  C   UNL     1      38.103 -24.614 -14.270  0.00  0.00    +0.020 C 
ATOM     10  C   UNL     1      38.533 -26.142 -12.449  0.00  0.00    +0.020 C 
BRANCH   6  11
ATOM     11  S   UNL     1      40.523 -25.868 -14.290  0.00  0.00    +0.057 S 
ATOM     12  O   UNL     1      41.137 -26.923 -13.495  0.00  0.00    -0.153 OA
ATOM     13  O   UNL     1      41.229 -24.610 -14.488  0.00  0.00    -0.153 OA
BRANCH  11  14
ATOM     14  N   UNL     1      40.098 -26.507 -15.816  0.00  0.00    -0.203 NA
ATOM     15  H   UNL     1      39.103 -26.360 -15.981  0.00  0.00    +0.144 HD
ATOM     16  H   UNL     1      40.302 -27.506 -15.835  0.00  0.00    +0.144 HD
ENDBRANCH  11  14
ENDBRANCH   6  11
ENDBRANCH   3   5
BRANCH   2  17
ATOM     17  C   UNL     1      32.896 -23.574 -12.406  0.00  0.00    +0.121 C 
BRANCH  17  23
ATOM     18  F   UNL     1      30.423 -24.901 -12.094  0.00  0.00    -0.202 F 
ATOM     19  F   UNL     1      33.344 -22.526 -14.988  0.00  0.00    -0.202 F 
ATOM     20  F   UNL     1      31.534 -22.780 -17.012  0.00  0.00    -0.199 F 
ATOM     21  F   UNL     1      28.619 -25.145 -14.124  0.00  0.00    -0.199 F 
ATOM     22  F   UNL     1      29.172 -24.086 -16.585  0.00  0.00    -0.199 F 
ATOM     23  C   UNL     1      31.898 -23.711 -13.525  0.00  0.00    +0.057 A 
ATOM     24  C   UNL     1      30.701 -24.378 -13.296  0.00  0.00    +0.170 A 
ATOM     25  C   UNL     1      32.188 -23.169 -14.769  0.00  0.00    +0.170 A 
ATOM     26  C   UNL     1      31.264 -23.296 -15.806  0.00  0.00    +0.197 A 
ATOM     27  C   UNL     1      29.778 -24.505 -14.333  0.00  0.00    +0.197 A 
ATOM     28  C   UNL     1      30.058 -23.965 -15.589  0.00  0.00    +0.199 A 
ENDBRANCH  17  23
ENDBRANCH   2  17
TORSDOF 5
ENDMDL
MODEL 8
REMARK VINA RESULT:     -10.1      9.159     11.049
REMARK  Name = 445770
REMARK  5 active torsions:
REMARK  status: ('A' for Active; 'I' for Inactive)
REMARK    1  A    between atoms: N_2  and  C_17
REMARK    2  A    between atoms: C_3  and  C_5
REMARK    3  A    between atoms: C_6  and  S_11
REMARK    4  A    between atoms: S_11  and  N_14
REMARK    5  A    between atoms: C_17  and  C_23
REMARK                            x       y       z     vdW  Elec       q    Type
REMARK                         _______ _______ _______ _____ _____    ______ ____
ROOT
ATOM      1  O   UNL     1      34.853 -25.036 -10.878  0.00  0.00    -0.270 OA
ATOM      2  N   UNL     1      34.240 -24.000 -12.859  0.00  0.00    -0.297 N 
ATOM      3  C   UNL     1      35.138 -24.692 -12.039  0.00  0.00    +0.246 C 
ATOM      4  H   UNL     1      34.530 -23.758 -13.768  0.00  0.00    +0.150 HD
ENDROOT
BRANCH   3   5
ATOM      5  C   UNL     1      36.452 -24.978 -12.592  0.00  0.00    +0.053 C 
ATOM      6  C   UNL     1      38.973 -25.525 -13.655  0.00  0.00    +0.122 C 
ATOM      7  C   UNL     1      37.299 -25.880 -11.949  0.00  0.00    +0.006 C 
ATOM      8  C   UNL     1      36.865 -24.348 -13.767  0.00  0.00    +0.006 C 
ATOM      9  C   UNL     1      38.559 -26.153 -12.480  0.00  0.00    +0.020 C 
ATOM     10  C   UNL     1      38.126 -24.623 -14.298  0.00  0.00    +0.020 C 
BRANCH   6  11
ATOM     11  S   UNL     1      40.550 -25.869 -14.320  0.00  0.00    +0.057 S 
ATOM     12  O   UNL     1      41.170 -26.917 -13.523  0.00  0.00    -0.153 OA
ATOM     13  O   UNL     1      41.247 -24.607 -14.524  0.00  0.00    -0.153 OA
BRANCH  11  14
ATOM     14  N   UNL     1      40.126 -26.516 -15.844  0.00  0.00    -0.203 NA
ATOM     15  H   UNL     1      40.738 -26.127 -16.561  0.00  0.00    +0.144 HD
ATOM     16  H   UNL     1      39.157 -26.277 -16.057  0.00  0.00    +0.144 HD
ENDBRANCH  11  14
ENDBRANCH   6  11
ENDBRANCH   3   5
BRANCH   2  17
ATOM     17  C   UNL     1      32.907 -23.623 -12.444  0.00  0.00    +0.121 C 
BRANCH  17  23
ATOM     18  F   UNL     1      33.491 -22.573 -15.000  0.00  0.00    -0.202 F 
ATOM     19  F   UNL     1      30.339 -24.770 -12.211  0.00  0.00    -0.202 F 
ATOM     20  F   UNL     1      28.572 -24.853 -14.285  0.00  0.00    -0.199 F 
ATOM     21  F   UNL     1      31.717 -22.665 -17.068  0.00  0.00    -0.199 F 
ATOM     22  F   UNL     1      29.256 -23.804 -16.714  0.00  0.00    -0.199 F 
ATOM     23  C   UNL     1      31.930 -23.671 -13.589  0.00  0.00    +0.057 A 
ATOM     24  C   UNL     1      32.288 -23.134 -14.818  0.00  0.00    +0.170 A 
ATOM     25  C   UNL     1      30.684 -24.252 -13.398  0.00  0.00    +0.170 A 
ATOM     26  C   UNL     1      29.778 -24.297 -14.458  0.00  0.00    +0.197 A 
ATOM     27  C   UNL     1      31.382 -23.179 -15.877  0.00  0.00    +0.197 A 
ATOM     28  C   UNL     1      30.126 -23.760 -15.698  0.00  0.00    +0.199 A 
ENDBRANCH  17  23
ENDBRANCH   2  17
TORSDOF 5
ENDMDL
MODEL 9
REMARK VINA RESULT:      -9.9      4.916      7.511
REMARK  Name = 445770
REMARK  5 active torsions:
REMARK  status: ('A' for Active; 'I' for Inactive)
REMARK    1  A    between atoms: N_2  and  C_17
REMARK    2  A    between atoms: C_3  and  C_5
REMARK    3  A    between atoms: C_6  and  S_11
REMARK    4  A    between atoms: S_11  and  N_14
REMARK    5  A    between atoms: C_17  and  C_23
REMARK                            x       y       z     vdW  Elec       q    Type
REMARK                         _______ _______ _______ _____ _____    ______ ____
ROOT
ATOM      1  O   UNL     1      31.964 -23.585 -15.857  0.00  0.00    -0.270 OA
ATOM      2  N   UNL     1      33.868 -22.920 -16.998  0.00  0.00    -0.297 N 
ATOM      3  C   UNL     1      33.200 -23.454 -15.891  0.00  0.00    +0.246 C 
ATOM      4  H   UNL     1      34.850 -22.844 -16.958  0.00  0.00    +0.150 HD
ENDROOT
BRANCH   3   5
ATOM      5  C   UNL     1      34.015 -23.834 -14.747  0.00  0.00    +0.053 C 
ATOM      6  C   UNL     1      35.578 -24.561 -12.554  0.00  0.00    +0.122 C 
ATOM      7  C   UNL     1      33.432 -23.956 -13.486  0.00  0.00    +0.006 C 
ATOM      8  C   UNL     1      35.379 -24.075 -14.913  0.00  0.00    +0.006 C 
ATOM      9  C   UNL     1      34.214 -24.319 -12.389  0.00  0.00    +0.020 C 
ATOM     10  C   UNL     1      36.160 -24.439 -13.816  0.00  0.00    +0.020 C 
BRANCH   6  11
ATOM     11  S   UNL     1      36.556 -25.018 -11.182  0.00  0.00    +0.057 S 
ATOM     12  O   UNL     1      37.461 -23.919 -10.873  0.00  0.00    -0.153 OA
ATOM     13  O   UNL     1      37.092 -26.350 -11.423  0.00  0.00    -0.153 OA
BRANCH  11  14
ATOM     14  N   UNL     1      35.371 -25.115  -9.955  0.00  0.00    -0.203 NA
ATOM     15  H   UNL     1      35.825 -25.117  -9.043  0.00  0.00    +0.144 HD
ATOM     16  H   UNL     1      34.833 -25.974 -10.069  0.00  0.00    +0.144 HD
ENDBRANCH  11  14
ENDBRANCH   6  11
ENDBRANCH   3   5
BRANCH   2  17
ATOM     17  C   UNL     1      33.197 -22.476 -18.199  0.00  0.00    +0.121 C 
BRANCH  17  23
ATOM     18  F   UNL     1      35.984 -22.267 -17.789  0.00  0.00    -0.202 F 
ATOM     19  F   UNL     1      32.206 -20.901 -20.321  0.00  0.00    -0.202 F 
ATOM     20  F   UNL     1      33.812 -19.309 -21.844  0.00  0.00    -0.199 F 
ATOM     21  F   UNL     1      37.580 -20.674 -19.322  0.00  0.00    -0.199 F 
ATOM     22  F   UNL     1      36.497 -19.193 -21.350  0.00  0.00    -0.199 F 
ATOM     23  C   UNL     1      34.082 -21.597 -19.042  0.00  0.00    +0.057 A 
ATOM     24  C   UNL     1      35.445 -21.546 -18.782  0.00  0.00    +0.170 A 
ATOM     25  C   UNL     1      33.522 -20.850 -20.070  0.00  0.00    +0.170 A 
ATOM     26  C   UNL     1      34.341 -20.036 -20.852  0.00  0.00    +0.197 A 
ATOM     27  C   UNL     1      36.263 -20.731 -19.563  0.00  0.00    +0.197 A 
ATOM     28  C   UNL     1      35.712 -19.976 -20.599  0.00  0.00    +0.199 A 
ENDBRANCH  17  23
ENDBRANCH   2  17
TORSDOF 5
ENDMDL
