MODEL 1
REMARK VINA RESULT:     -12.4      0.000      0.000
REMARK  Name = 49866474
REMARK  7 active torsions:
REMARK  status: ('A' for Active; 'I' for Inactive)
REMARK    1  A    between atoms: O_1  and  C_3
REMARK    2  A    between atoms: O_1  and  C_18
REMARK    3  A    between atoms: C_4  and  C_10
REMARK    4  A    between atoms: C_18  and  C_19
REMARK    5  A    between atoms: C_19  and  N_20
REMARK    6  A    between atoms: C_19  and  C_24
REMARK    7  A    between atoms: C_24  and  C_26
REMARK                            x       y       z     vdW  Elec       q    Type
REMARK                         _______ _______ _______ _____ _____    ______ ____
ROOT
ATOM      1  O   UNL     1      35.151 -15.195 -23.158  0.00  0.00    -0.476 OA
ENDROOT
BRANCH   1   3
ATOM      2  N   UNL     1      34.166 -18.450 -24.508  0.00  0.00    -0.239 NA
ATOM      3  C   UNL     1      34.915 -16.543 -23.223  0.00  0.00    +0.158 C 
ATOM      4  C   UNL     1      34.919 -18.734 -22.228  0.00  0.00    +0.022 C 
ATOM      5  C   UNL     1      35.166 -17.369 -22.132  0.00  0.00    +0.040 C 
ATOM      6  C   UNL     1      34.420 -17.128 -24.377  0.00  0.00    +0.136 C 
ATOM      7  C   UNL     1      34.423 -19.220 -23.427  0.00  0.00    +0.099 C 
BRANCH   4  10
ATOM      8  N   UNL     1      35.600 -22.181 -17.947  0.00  0.00    -0.236 N 
ATOM      9  N   UNL     1      34.366 -22.660 -17.715  0.00  0.00    -0.180 NA
ATOM     10  C   UNL     1      35.170 -19.616 -21.113  0.00  0.00    +0.002 C 
ATOM     11  C   UNL     1      34.372 -21.186 -19.466  0.00  0.00    +0.035 C 
ATOM     12  C   UNL     1      34.106 -20.334 -20.550  0.00  0.00    +0.003 C 
ATOM     13  C   UNL     1      35.672 -21.292 -18.984  0.00  0.00    +0.067 C 
ATOM     14  C   UNL     1      36.465 -19.742 -20.610  0.00  0.00    +0.001 C 
ATOM     15  C   UNL     1      36.745 -20.585 -19.531  0.00  0.00    +0.016 C 
ATOM     16  C   UNL     1      33.622 -22.052 -18.641  0.00  0.00    +0.119 C 
ATOM     17  H   UNL     1      36.385 -22.448 -17.417  0.00  0.00    +0.174 HD
ENDBRANCH   4  10
ENDBRANCH   1   3
BRANCH   1  18
ATOM     18  C   UNL     1      34.386 -14.454 -22.216  0.00  0.00    +0.184 C 
BRANCH  18  19
ATOM     19  C   UNL     1      33.584 -13.355 -22.923  0.00  0.00    -0.017 C 
BRANCH  19  20
ATOM     20  N   UNL     1      33.025 -13.916 -24.156  0.00  0.00    +0.384 N 
ATOM     21  H   UNL     1      33.421 -14.842 -24.320  0.00  0.00    -0.089 HD
ATOM     22  H   UNL     1      33.251 -13.306 -24.941  0.00  0.00    -0.089 HD
ATOM     23  H   UNL     1      32.011 -13.992 -24.066  0.00  0.00    -0.089 HD
ENDBRANCH  19  20
BRANCH  19  24
ATOM     24  C   UNL     1      32.432 -12.790 -22.057  0.00  0.00    +0.006 C 
BRANCH  24  26
ATOM     25  N   UNL     1      32.726  -9.197 -23.116  0.00  0.00    -0.234 NA
ATOM     26  C   UNL     1      32.252 -11.329 -22.151  0.00  0.00    -0.024 C 
ATOM     27  C   UNL     1      31.829 -10.395 -21.299  0.00  0.00    +0.065 C 
ATOM     28  C   UNL     1      31.916  -9.018 -21.893  0.00  0.00    +0.122 C 
ATOM     29  C   UNL     1      32.798 -10.492 -23.228  0.00  0.00    +0.072 C 
ATOM     30  C   UNL     1      31.479 -10.512 -19.906  0.00  0.00    -0.020 C 
ATOM     31  C   UNL     1      32.473  -8.024 -20.914  0.00  0.00    -0.004 C 
ATOM     32  C   UNL     1      31.714  -9.464 -19.095  0.00  0.00    -0.004 C 
ATOM     33  C   UNL     1      32.346  -8.248 -19.592  0.00  0.00    -0.003 C 
ENDBRANCH  24  26
ENDBRANCH  19  24
ENDBRANCH  18  19
ENDBRANCH   1  18
TORSDOF 7
ENDMDL
MODEL 2
REMARK VINA RESULT:     -12.4      1.699     10.045
REMARK  Name = 49866474
REMARK  7 active torsions:
REMARK  status: ('A' for Active; 'I' for Inactive)
REMARK    1  A    between atoms: O_1  and  C_3
REMARK    2  A    between atoms: O_1  and  C_18
REMARK    3  A    between atoms: C_4  and  C_10
REMARK    4  A    between atoms: C_18  and  C_19
REMARK    5  A    between atoms: C_19  and  N_20
REMARK    6  A    between atoms: C_19  and  C_24
REMARK    7  A    between atoms: C_24  and  C_26
REMARK                            x       y       z     vdW  Elec       q    Type
REMARK                         _______ _______ _______ _____ _____    ______ ____
ROOT
ATOM      1  O   UNL     1      35.707 -16.996 -22.312  0.00  0.00    -0.476 OA
ENDROOT
BRANCH   1   3
ATOM      2  N   UNL     1      33.919 -15.708 -25.233  0.00  0.00    -0.239 NA
ATOM      3  C   UNL     1      34.946 -16.165 -23.092  0.00  0.00    +0.158 C 
ATOM      4  C   UNL     1      33.662 -14.153 -23.399  0.00  0.00    +0.022 C 
ATOM      5  C   UNL     1      34.432 -14.976 -22.584  0.00  0.00    +0.040 C 
ATOM      6  C   UNL     1      34.663 -16.482 -24.411  0.00  0.00    +0.136 C 
ATOM      7  C   UNL     1      33.437 -14.561 -24.704  0.00  0.00    +0.099 C 
BRANCH   4  10
ATOM      8  N   UNL     1      31.707  -9.260 -21.695  0.00  0.00    -0.236 N 
ATOM      9  N   UNL     1      32.238  -8.379 -22.559  0.00  0.00    -0.180 NA
ATOM     10  C   UNL     1      33.115 -12.914 -22.900  0.00  0.00    +0.002 C 
ATOM     11  C   UNL     1      32.894 -10.517 -23.043  0.00  0.00    +0.035 C 
ATOM     12  C   UNL     1      33.436 -11.711 -23.545  0.00  0.00    +0.003 C 
ATOM     13  C   UNL     1      32.062 -10.560 -21.930  0.00  0.00    +0.067 C 
ATOM     14  C   UNL     1      32.276 -12.928 -21.785  0.00  0.00    +0.001 C 
ATOM     15  C   UNL     1      31.730 -11.747 -21.274  0.00  0.00    +0.016 C 
ATOM     16  C   UNL     1      32.959  -9.147 -23.378  0.00  0.00    +0.119 C 
ATOM     17  H   UNL     1      31.113  -8.993 -20.957  0.00  0.00    +0.174 HD
ENDBRANCH   4  10
ENDBRANCH   1   3
BRANCH   1  18
ATOM     18  C   UNL     1      35.872 -18.331 -22.770  0.00  0.00    +0.184 C 
BRANCH  18  19
ATOM     19  C   UNL     1      36.059 -19.285 -21.584  0.00  0.00    -0.017 C 
BRANCH  19  20
ATOM     20  N   UNL     1      37.355 -18.995 -20.962  0.00  0.00    +0.384 N 
ATOM     21  H   UNL     1      38.101 -19.158 -21.639  0.00  0.00    -0.089 HD
ATOM     22  H   UNL     1      37.489 -19.604 -20.155  0.00  0.00    -0.089 HD
ATOM     23  H   UNL     1      37.377 -18.021 -20.661  0.00  0.00    -0.089 HD
ENDBRANCH  19  20
BRANCH  19  24
ATOM     24  C   UNL     1      34.946 -19.154 -20.516  0.00  0.00    +0.006 C 
BRANCH  24  26
ATOM     25  N   UNL     1      32.703 -21.922 -19.326  0.00  0.00    -0.234 NA
ATOM     26  C   UNL     1      34.453 -20.437 -19.981  0.00  0.00    -0.024 C 
ATOM     27  C   UNL     1      34.991 -21.382 -19.211  0.00  0.00    +0.065 C 
ATOM     28  C   UNL     1      34.005 -22.471 -18.895  0.00  0.00    +0.122 C 
ATOM     29  C   UNL     1      33.043 -20.850 -19.980  0.00  0.00    +0.072 C 
ATOM     30  C   UNL     1      36.268 -21.410 -18.545  0.00  0.00    -0.020 C 
ATOM     31  C   UNL     1      34.067 -22.874 -17.448  0.00  0.00    -0.004 C 
ATOM     32  C   UNL     1      36.365 -22.058 -17.370  0.00  0.00    -0.004 C 
ATOM     33  C   UNL     1      35.204 -22.686 -16.753  0.00  0.00    -0.003 C 
ENDBRANCH  24  26
ENDBRANCH  19  24
ENDBRANCH  18  19
ENDBRANCH   1  18
TORSDOF 7
ENDMDL
MODEL 3
REMARK VINA RESULT:     -12.1      0.996      1.348
REMARK  Name = 49866474
REMARK  7 active torsions:
REMARK  status: ('A' for Active; 'I' for Inactive)
REMARK    1  A    between atoms: O_1  and  C_3
REMARK    2  A    between atoms: O_1  and  C_18
REMARK    3  A    between atoms: C_4  and  C_10
REMARK    4  A    between atoms: C_18  and  C_19
REMARK    5  A    between atoms: C_19  and  N_20
REMARK    6  A    between atoms: C_19  and  C_24
REMARK    7  A    between atoms: C_24  and  C_26
REMARK                            x       y       z     vdW  Elec       q    Type
REMARK                         _______ _______ _______ _____ _____    ______ ____
ROOT
ATOM      1  O   UNL     1      35.216 -15.163 -23.147  0.00  0.00    -0.476 OA
ENDROOT
BRANCH   1   3
ATOM      2  N   UNL     1      34.168 -18.399 -24.495  0.00  0.00    -0.239 NA
ATOM      3  C   UNL     1      34.961 -16.508 -23.213  0.00  0.00    +0.158 C 
ATOM      4  C   UNL     1      34.946 -18.701 -22.225  0.00  0.00    +0.022 C 
ATOM      5  C   UNL     1      35.214 -17.340 -22.129  0.00  0.00    +0.040 C 
ATOM      6  C   UNL     1      34.442 -17.082 -24.363  0.00  0.00    +0.136 C 
ATOM      7  C   UNL     1      34.428 -19.177 -23.419  0.00  0.00    +0.099 C 
BRANCH   4  10
ATOM      8  N   UNL     1      35.637 -22.179 -17.970  0.00  0.00    -0.236 N 
ATOM      9  N   UNL     1      34.407 -22.677 -17.754  0.00  0.00    -0.180 NA
ATOM     10  C   UNL     1      35.199 -19.591 -21.116  0.00  0.00    +0.002 C 
ATOM     11  C   UNL     1      34.408 -21.187 -19.491  0.00  0.00    +0.035 C 
ATOM     12  C   UNL     1      34.141 -20.329 -20.570  0.00  0.00    +0.003 C 
ATOM     13  C   UNL     1      35.705 -21.279 -18.999  0.00  0.00    +0.067 C 
ATOM     14  C   UNL     1      36.492 -19.703 -20.603  0.00  0.00    +0.001 C 
ATOM     15  C   UNL     1      36.774 -20.553 -19.528  0.00  0.00    +0.016 C 
ATOM     16  C   UNL     1      33.663 -22.071 -18.681  0.00  0.00    +0.119 C 
ATOM     17  H   UNL     1      36.421 -22.440 -17.435  0.00  0.00    +0.174 HD
ENDBRANCH   4  10
ENDBRANCH   1   3
BRANCH   1  18
ATOM     18  C   UNL     1      34.195 -14.342 -22.597  0.00  0.00    +0.184 C 
BRANCH  18  19
ATOM     19  C   UNL     1      33.823 -13.222 -23.575  0.00  0.00    -0.017 C 
BRANCH  19  20
ATOM     20  N   UNL     1      33.060 -13.812 -24.680  0.00  0.00    +0.384 N 
ATOM     21  H   UNL     1      33.003 -14.822 -24.552  0.00  0.00    -0.089 HD
ATOM     22  H   UNL     1      33.525 -13.605 -25.563  0.00  0.00    -0.089 HD
ATOM     23  H   UNL     1      32.119 -13.417 -24.691  0.00  0.00    -0.089 HD
ENDBRANCH  19  20
BRANCH  19  24
ATOM     24  C   UNL     1      32.980 -12.099 -22.922  0.00  0.00    +0.006 C 
BRANCH  24  26
ATOM     25  N   UNL     1      34.895  -9.152 -24.248  0.00  0.00    -0.234 NA
ATOM     26  C   UNL     1      33.368 -10.731 -23.315  0.00  0.00    -0.024 C 
ATOM     27  C   UNL     1      32.981  -9.516 -22.927  0.00  0.00    +0.065 C 
ATOM     28  C   UNL     1      33.771  -8.436 -23.611  0.00  0.00    +0.122 C 
ATOM     29  C   UNL     1      34.558 -10.401 -24.110  0.00  0.00    +0.072 C 
ATOM     30  C   UNL     1      32.075  -9.131 -21.876  0.00  0.00    -0.020 C 
ATOM     31  C   UNL     1      34.182  -7.355 -22.650  0.00  0.00    -0.004 C 
ATOM     32  C   UNL     1      32.301  -7.975 -21.224  0.00  0.00    -0.004 C 
ATOM     33  C   UNL     1      33.456  -7.143 -21.537  0.00  0.00    -0.003 C 
ENDBRANCH  24  26
ENDBRANCH  19  24
ENDBRANCH  18  19
ENDBRANCH   1  18
TORSDOF 7
ENDMDL
MODEL 4
REMARK VINA RESULT:     -11.7      1.813      2.600
REMARK  Name = 49866474
REMARK  7 active torsions:
REMARK  status: ('A' for Active; 'I' for Inactive)
REMARK    1  A    between atoms: O_1  and  C_3
REMARK    2  A    between atoms: O_1  and  C_18
REMARK    3  A    between atoms: C_4  and  C_10
REMARK    4  A    between atoms: C_18  and  C_19
REMARK    5  A    between atoms: C_19  and  N_20
REMARK    6  A    between atoms: C_19  and  C_24
REMARK    7  A    between atoms: C_24  and  C_26
REMARK                            x       y       z     vdW  Elec       q    Type
REMARK                         _______ _______ _______ _____ _____    ______ ____
ROOT
ATOM      1  O   UNL     1      34.566 -13.820 -22.953  0.00  0.00    -0.476 OA
ENDROOT
BRANCH   1   3
ATOM      2  N   UNL     1      34.149 -16.913 -24.863  0.00  0.00    -0.239 NA
ATOM      3  C   UNL     1      34.578 -15.156 -23.257  0.00  0.00    +0.158 C 
ATOM      4  C   UNL     1      35.013 -17.448 -22.669  0.00  0.00    +0.022 C 
ATOM      5  C   UNL     1      35.010 -16.098 -22.331  0.00  0.00    +0.040 C 
ATOM      6  C   UNL     1      34.161 -15.611 -24.498  0.00  0.00    +0.136 C 
ATOM      7  C   UNL     1      34.577 -17.799 -23.936  0.00  0.00    +0.099 C 
BRANCH   4  10
ATOM      8  N   UNL     1      36.441 -21.380 -19.039  0.00  0.00    -0.236 N 
ATOM      9  N   UNL     1      35.282 -21.999 -18.758  0.00  0.00    -0.180 NA
ATOM     10  C   UNL     1      35.457 -18.450 -21.729  0.00  0.00    +0.002 C 
ATOM     11  C   UNL     1      34.975 -20.301 -20.261  0.00  0.00    +0.035 C 
ATOM     12  C   UNL     1      34.523 -19.335 -21.175  0.00  0.00    +0.003 C 
ATOM     13  C   UNL     1      36.325 -20.352 -19.935  0.00  0.00    +0.067 C 
ATOM     14  C   UNL     1      36.807 -18.523 -21.383  0.00  0.00    +0.001 C 
ATOM     15  C   UNL     1      37.272 -19.479 -20.475  0.00  0.00    +0.016 C 
ATOM     16  C   UNL     1      34.393 -21.340 -19.503  0.00  0.00    +0.119 C 
ATOM     17  H   UNL     1      37.300 -21.644 -18.636  0.00  0.00    +0.174 HD
ENDBRANCH   4  10
ENDBRANCH   1   3
BRANCH   1  18
ATOM     18  C   UNL     1      33.513 -13.044 -23.510  0.00  0.00    +0.184 C 
BRANCH  18  19
ATOM     19  C   UNL     1      33.864 -11.553 -23.466  0.00  0.00    -0.017 C 
BRANCH  19  20
ATOM     20  N   UNL     1      34.659 -11.234 -24.656  0.00  0.00    +0.384 N 
ATOM     21  H   UNL     1      34.254 -11.696 -25.470  0.00  0.00    -0.089 HD
ATOM     22  H   UNL     1      35.616 -11.557 -24.522  0.00  0.00    -0.089 HD
ATOM     23  H   UNL     1      34.659 -10.224 -24.804  0.00  0.00    -0.089 HD
ENDBRANCH  19  20
BRANCH  19  24
ATOM     24  C   UNL     1      32.618 -10.635 -23.430  0.00  0.00    +0.006 C 
BRANCH  24  26
ATOM     25  N   UNL     1      32.063  -7.738 -21.103  0.00  0.00    -0.234 NA
ATOM     26  C   UNL     1      32.797  -9.385 -22.668  0.00  0.00    -0.024 C 
ATOM     27  C   UNL     1      33.542  -8.295 -22.848  0.00  0.00    +0.065 C 
ATOM     28  C   UNL     1      33.282  -7.261 -21.788  0.00  0.00    +0.122 C 
ATOM     29  C   UNL     1      31.911  -8.938 -21.585  0.00  0.00    +0.072 C 
ATOM     30  C   UNL     1      34.391  -7.933 -23.954  0.00  0.00    -0.020 C 
ATOM     31  C   UNL     1      33.172  -5.881 -22.373  0.00  0.00    -0.004 C 
ATOM     32  C   UNL     1      34.516  -6.629 -24.267  0.00  0.00    -0.004 C 
ATOM     33  C   UNL     1      33.784  -5.601 -23.539  0.00  0.00    -0.003 C 
ENDBRANCH  24  26
ENDBRANCH  19  24
ENDBRANCH  18  19
ENDBRANCH   1  18
TORSDOF 7
ENDMDL
MODEL 5
REMARK VINA RESULT:     -11.5      5.403     11.006
REMARK  Name = 49866474
REMARK  7 active torsions:
REMARK  status: ('A' for Active; 'I' for Inactive)
REMARK    1  A    between atoms: O_1  and  C_3
REMARK    2  A    between atoms: O_1  and  C_18
REMARK    3  A    between atoms: C_4  and  C_10
REMARK    4  A    between atoms: C_18  and  C_19
REMARK    5  A    between atoms: C_19  and  N_20
REMARK    6  A    between atoms: C_19  and  C_24
REMARK    7  A    between atoms: C_24  and  C_26
REMARK                            x       y       z     vdW  Elec       q    Type
REMARK                         _______ _______ _______ _____ _____    ______ ____
ROOT
ATOM      1  O   UNL     1      36.345 -22.420 -17.542  0.00  0.00    -0.476 OA
ENDROOT
BRANCH   1   3
ATOM      2  N   UNL     1      33.067 -22.115 -19.139  0.00  0.00    -0.239 NA
ATOM      3  C   UNL     1      35.359 -21.969 -18.379  0.00  0.00    +0.158 C 
ATOM      4  C   UNL     1      34.583 -20.512 -20.130  0.00  0.00    +0.022 C 
ATOM      5  C   UNL     1      35.604 -20.950 -19.293  0.00  0.00    +0.040 C 
ATOM      6  C   UNL     1      34.085 -22.513 -18.343  0.00  0.00    +0.136 C 
ATOM      7  C   UNL     1      33.344 -21.121 -20.014  0.00  0.00    +0.099 C 
BRANCH   4  10
ATOM      8  N   UNL     1      35.271 -16.600 -23.990  0.00  0.00    -0.236 N 
ATOM      9  N   UNL     1      34.515 -17.022 -25.018  0.00  0.00    -0.180 NA
ATOM     10  C   UNL     1      34.807 -19.456 -21.088  0.00  0.00    +0.002 C 
ATOM     11  C   UNL     1      34.411 -18.479 -23.257  0.00  0.00    +0.035 C 
ATOM     12  C   UNL     1      34.178 -19.516 -22.339  0.00  0.00    +0.003 C 
ATOM     13  C   UNL     1      35.252 -17.430 -22.902  0.00  0.00    +0.067 C 
ATOM     14  C   UNL     1      35.646 -18.391 -20.758  0.00  0.00    +0.001 C 
ATOM     15  C   UNL     1      35.888 -17.351 -21.661  0.00  0.00    +0.016 C 
ATOM     16  C   UNL     1      33.994 -18.165 -24.568  0.00  0.00    +0.119 C 
ATOM     17  H   UNL     1      35.793 -15.766 -24.017  0.00  0.00    +0.174 HD
ENDBRANCH   4  10
ENDBRANCH   1   3
BRANCH   1  18
ATOM     18  C   UNL     1      36.155 -22.202 -16.150  0.00  0.00    +0.184 C 
BRANCH  18  19
ATOM     19  C   UNL     1      36.410 -23.493 -15.365  0.00  0.00    -0.017 C 
BRANCH  19  20
ATOM     20  N   UNL     1      36.798 -23.131 -13.999  0.00  0.00    +0.384 N 
ATOM     21  H   UNL     1      35.968 -22.866 -13.468  0.00  0.00    -0.089 HD
ATOM     22  H   UNL     1      37.448 -22.346 -14.027  0.00  0.00    -0.089 HD
ATOM     23  H   UNL     1      37.248 -23.929 -13.550  0.00  0.00    -0.089 HD
ENDBRANCH  19  20
BRANCH  19  24
ATOM     24  C   UNL     1      35.175 -24.425 -15.309  0.00  0.00    +0.006 C 
BRANCH  24  26
ATOM     25  N   UNL     1      32.911 -23.949 -12.349  0.00  0.00    -0.234 NA
ATOM     26  C   UNL     1      34.092 -23.958 -14.424  0.00  0.00    -0.024 C 
ATOM     27  C   UNL     1      32.896 -23.411 -14.640  0.00  0.00    +0.065 C 
ATOM     28  C   UNL     1      32.143 -23.192 -13.358  0.00  0.00    +0.122 C 
ATOM     29  C   UNL     1      33.998 -24.266 -12.990  0.00  0.00    +0.072 C 
ATOM     30  C   UNL     1      32.205 -23.172 -15.882  0.00  0.00    -0.020 C 
ATOM     31  C   UNL     1      30.702 -23.600 -13.483  0.00  0.00    -0.004 C 
ATOM     32  C   UNL     1      30.860 -23.245 -15.892  0.00  0.00    -0.004 C 
ATOM     33  C   UNL     1      30.111 -23.596 -14.693  0.00  0.00    -0.003 C 
ENDBRANCH  24  26
ENDBRANCH  19  24
ENDBRANCH  18  19
ENDBRANCH   1  18
TORSDOF 7
ENDMDL
MODEL 6
REMARK VINA RESULT:     -11.5      3.314     11.387
REMARK  Name = 49866474
REMARK  7 active torsions:
REMARK  status: ('A' for Active; 'I' for Inactive)
REMARK    1  A    between atoms: O_1  and  C_3
REMARK    2  A    between atoms: O_1  and  C_18
REMARK    3  A    between atoms: C_4  and  C_10
REMARK    4  A    between atoms: C_18  and  C_19
REMARK    5  A    between atoms: C_19  and  N_20
REMARK    6  A    between atoms: C_19  and  C_24
REMARK    7  A    between atoms: C_24  and  C_26
REMARK                            x       y       z     vdW  Elec       q    Type
REMARK                         _______ _______ _______ _____ _____    ______ ____
ROOT
ATOM      1  O   UNL     1      31.444 -11.897 -21.097  0.00  0.00    -0.476 OA
ENDROOT
BRANCH   1   3
ATOM      2  N   UNL     1      32.059  -9.146 -18.765  0.00  0.00    -0.239 NA
ATOM      3  C   UNL     1      31.700 -10.631 -20.639  0.00  0.00    +0.158 C 
ATOM      4  C   UNL     1      32.120  -8.294 -21.027  0.00  0.00    +0.022 C 
ATOM      5  C   UNL     1      31.860  -9.568 -21.521  0.00  0.00    +0.040 C 
ATOM      6  C   UNL     1      31.807 -10.369 -19.282  0.00  0.00    +0.136 C 
ATOM      7  C   UNL     1      32.209  -8.138 -19.653  0.00  0.00    +0.099 C 
BRANCH   4  10
ATOM      8  N   UNL     1      33.029  -4.101 -24.530  0.00  0.00    -0.236 N 
ATOM      9  N   UNL     1      34.197  -4.416 -25.117  0.00  0.00    -0.180 NA
ATOM     10  C   UNL     1      32.292  -7.171 -21.918  0.00  0.00    +0.002 C 
ATOM     11  C   UNL     1      33.575  -6.009 -23.597  0.00  0.00    +0.035 C 
ATOM     12  C   UNL     1      33.426  -7.111 -22.739  0.00  0.00    +0.003 C 
ATOM     13  C   UNL     1      32.601  -5.017 -23.607  0.00  0.00    +0.067 C 
ATOM     14  C   UNL     1      31.330  -6.161 -21.948  0.00  0.00    +0.001 C 
ATOM     15  C   UNL     1      31.464  -5.057 -22.797  0.00  0.00    +0.016 C 
ATOM     16  C   UNL     1      34.525  -5.576 -24.547  0.00  0.00    +0.119 C 
ATOM     17  H   UNL     1      32.526  -3.283 -24.745  0.00  0.00    +0.174 HD
ENDBRANCH   4  10
ENDBRANCH   1   3
BRANCH   1  18
ATOM     18  C   UNL     1      32.450 -12.876 -20.872  0.00  0.00    +0.184 C 
BRANCH  18  19
ATOM     19  C   UNL     1      33.023 -13.371 -22.204  0.00  0.00    -0.017 C 
BRANCH  19  20
ATOM     20  N   UNL     1      33.368 -12.202 -23.019  0.00  0.00    +0.384 N 
ATOM     21  H   UNL     1      34.292 -11.861 -22.751  0.00  0.00    -0.089 HD
ATOM     22  H   UNL     1      32.678 -11.468 -22.869  0.00  0.00    -0.089 HD
ATOM     23  H   UNL     1      33.376 -12.465 -24.005  0.00  0.00    -0.089 HD
ENDBRANCH  19  20
BRANCH  19  24
ATOM     24  C   UNL     1      34.282 -14.257 -22.034  0.00  0.00    +0.006 C 
BRANCH  24  26
ATOM     25  N   UNL     1      33.803 -16.408 -25.076  0.00  0.00    -0.234 NA
ATOM     26  C   UNL     1      34.425 -15.323 -23.042  0.00  0.00    -0.024 C 
ATOM     27  C   UNL     1      34.931 -16.556 -23.015  0.00  0.00    +0.065 C 
ATOM     28  C   UNL     1      34.751 -17.261 -24.330  0.00  0.00    +0.122 C 
ATOM     29  C   UNL     1      33.740 -15.336 -24.342  0.00  0.00    +0.072 C 
ATOM     30  C   UNL     1      35.448 -17.314 -21.905  0.00  0.00    -0.020 C 
ATOM     31  C   UNL     1      34.299 -18.682 -24.141  0.00  0.00    -0.004 C 
ATOM     32  C   UNL     1      35.295 -18.651 -21.913  0.00  0.00    -0.004 C 
ATOM     33  C   UNL     1      34.588 -19.326 -22.994  0.00  0.00    -0.003 C 
ENDBRANCH  24  26
ENDBRANCH  19  24
ENDBRANCH  18  19
ENDBRANCH   1  18
TORSDOF 7
ENDMDL
MODEL 7
REMARK VINA RESULT:     -11.4      3.021      5.109
REMARK  Name = 49866474
REMARK  7 active torsions:
REMARK  status: ('A' for Active; 'I' for Inactive)
REMARK    1  A    between atoms: O_1  and  C_3
REMARK    2  A    between atoms: O_1  and  C_18
REMARK    3  A    between atoms: C_4  and  C_10
REMARK    4  A    between atoms: C_18  and  C_19
REMARK    5  A    between atoms: C_19  and  N_20
REMARK    6  A    between atoms: C_19  and  C_24
REMARK    7  A    between atoms: C_24  and  C_26
REMARK                            x       y       z     vdW  Elec       q    Type
REMARK                         _______ _______ _______ _____ _____    ______ ____
ROOT
ATOM      1  O   UNL     1      33.570  -9.770 -24.372  0.00  0.00    -0.476 OA
ENDROOT
BRANCH   1   3
ATOM      2  N   UNL     1      33.208 -12.914 -26.206  0.00  0.00    -0.239 NA
ATOM      3  C   UNL     1      33.573 -11.115 -24.633  0.00  0.00    +0.158 C 
ATOM      4  C   UNL     1      33.920 -13.394 -23.946  0.00  0.00    +0.022 C 
ATOM      5  C   UNL     1      33.925 -12.035 -23.651  0.00  0.00    +0.040 C 
ATOM      6  C   UNL     1      33.225 -11.602 -25.883  0.00  0.00    +0.136 C 
ATOM      7  C   UNL     1      33.557 -13.779 -25.227  0.00  0.00    +0.099 C 
BRANCH   4  10
ATOM      8  N   UNL     1      35.377 -17.332 -20.334  0.00  0.00    -0.236 N 
ATOM      9  N   UNL     1      35.789 -18.349 -21.110  0.00  0.00    -0.180 NA
ATOM     10  C   UNL     1      34.282 -14.374 -22.949  0.00  0.00    +0.002 C 
ATOM     11  C   UNL     1      35.119 -16.559 -22.369  0.00  0.00    +0.035 C 
ATOM     12  C   UNL     1      34.775 -15.620 -23.355  0.00  0.00    +0.003 C 
ATOM     13  C   UNL     1      34.962 -16.228 -21.028  0.00  0.00    +0.067 C 
ATOM     14  C   UNL     1      34.134 -14.067 -21.595  0.00  0.00    +0.001 C 
ATOM     15  C   UNL     1      34.472 -14.992 -20.602  0.00  0.00    +0.016 C 
ATOM     16  C   UNL     1      35.631 -17.875 -22.347  0.00  0.00    +0.119 C 
ATOM     17  H   UNL     1      35.375 -17.377 -19.350  0.00  0.00    +0.174 HD
ENDBRANCH   4  10
ENDBRANCH   1   3
BRANCH   1  18
ATOM     18  C   UNL     1      34.713  -9.242 -23.712  0.00  0.00    +0.184 C 
BRANCH  18  19
ATOM     19  C   UNL     1      34.402  -7.861 -23.122  0.00  0.00    -0.017 C 
BRANCH  19  20
ATOM     20  N   UNL     1      34.852  -6.843 -24.075  0.00  0.00    +0.384 N 
ATOM     21  H   UNL     1      35.767  -6.492 -23.792  0.00  0.00    -0.089 HD
ATOM     22  H   UNL     1      34.183  -6.074 -24.093  0.00  0.00    -0.089 HD
ATOM     23  H   UNL     1      34.920  -7.255 -25.006  0.00  0.00    -0.089 HD
ENDBRANCH  19  20
BRANCH  19  24
ATOM     24  C   UNL     1      32.896  -7.650 -22.830  0.00  0.00    +0.006 C 
BRANCH  24  26
ATOM     25  N   UNL     1      32.610  -7.935 -19.095  0.00  0.00    -0.234 NA
ATOM     26  C   UNL     1      32.470  -8.049 -21.476  0.00  0.00    -0.024 C 
ATOM     27  C   UNL     1      31.855  -9.123 -20.982  0.00  0.00    +0.065 C 
ATOM     28  C   UNL     1      31.728  -9.053 -19.486  0.00  0.00    +0.122 C 
ATOM     29  C   UNL     1      32.910  -7.390 -20.239  0.00  0.00    +0.072 C 
ATOM     30  C   UNL     1      31.469 -10.345 -21.639  0.00  0.00    -0.020 C 
ATOM     31  C   UNL     1      32.061 -10.368 -18.838  0.00  0.00    -0.004 C 
ATOM     32  C   UNL     1      31.483 -11.488 -20.928  0.00  0.00    -0.004 C 
ATOM     33  C   UNL     1      31.917 -11.510 -19.537  0.00  0.00    -0.003 C 
ENDBRANCH  24  26
ENDBRANCH  19  24
ENDBRANCH  18  19
ENDBRANCH   1  18
TORSDOF 7
ENDMDL
MODEL 8
REMARK VINA RESULT:     -11.4      2.001      2.936
REMARK  Name = 49866474
REMARK  7 active torsions:
REMARK  status: ('A' for Active; 'I' for Inactive)
REMARK    1  A    between atoms: O_1  and  C_3
REMARK    2  A    between atoms: O_1  and  C_18
REMARK    3  A    between atoms: C_4  and  C_10
REMARK    4  A    between atoms: C_18  and  C_19
REMARK    5  A    between atoms: C_19  and  N_20
REMARK    6  A    between atoms: C_19  and  C_24
REMARK    7  A    between atoms: C_24  and  C_26
REMARK                            x       y       z     vdW  Elec       q    Type
REMARK                         _______ _______ _______ _____ _____    ______ ____
ROOT
ATOM      1  O   UNL     1      35.022 -14.958 -22.588  0.00  0.00    -0.476 OA
ENDROOT
BRANCH   1   3
ATOM      2  N   UNL     1      34.459 -18.109 -24.361  0.00  0.00    -0.239 NA
ATOM      3  C   UNL     1      34.898 -16.305 -22.812  0.00  0.00    +0.158 C 
ATOM      4  C   UNL     1      34.943 -18.583 -22.040  0.00  0.00    +0.022 C 
ATOM      5  C   UNL     1      35.074 -17.222 -21.782  0.00  0.00    +0.040 C 
ATOM      6  C   UNL     1      34.594 -16.795 -24.072  0.00  0.00    +0.136 C 
ATOM      7  C   UNL     1      34.638 -18.971 -23.334  0.00  0.00    +0.099 C 
BRANCH   4  10
ATOM      8  N   UNL     1      35.338 -22.369 -18.017  0.00  0.00    -0.236 N 
ATOM      9  N   UNL     1      34.068 -22.759 -17.812  0.00  0.00    -0.180 NA
ATOM     10  C   UNL     1      35.121 -19.560 -20.992  0.00  0.00    +0.002 C 
ATOM     11  C   UNL     1      34.196 -21.170 -19.454  0.00  0.00    +0.035 C 
ATOM     12  C   UNL     1      34.001 -20.225 -20.474  0.00  0.00    +0.003 C 
ATOM     13  C   UNL     1      35.483 -21.418 -18.990  0.00  0.00    +0.067 C 
ATOM     14  C   UNL     1      36.402 -19.827 -20.507  0.00  0.00    +0.001 C 
ATOM     15  C   UNL     1      36.611 -20.766 -19.491  0.00  0.00    +0.016 C 
ATOM     16  C   UNL     1      33.377 -22.028 -18.688  0.00  0.00    +0.119 C 
ATOM     17  H   UNL     1      36.098 -22.737 -17.512  0.00  0.00    +0.174 HD
ENDBRANCH   4  10
ENDBRANCH   1   3
BRANCH   1  18
ATOM     18  C   UNL     1      34.551 -14.470 -21.339  0.00  0.00    +0.184 C 
BRANCH  18  19
ATOM     19  C   UNL     1      33.138 -13.895 -21.487  0.00  0.00    -0.017 C 
BRANCH  19  20
ATOM     20  N   UNL     1      32.454 -14.022 -20.196  0.00  0.00    +0.384 N 
ATOM     21  H   UNL     1      31.444 -14.034 -20.346  0.00  0.00    -0.089 HD
ATOM     22  H   UNL     1      32.699 -13.231 -19.602  0.00  0.00    -0.089 HD
ATOM     23  H   UNL     1      32.741 -14.889 -19.743  0.00  0.00    -0.089 HD
ENDBRANCH  19  20
BRANCH  19  24
ATOM     24  C   UNL     1      33.128 -12.409 -21.920  0.00  0.00    +0.006 C 
BRANCH  24  26
ATOM     25  N   UNL     1      33.428 -12.975 -25.622  0.00  0.00    -0.234 NA
ATOM     26  C   UNL     1      33.240 -12.191 -23.375  0.00  0.00    -0.024 C 
ATOM     27  C   UNL     1      33.660 -11.173 -24.125  0.00  0.00    +0.065 C 
ATOM     28  C   UNL     1      33.636 -11.513 -25.589  0.00  0.00    +0.122 C 
ATOM     29  C   UNL     1      33.140 -13.254 -24.384  0.00  0.00    +0.072 C 
ATOM     30  C   UNL     1      34.257  -9.923 -23.728  0.00  0.00    -0.020 C 
ATOM     31  C   UNL     1      34.880 -11.042 -26.289  0.00  0.00    -0.004 C 
ATOM     32  C   UNL     1      35.165  -9.358 -24.546  0.00  0.00    -0.004 C 
ATOM     33  C   UNL     1      35.575 -10.005 -25.785  0.00  0.00    -0.003 C 
ENDBRANCH  24  26
ENDBRANCH  19  24
ENDBRANCH  18  19
ENDBRANCH   1  18
TORSDOF 7
ENDMDL
MODEL 9
REMARK VINA RESULT:     -11.3      3.443     10.818
REMARK  Name = 49866474
REMARK  7 active torsions:
REMARK  status: ('A' for Active; 'I' for Inactive)
REMARK    1  A    between atoms: O_1  and  C_3
REMARK    2  A    between atoms: O_1  and  C_18
REMARK    3  A    between atoms: C_4  and  C_10
REMARK    4  A    between atoms: C_18  and  C_19
REMARK    5  A    between atoms: C_19  and  N_20
REMARK    6  A    between atoms: C_19  and  C_24
REMARK    7  A    between atoms: C_24  and  C_26
REMARK                            x       y       z     vdW  Elec       q    Type
REMARK                         _______ _______ _______ _____ _____    ______ ____
ROOT
ATOM      1  O   UNL     1      34.919 -21.629 -19.878  0.00  0.00    -0.476 OA
ENDROOT
BRANCH   1   3
ATOM      2  N   UNL     1      37.521 -19.063 -20.051  0.00  0.00    -0.239 NA
ATOM      3  C   UNL     1      35.569 -20.478 -20.238  0.00  0.00    +0.158 C 
ATOM      4  C   UNL     1      35.673 -18.413 -21.469  0.00  0.00    +0.022 C 
ATOM      5  C   UNL     1      34.989 -19.573 -21.120  0.00  0.00    +0.040 C 
ATOM      6  C   UNL     1      36.826 -20.179 -19.736  0.00  0.00    +0.136 C 
ATOM      7  C   UNL     1      36.925 -18.207 -20.913  0.00  0.00    +0.099 C 
BRANCH   4  10
ATOM      8  N   UNL     1      33.499 -14.535 -24.772  0.00  0.00    -0.236 N 
ATOM      9  N   UNL     1      33.562 -13.411 -24.038  0.00  0.00    -0.180 NA
ATOM     10  C   UNL     1      35.097 -17.455 -22.383  0.00  0.00    +0.002 C 
ATOM     11  C   UNL     1      34.411 -15.200 -22.892  0.00  0.00    +0.035 C 
ATOM     12  C   UNL     1      34.976 -16.116 -21.989  0.00  0.00    +0.003 C 
ATOM     13  C   UNL     1      33.992 -15.645 -24.141  0.00  0.00    +0.067 C 
ATOM     14  C   UNL     1      34.668 -17.874 -23.643  0.00  0.00    +0.001 C 
ATOM     15  C   UNL     1      34.104 -16.975 -24.552  0.00  0.00    +0.016 C 
ATOM     16  C   UNL     1      34.118 -13.820 -22.896  0.00  0.00    +0.119 C 
ATOM     17  H   UNL     1      33.129 -14.558 -25.684  0.00  0.00    +0.174 HD
ENDBRANCH   4  10
ENDBRANCH   1   3
BRANCH   1  18
ATOM     18  C   UNL     1      35.000 -22.011 -18.511  0.00  0.00    +0.184 C 
BRANCH  18  19
ATOM     19  C   UNL     1      33.597 -22.177 -17.916  0.00  0.00    -0.017 C 
BRANCH  19  20
ATOM     20  N   UNL     1      32.619 -22.006 -18.995  0.00  0.00    +0.384 N 
ATOM     21  H   UNL     1      31.704 -21.797 -18.594  0.00  0.00    -0.089 HD
ATOM     22  H   UNL     1      32.562 -22.864 -19.542  0.00  0.00    -0.089 HD
ATOM     23  H   UNL     1      32.909 -21.236 -19.598  0.00  0.00    -0.089 HD
ENDBRANCH  19  20
BRANCH  19  24
ATOM     24  C   UNL     1      33.378 -23.558 -17.251  0.00  0.00    +0.006 C 
BRANCH  24  26
ATOM     25  N   UNL     1      33.307 -23.822 -13.504  0.00  0.00    -0.234 NA
ATOM     26  C   UNL     1      32.947 -23.500 -15.842  0.00  0.00    -0.024 C 
ATOM     27  C   UNL     1      31.756 -23.485 -15.242  0.00  0.00    +0.065 C 
ATOM     28  C   UNL     1      31.886 -23.498 -13.745  0.00  0.00    +0.122 C 
ATOM     29  C   UNL     1      33.832 -23.726 -14.691  0.00  0.00    +0.072 C 
ATOM     30  C   UNL     1      30.439 -23.620 -15.810  0.00  0.00    -0.020 C 
ATOM     31  C   UNL     1      30.910 -24.449 -13.111  0.00  0.00    -0.004 C 
ATOM     32  C   UNL     1      29.482 -24.218 -15.076  0.00  0.00    -0.004 C 
ATOM     33  C   UNL     1      29.768 -24.758 -13.753  0.00  0.00    -0.003 C 
ENDBRANCH  24  26
ENDBRANCH  19  24
ENDBRANCH  18  19
ENDBRANCH   1  18
TORSDOF 7
ENDMDL
