MODEL 1
REMARK VINA RESULT:     -11.4      0.000      0.000
REMARK  Name = 9799284
REMARK  5 active torsions:
REMARK  status: ('A' for Active; 'I' for Inactive)
REMARK    1  A    between atoms: N_1  and  C_19
REMARK    2  A    between atoms: C_2  and  C_8
REMARK    3  A    between atoms: C_8  and  N_10
REMARK    4  A    between atoms: C_19  and  C_21
REMARK    5  A    between atoms: C_21  and  C_23
REMARK                            x       y       z     vdW  Elec       q    Type
REMARK                         _______ _______ _______ _____ _____    ______ ____
ROOT
ATOM      1  N   UNL     1      33.989 -13.934 -23.275  0.00  0.00    +0.392 N 
ATOM      2  C   UNL     1      34.765 -16.733 -22.877  0.00  0.00    +0.016 C 
ATOM      3  C   UNL     1      34.616 -16.111 -24.270  0.00  0.00    -0.021 C 
ATOM      4  C   UNL     1      35.079 -15.639 -21.851  0.00  0.00    -0.021 C 
ATOM      5  C   UNL     1      33.611 -14.957 -24.259  0.00  0.00    -0.077 C 
ATOM      6  C   UNL     1      34.059 -14.501 -21.921  0.00  0.00    -0.077 C 
ATOM      7  H   UNL     1      34.917 -13.589 -23.520  0.00  0.00    -0.079 HD
ENDROOT
BRANCH   2   8
ATOM      8  C   UNL     1      35.840 -17.816 -22.871  0.00  0.00    +0.094 C 
BRANCH   8  10
ATOM      9  O   UNL     1      37.734 -19.096 -20.899  0.00  0.00    -0.270 OA
ATOM     10  N   UNL     1      35.588 -18.785 -21.847  0.00  0.00    -0.272 N 
ATOM     11  C   UNL     1      34.247 -19.325 -21.605  0.00  0.00    +0.121 C 
ATOM     12  C   UNL     1      36.541 -19.323 -20.974  0.00  0.00    +0.249 C 
ATOM     13  C   UNL     1      34.480 -20.267 -20.473  0.00  0.00    +0.002 C 
ATOM     14  C   UNL     1      35.826 -20.264 -20.105  0.00  0.00    +0.051 C 
ATOM     15  C   UNL     1      33.576 -21.074 -19.808  0.00  0.00    -0.002 C 
ATOM     16  C   UNL     1      36.321 -21.047 -19.081  0.00  0.00    +0.004 C 
ATOM     17  C   UNL     1      34.052 -21.877 -18.767  0.00  0.00    -0.000 C 
ATOM     18  C   UNL     1      35.412 -21.864 -18.406  0.00  0.00    +0.000 C 
ENDBRANCH   8  10
ENDBRANCH   2   8
BRANCH   1  19
ATOM     19  C   UNL     1      33.049 -12.815 -23.313  0.00  0.00    -0.006 C 
BRANCH  19  21
ATOM     20  O   UNL     1      33.951 -11.972 -25.387  0.00  0.00    -0.294 OA
ATOM     21  C   UNL     1      33.595 -11.739 -24.234  0.00  0.00    +0.152 C 
BRANCH  21  23
ATOM     22  F   UNL     1      33.993  -6.524 -22.279  0.00  0.00    -0.204 F 
ATOM     23  C   UNL     1      33.702 -10.343 -23.712  0.00  0.00    +0.033 C 
ATOM     24  C   UNL     1      32.703  -9.870 -22.891  0.00  0.00    +0.005 C 
ATOM     25  C   UNL     1      34.792  -9.587 -24.071  0.00  0.00    +0.005 C 
ATOM     26  C   UNL     1      32.803  -8.568 -22.401  0.00  0.00    +0.030 C 
ATOM     27  C   UNL     1      34.892  -8.285 -23.582  0.00  0.00    +0.030 C 
ATOM     28  C   UNL     1      33.897  -7.775 -22.748  0.00  0.00    +0.140 C 
ENDBRANCH  21  23
ENDBRANCH  19  21
ENDBRANCH   1  19
TORSDOF 5
ENDMDL
MODEL 2
REMARK VINA RESULT:     -11.3      3.777     10.077
REMARK  Name = 9799284
REMARK  5 active torsions:
REMARK  status: ('A' for Active; 'I' for Inactive)
REMARK    1  A    between atoms: N_1  and  C_19
REMARK    2  A    between atoms: C_2  and  C_8
REMARK    3  A    between atoms: C_8  and  N_10
REMARK    4  A    between atoms: C_19  and  C_21
REMARK    5  A    between atoms: C_21  and  C_23
REMARK                            x       y       z     vdW  Elec       q    Type
REMARK                         _______ _______ _______ _____ _____    ______ ____
ROOT
ATOM      1  N   UNL     1      34.195 -15.217 -22.634  0.00  0.00    +0.392 N 
ATOM      2  C   UNL     1      32.862 -12.795 -21.658  0.00  0.00    +0.016 C 
ATOM      3  C   UNL     1      32.688 -13.309 -23.091  0.00  0.00    -0.021 C 
ATOM      4  C   UNL     1      33.236 -13.959 -20.732  0.00  0.00    -0.021 C 
ATOM      5  C   UNL     1      33.912 -14.103 -23.550  0.00  0.00    -0.077 C 
ATOM      6  C   UNL     1      34.441 -14.732 -21.270  0.00  0.00    -0.077 C 
ATOM      7  H   UNL     1      33.373 -15.821 -22.610  0.00  0.00    -0.079 HD
ENDROOT
BRANCH   2   8
ATOM      8  C   UNL     1      31.599 -12.090 -21.169  0.00  0.00    +0.094 C 
BRANCH   8  10
ATOM      9  O   UNL     1      31.724 -10.254 -18.776  0.00  0.00    -0.270 OA
ATOM     10  N   UNL     1      31.795 -10.673 -21.104  0.00  0.00    -0.272 N 
ATOM     11  C   UNL     1      31.980  -9.860 -22.310  0.00  0.00    +0.121 C 
ATOM     12  C   UNL     1      31.839  -9.903 -19.936  0.00  0.00    +0.249 C 
ATOM     13  C   UNL     1      32.144  -8.488 -21.751  0.00  0.00    +0.002 C 
ATOM     14  C   UNL     1      32.061  -8.516 -20.358  0.00  0.00    +0.051 C 
ATOM     15  C   UNL     1      32.352  -7.293 -22.413  0.00  0.00    -0.002 C 
ATOM     16  C   UNL     1      32.178  -7.381 -19.581  0.00  0.00    +0.004 C 
ATOM     17  C   UNL     1      32.475  -6.128 -21.650  0.00  0.00    -0.000 C 
ATOM     18  C   UNL     1      32.389  -6.172 -20.245  0.00  0.00    +0.000 C 
ENDBRANCH   8  10
ENDBRANCH   2   8
BRANCH   1  19
ATOM     19  C   UNL     1      35.335 -15.997 -23.114  0.00  0.00    -0.006 C 
BRANCH  19  21
ATOM     20  O   UNL     1      34.250 -17.906 -24.116  0.00  0.00    -0.294 OA
ATOM     21  C   UNL     1      34.935 -17.459 -23.199  0.00  0.00    +0.152 C 
BRANCH  21  23
ATOM     22  F   UNL     1      36.658 -20.919 -19.169  0.00  0.00    -0.204 F 
ATOM     23  C   UNL     1      35.396 -18.385 -22.121  0.00  0.00    +0.033 C 
ATOM     24  C   UNL     1      36.685 -18.263 -21.655  0.00  0.00    +0.005 C 
ATOM     25  C   UNL     1      34.514 -19.323 -21.637  0.00  0.00    +0.005 C 
ATOM     26  C   UNL     1      37.116 -19.127 -20.648  0.00  0.00    +0.030 C 
ATOM     27  C   UNL     1      34.943 -20.186 -20.630  0.00  0.00    +0.030 C 
ATOM     28  C   UNL     1      36.244 -20.089 -20.136  0.00  0.00    +0.140 C 
ENDBRANCH  21  23
ENDBRANCH  19  21
ENDBRANCH   1  19
TORSDOF 5
ENDMDL
MODEL 3
REMARK VINA RESULT:     -11.3      4.565     10.714
REMARK  Name = 9799284
REMARK  5 active torsions:
REMARK  status: ('A' for Active; 'I' for Inactive)
REMARK    1  A    between atoms: N_1  and  C_19
REMARK    2  A    between atoms: C_2  and  C_8
REMARK    3  A    between atoms: C_8  and  N_10
REMARK    4  A    between atoms: C_19  and  C_21
REMARK    5  A    between atoms: C_21  and  C_23
REMARK                            x       y       z     vdW  Elec       q    Type
REMARK                         _______ _______ _______ _____ _____    ______ ____
ROOT
ATOM      1  N   UNL     1      35.447 -21.368 -19.377  0.00  0.00    +0.392 N 
ATOM      2  C   UNL     1      35.562 -19.121 -21.257  0.00  0.00    +0.016 C 
ATOM      3  C   UNL     1      36.815 -19.873 -20.796  0.00  0.00    -0.021 C 
ATOM      4  C   UNL     1      34.337 -20.035 -21.142  0.00  0.00    -0.021 C 
ATOM      5  C   UNL     1      36.619 -20.483 -19.407  0.00  0.00    -0.077 C 
ATOM      6  C   UNL     1      34.224 -20.640 -19.741  0.00  0.00    -0.077 C 
ATOM      7  H   UNL     1      35.591 -22.105 -20.067  0.00  0.00    -0.079 HD
ENDROOT
BRANCH   2   8
ATOM      8  C   UNL     1      35.726 -18.601 -22.682  0.00  0.00    +0.094 C 
BRANCH   8  10
ATOM      9  O   UNL     1      34.478 -17.248 -25.075  0.00  0.00    -0.270 OA
ATOM     10  N   UNL     1      35.178 -17.285 -22.815  0.00  0.00    -0.272 N 
ATOM     11  C   UNL     1      35.149 -16.340 -21.694  0.00  0.00    +0.121 C 
ATOM     12  C   UNL     1      34.616 -16.743 -23.977  0.00  0.00    +0.249 C 
ATOM     13  C   UNL     1      34.501 -15.142 -22.299  0.00  0.00    +0.002 C 
ATOM     14  C   UNL     1      34.189 -15.381 -23.638  0.00  0.00    +0.051 C 
ATOM     15  C   UNL     1      34.203 -13.924 -21.720  0.00  0.00    -0.002 C 
ATOM     16  C   UNL     1      33.579 -14.437 -24.442  0.00  0.00    +0.004 C 
ATOM     17  C   UNL     1      33.585 -12.950 -22.511  0.00  0.00    -0.000 C 
ATOM     18  C   UNL     1      33.276 -13.205 -23.860  0.00  0.00    +0.000 C 
ENDBRANCH   8  10
ENDBRANCH   2   8
BRANCH   1  19
ATOM     19  C   UNL     1      35.303 -21.983 -18.058  0.00  0.00    -0.006 C 
BRANCH  19  21
ATOM     20  O   UNL     1      33.890 -23.658 -19.069  0.00  0.00    -0.294 OA
ATOM     21  C   UNL     1      34.141 -22.959 -18.090  0.00  0.00    +0.152 C 
BRANCH  21  23
ATOM     22  F   UNL     1      30.898 -23.371 -13.564  0.00  0.00    -0.204 F 
ATOM     23  C   UNL     1      33.273 -23.070 -16.879  0.00  0.00    +0.033 C 
ATOM     24  C   UNL     1      33.857 -23.407 -15.680  0.00  0.00    +0.005 C 
ATOM     25  C   UNL     1      31.925 -22.830 -17.011  0.00  0.00    +0.005 C 
ATOM     26  C   UNL     1      33.047 -23.510 -14.548  0.00  0.00    +0.030 C 
ATOM     27  C   UNL     1      31.115 -22.932 -15.881  0.00  0.00    +0.030 C 
ATOM     28  C   UNL     1      31.676 -23.272 -14.649  0.00  0.00    +0.140 C 
ENDBRANCH  21  23
ENDBRANCH  19  21
ENDBRANCH   1  19
TORSDOF 5
ENDMDL
MODEL 4
REMARK VINA RESULT:     -11.2      3.455     10.077
REMARK  Name = 9799284
REMARK  5 active torsions:
REMARK  status: ('A' for Active; 'I' for Inactive)
REMARK    1  A    between atoms: N_1  and  C_19
REMARK    2  A    between atoms: C_2  and  C_8
REMARK    3  A    between atoms: C_8  and  N_10
REMARK    4  A    between atoms: C_19  and  C_21
REMARK    5  A    between atoms: C_21  and  C_23
REMARK                            x       y       z     vdW  Elec       q    Type
REMARK                         _______ _______ _______ _____ _____    ______ ____
ROOT
ATOM      1  N   UNL     1      34.268 -15.884 -23.367  0.00  0.00    +0.392 N 
ATOM      2  C   UNL     1      33.432 -13.126 -22.831  0.00  0.00    +0.016 C 
ATOM      3  C   UNL     1      33.032 -13.873 -24.108  0.00  0.00    -0.021 C 
ATOM      4  C   UNL     1      33.718 -14.131 -21.710  0.00  0.00    -0.021 C 
ATOM      5  C   UNL     1      34.065 -14.940 -24.474  0.00  0.00    -0.077 C 
ATOM      6  C   UNL     1      34.728 -15.190 -22.156  0.00  0.00    -0.077 C 
ATOM      7  H   UNL     1      33.371 -16.322 -23.157  0.00  0.00    -0.079 HD
ENDROOT
BRANCH   2   8
ATOM      8  C   UNL     1      32.351 -12.132 -22.414  0.00  0.00    +0.094 C 
BRANCH   8  10
ATOM      9  O   UNL     1      31.486  -9.591 -21.032  0.00  0.00    -0.270 OA
ATOM     10  N   UNL     1      32.793 -10.783 -22.605  0.00  0.00    -0.272 N 
ATOM     11  C   UNL     1      33.822 -10.436 -23.589  0.00  0.00    +0.121 C 
ATOM     12  C   UNL     1      32.328  -9.661 -21.908  0.00  0.00    +0.249 C 
ATOM     13  C   UNL     1      33.942  -8.960 -23.422  0.00  0.00    +0.002 C 
ATOM     14  C   UNL     1      33.065  -8.508 -22.436  0.00  0.00    +0.051 C 
ATOM     15  C   UNL     1      34.763  -8.069 -24.087  0.00  0.00    -0.002 C 
ATOM     16  C   UNL     1      32.968  -7.178 -22.076  0.00  0.00    +0.004 C 
ATOM     17  C   UNL     1      34.685  -6.716 -23.742  0.00  0.00    -0.000 C 
ATOM     18  C   UNL     1      33.795  -6.275 -22.745  0.00  0.00    +0.000 C 
ENDBRANCH   8  10
ENDBRANCH   2   8
BRANCH   1  19
ATOM     19  C   UNL     1      35.218 -16.928 -23.751  0.00  0.00    -0.006 C 
BRANCH  19  21
ATOM     20  O   UNL     1      33.774 -18.855 -23.914  0.00  0.00    -0.294 OA
ATOM     21  C   UNL     1      34.677 -18.277 -23.313  0.00  0.00    +0.152 C 
BRANCH  21  23
ATOM     22  F   UNL     1      36.897 -20.692 -18.795  0.00  0.00    -0.204 F 
ATOM     23  C   UNL     1      35.271 -18.922 -22.104  0.00  0.00    +0.033 C 
ATOM     24  C   UNL     1      34.504 -19.815 -21.392  0.00  0.00    +0.005 C 
ATOM     25  C   UNL     1      36.560 -18.600 -21.751  0.00  0.00    +0.005 C 
ATOM     26  C   UNL     1      35.058 -20.420 -20.263  0.00  0.00    +0.030 C 
ATOM     27  C   UNL     1      37.115 -19.203 -20.624  0.00  0.00    +0.030 C 
ATOM     28  C   UNL     1      36.364 -20.113 -19.879  0.00  0.00    +0.140 C 
ENDBRANCH  21  23
ENDBRANCH  19  21
ENDBRANCH   1  19
TORSDOF 5
ENDMDL
MODEL 5
REMARK VINA RESULT:     -11.0      3.477     10.257
REMARK  Name = 9799284
REMARK  5 active torsions:
REMARK  status: ('A' for Active; 'I' for Inactive)
REMARK    1  A    between atoms: N_1  and  C_19
REMARK    2  A    between atoms: C_2  and  C_8
REMARK    3  A    between atoms: C_8  and  N_10
REMARK    4  A    between atoms: C_19  and  C_21
REMARK    5  A    between atoms: C_21  and  C_23
REMARK                            x       y       z     vdW  Elec       q    Type
REMARK                         _______ _______ _______ _____ _____    ______ ____
ROOT
ATOM      1  N   UNL     1      34.667 -16.139 -21.863  0.00  0.00    +0.392 N 
ATOM      2  C   UNL     1      33.663 -13.469 -22.539  0.00  0.00    +0.016 C 
ATOM      3  C   UNL     1      33.827 -14.575 -23.586  0.00  0.00    -0.021 C 
ATOM      4  C   UNL     1      33.474 -14.092 -21.152  0.00  0.00    -0.021 C 
ATOM      5  C   UNL     1      34.927 -15.560 -23.188  0.00  0.00    -0.077 C 
ATOM      6  C   UNL     1      34.586 -15.094 -20.834  0.00  0.00    -0.077 C 
ATOM      7  H   UNL     1      33.766 -16.616 -21.899  0.00  0.00    -0.079 HD
ENDROOT
BRANCH   2   8
ATOM      8  C   UNL     1      32.499 -12.547 -22.890  0.00  0.00    +0.094 C 
BRANCH   8  10
ATOM      9  O   UNL     1      34.542 -11.174 -24.637  0.00  0.00    -0.270 OA
ATOM     10  N   UNL     1      32.917 -11.178 -22.916  0.00  0.00    -0.272 N 
ATOM     11  C   UNL     1      32.348 -10.175 -22.011  0.00  0.00    +0.121 C 
ATOM     12  C   UNL     1      33.881 -10.631 -23.771  0.00  0.00    +0.249 C 
ATOM     13  C   UNL     1      33.075  -8.935 -22.406  0.00  0.00    +0.002 C 
ATOM     14  C   UNL     1      33.974  -9.206 -23.439  0.00  0.00    +0.051 C 
ATOM     15  C   UNL     1      32.960  -7.656 -21.898  0.00  0.00    -0.002 C 
ATOM     16  C   UNL     1      34.780  -8.234 -23.999  0.00  0.00    +0.004 C 
ATOM     17  C   UNL     1      33.766  -6.653 -22.447  0.00  0.00    -0.000 C 
ATOM     18  C   UNL     1      34.668  -6.940 -23.489  0.00  0.00    +0.000 C 
ENDBRANCH   8  10
ENDBRANCH   2   8
BRANCH   1  19
ATOM     19  C   UNL     1      35.699 -17.117 -21.520  0.00  0.00    -0.006 C 
BRANCH  19  21
ATOM     20  O   UNL     1      34.834 -18.778 -23.041  0.00  0.00    -0.294 OA
ATOM     21  C   UNL     1      35.218 -18.503 -21.907  0.00  0.00    +0.152 C 
BRANCH  21  23
ATOM     22  F   UNL     1      35.207 -22.499 -18.007  0.00  0.00    -0.204 F 
ATOM     23  C   UNL     1      35.216 -19.571 -20.863  0.00  0.00    +0.033 C 
ATOM     24  C   UNL     1      34.010 -20.111 -20.477  0.00  0.00    +0.005 C 
ATOM     25  C   UNL     1      36.417 -19.974 -20.329  0.00  0.00    +0.005 C 
ATOM     26  C   UNL     1      34.007 -21.110 -19.503  0.00  0.00    +0.030 C 
ATOM     27  C   UNL     1      36.415 -20.972 -19.356  0.00  0.00    +0.030 C 
ATOM     28  C   UNL     1      35.210 -21.540 -18.942  0.00  0.00    +0.140 C 
ENDBRANCH  21  23
ENDBRANCH  19  21
ENDBRANCH   1  19
TORSDOF 5
ENDMDL
MODEL 6
REMARK VINA RESULT:     -11.0      3.733      6.788
REMARK  Name = 9799284
REMARK  5 active torsions:
REMARK  status: ('A' for Active; 'I' for Inactive)
REMARK    1  A    between atoms: N_1  and  C_19
REMARK    2  A    between atoms: C_2  and  C_8
REMARK    3  A    between atoms: C_8  and  N_10
REMARK    4  A    between atoms: C_19  and  C_21
REMARK    5  A    between atoms: C_21  and  C_23
REMARK                            x       y       z     vdW  Elec       q    Type
REMARK                         _______ _______ _______ _____ _____    ______ ____
ROOT
ATOM      1  N   UNL     1      35.337 -19.862 -20.787  0.00  0.00    +0.392 N 
ATOM      2  C   UNL     1      34.313 -21.800 -18.840  0.00  0.00    +0.016 C 
ATOM      3  C   UNL     1      33.419 -21.150 -19.902  0.00  0.00    -0.021 C 
ATOM      4  C   UNL     1      35.768 -21.809 -19.322  0.00  0.00    -0.021 C 
ATOM      5  C   UNL     1      33.951 -19.775 -20.310  0.00  0.00    -0.077 C 
ATOM      6  C   UNL     1      36.221 -20.412 -19.750  0.00  0.00    -0.077 C 
ATOM      7  H   UNL     1      35.357 -20.497 -21.585  0.00  0.00    -0.079 HD
ENDROOT
BRANCH   2   8
ATOM      8  C   UNL     1      33.836 -23.212 -18.510  0.00  0.00    +0.094 C 
BRANCH   8  10
ATOM      9  O   UNL     1      35.162 -23.961 -15.903  0.00  0.00    -0.270 OA
ATOM     10  N   UNL     1      33.295 -23.274 -17.185  0.00  0.00    -0.272 N 
ATOM     11  C   UNL     1      31.895 -22.948 -16.904  0.00  0.00    +0.121 C 
ATOM     12  C   UNL     1      33.996 -23.636 -16.028  0.00  0.00    +0.249 C 
ATOM     13  C   UNL     1      31.807 -23.150 -15.430  0.00  0.00    +0.002 C 
ATOM     14  C   UNL     1      33.041 -23.554 -14.919  0.00  0.00    +0.051 C 
ATOM     15  C   UNL     1      30.721 -22.993 -14.589  0.00  0.00    -0.002 C 
ATOM     16  C   UNL     1      33.245 -23.812 -13.577  0.00  0.00    +0.004 C 
ATOM     17  C   UNL     1      30.900 -23.248 -13.226  0.00  0.00    -0.000 C 
ATOM     18  C   UNL     1      32.151 -23.654 -12.724  0.00  0.00    +0.000 C 
ENDBRANCH   8  10
ENDBRANCH   2   8
BRANCH   1  19
ATOM     19  C   UNL     1      35.813 -18.550 -21.222  0.00  0.00    -0.006 C 
BRANCH  19  21
ATOM     20  O   UNL     1      35.399 -19.182 -23.513  0.00  0.00    -0.294 OA
ATOM     21  C   UNL     1      35.364 -18.307 -22.651  0.00  0.00    +0.152 C 
BRANCH  21  23
ATOM     22  F   UNL     1      33.486 -13.231 -24.021  0.00  0.00    -0.204 F 
ATOM     23  C   UNL     1      34.861 -16.950 -23.018  0.00  0.00    +0.033 C 
ATOM     24  C   UNL     1      34.893 -15.957 -22.065  0.00  0.00    +0.005 C 
ATOM     25  C   UNL     1      34.386 -16.745 -24.292  0.00  0.00    +0.005 C 
ATOM     26  C   UNL     1      34.425 -14.688 -22.407  0.00  0.00    +0.030 C 
ATOM     27  C   UNL     1      33.918 -15.477 -24.635  0.00  0.00    +0.030 C 
ATOM     28  C   UNL     1      33.937 -14.449 -23.693  0.00  0.00    +0.140 C 
ENDBRANCH  21  23
ENDBRANCH  19  21
ENDBRANCH   1  19
TORSDOF 5
ENDMDL
MODEL 7
REMARK VINA RESULT:     -10.5      3.194      5.742
REMARK  Name = 9799284
REMARK  5 active torsions:
REMARK  status: ('A' for Active; 'I' for Inactive)
REMARK    1  A    between atoms: N_1  and  C_19
REMARK    2  A    between atoms: C_2  and  C_8
REMARK    3  A    between atoms: C_8  and  N_10
REMARK    4  A    between atoms: C_19  and  C_21
REMARK    5  A    between atoms: C_21  and  C_23
REMARK                            x       y       z     vdW  Elec       q    Type
REMARK                         _______ _______ _______ _____ _____    ______ ____
ROOT
ATOM      1  N   UNL     1      33.746  -8.429 -23.184  0.00  0.00    +0.392 N 
ATOM      2  C   UNL     1      33.728 -11.332 -23.593  0.00  0.00    +0.016 C 
ATOM      3  C   UNL     1      32.540 -10.580 -22.982  0.00  0.00    -0.021 C 
ATOM      4  C   UNL     1      34.544 -10.382 -24.476  0.00  0.00    -0.021 C 
ATOM      5  C   UNL     1      32.996  -9.304 -22.273  0.00  0.00    -0.077 C 
ATOM      6  C   UNL     1      34.933  -9.112 -23.717  0.00  0.00    -0.077 C 
ATOM      7  H   UNL     1      33.138  -8.197 -23.969  0.00  0.00    -0.079 HD
ENDROOT
BRANCH   2   8
ATOM      8  C   UNL     1      33.259 -12.550 -24.384  0.00  0.00    +0.094 C 
BRANCH   8  10
ATOM      9  O   UNL     1      33.801 -15.230 -25.664  0.00  0.00    -0.270 OA
ATOM     10  N   UNL     1      33.763 -13.761 -23.809  0.00  0.00    -0.272 N 
ATOM     11  C   UNL     1      34.114 -13.858 -22.389  0.00  0.00    +0.121 C 
ATOM     12  C   UNL     1      33.983 -14.964 -24.491  0.00  0.00    +0.249 C 
ATOM     13  C   UNL     1      34.580 -15.268 -22.268  0.00  0.00    +0.002 C 
ATOM     14  C   UNL     1      34.501 -15.915 -23.502  0.00  0.00    +0.051 C 
ATOM     15  C   UNL     1      35.042 -15.943 -21.154  0.00  0.00    -0.002 C 
ATOM     16  C   UNL     1      34.872 -17.234 -23.677  0.00  0.00    +0.004 C 
ATOM     17  C   UNL     1      35.423 -17.281 -21.304  0.00  0.00    -0.000 C 
ATOM     18  C   UNL     1      35.339 -17.920 -22.555  0.00  0.00    +0.000 C 
ENDBRANCH   8  10
ENDBRANCH   2   8
BRANCH   1  19
ATOM     19  C   UNL     1      34.129  -7.191 -22.506  0.00  0.00    -0.006 C 
BRANCH  19  21
ATOM     20  O   UNL     1      32.366  -5.548 -22.383  0.00  0.00    -0.294 OA
ATOM     21  C   UNL     1      33.277  -6.052 -23.035  0.00  0.00    +0.152 C 
BRANCH  21  23
ATOM     22  F   UNL     1      34.349  -4.083 -28.149  0.00  0.00    -0.204 F 
ATOM     23  C   UNL     1      33.564  -5.526 -24.404  0.00  0.00    +0.033 C 
ATOM     24  C   UNL     1      32.513  -5.073 -25.168  0.00  0.00    +0.005 C 
ATOM     25  C   UNL     1      34.866  -5.514 -24.845  0.00  0.00    +0.005 C 
ATOM     26  C   UNL     1      32.781  -4.581 -26.446  0.00  0.00    +0.030 C 
ATOM     27  C   UNL     1      35.135  -5.022 -26.122  0.00  0.00    +0.030 C 
ATOM     28  C   UNL     1      34.092  -4.556 -26.923  0.00  0.00    +0.140 C 
ENDBRANCH  21  23
ENDBRANCH  19  21
ENDBRANCH   1  19
TORSDOF 5
ENDMDL
MODEL 8
REMARK VINA RESULT:     -10.4      2.620      4.301
REMARK  Name = 9799284
REMARK  5 active torsions:
REMARK  status: ('A' for Active; 'I' for Inactive)
REMARK    1  A    between atoms: N_1  and  C_19
REMARK    2  A    between atoms: C_2  and  C_8
REMARK    3  A    between atoms: C_8  and  N_10
REMARK    4  A    between atoms: C_19  and  C_21
REMARK    5  A    between atoms: C_21  and  C_23
REMARK                            x       y       z     vdW  Elec       q    Type
REMARK                         _______ _______ _______ _____ _____    ______ ____
ROOT
ATOM      1  N   UNL     1      32.587 -10.389 -22.866  0.00  0.00    +0.392 N 
ATOM      2  C   UNL     1      33.612 -13.032 -23.611  0.00  0.00    +0.016 C 
ATOM      3  C   UNL     1      32.350 -12.849 -22.761  0.00  0.00    -0.021 C 
ATOM      4  C   UNL     1      33.840 -11.788 -24.476  0.00  0.00    -0.021 C 
ATOM      5  C   UNL     1      32.395 -11.539 -21.973  0.00  0.00    -0.077 C 
ATOM      6  C   UNL     1      33.835 -10.514 -23.631  0.00  0.00    -0.077 C 
ATOM      7  H   UNL     1      31.812 -10.373 -23.530  0.00  0.00    -0.079 HD
ENDROOT
BRANCH   2   8
ATOM      8  C   UNL     1      33.518 -14.290 -24.471  0.00  0.00    +0.094 C 
BRANCH   8  10
ATOM      9  O   UNL     1      33.464 -17.214 -25.219  0.00  0.00    -0.270 OA
ATOM     10  N   UNL     1      34.034 -15.429 -23.773  0.00  0.00    -0.272 N 
ATOM     11  C   UNL     1      34.721 -15.304 -22.485  0.00  0.00    +0.121 C 
ATOM     12  C   UNL     1      33.959 -16.759 -24.205  0.00  0.00    +0.249 C 
ATOM     13  C   UNL     1      35.066 -16.717 -22.165  0.00  0.00    +0.002 C 
ATOM     14  C   UNL     1      34.618 -17.569 -23.175  0.00  0.00    +0.051 C 
ATOM     15  C   UNL     1      35.728 -17.228 -21.064  0.00  0.00    -0.002 C 
ATOM     16  C   UNL     1      34.806 -18.937 -23.135  0.00  0.00    +0.004 C 
ATOM     17  C   UNL     1      35.931 -18.610 -20.999  0.00  0.00    -0.000 C 
ATOM     18  C   UNL     1      35.474 -19.457 -22.026  0.00  0.00    +0.000 C 
ENDBRANCH   8  10
ENDBRANCH   2   8
BRANCH   1  19
ATOM     19  C   UNL     1      32.576  -9.141 -22.104  0.00  0.00    -0.006 C 
BRANCH  19  21
ATOM     20  O   UNL     1      30.609  -8.068 -23.001  0.00  0.00    -0.294 OA
ATOM     21  C   UNL     1      31.833  -8.081 -22.897  0.00  0.00    +0.152 C 
BRANCH  21  23
ATOM     22  F   UNL     1      34.805  -4.092 -25.434  0.00  0.00    -0.204 F 
ATOM     23  C   UNL     1      32.629  -7.015 -23.576  0.00  0.00    +0.033 C 
ATOM     24  C   UNL     1      31.972  -6.127 -24.398  0.00  0.00    +0.005 C 
ATOM     25  C   UNL     1      33.984  -6.961 -23.353  0.00  0.00    +0.005 C 
ATOM     26  C   UNL     1      32.714  -5.129 -25.031  0.00  0.00    +0.030 C 
ATOM     27  C   UNL     1      34.727  -5.965 -23.986  0.00  0.00    +0.030 C 
ATOM     28  C   UNL     1      34.092  -5.049 -24.825  0.00  0.00    +0.140 C 
ENDBRANCH  21  23
ENDBRANCH  19  21
ENDBRANCH   1  19
TORSDOF 5
ENDMDL
MODEL 9
REMARK VINA RESULT:     -10.4      5.200     11.047
REMARK  Name = 9799284
REMARK  5 active torsions:
REMARK  status: ('A' for Active; 'I' for Inactive)
REMARK    1  A    between atoms: N_1  and  C_19
REMARK    2  A    between atoms: C_2  and  C_8
REMARK    3  A    between atoms: C_8  and  N_10
REMARK    4  A    between atoms: C_19  and  C_21
REMARK    5  A    between atoms: C_21  and  C_23
REMARK                            x       y       z     vdW  Elec       q    Type
REMARK                         _______ _______ _______ _____ _____    ______ ____
ROOT
ATOM      1  N   UNL     1      34.030 -21.856 -18.719  0.00  0.00    +0.392 N 
ATOM      2  C   UNL     1      35.734 -20.173 -20.410  0.00  0.00    +0.016 C 
ATOM      3  C   UNL     1      34.270 -19.828 -20.116  0.00  0.00    -0.021 C 
ATOM      4  C   UNL     1      36.298 -21.044 -19.282  0.00  0.00    -0.021 C 
ATOM      5  C   UNL     1      33.449 -21.087 -19.828  0.00  0.00    -0.077 C 
ATOM      6  C   UNL     1      35.410 -22.261 -19.021  0.00  0.00    -0.077 C 
ATOM      7  H   UNL     1      34.052 -21.255 -17.896  0.00  0.00    -0.079 HD
ENDROOT
BRANCH   2   8
ATOM      8  C   UNL     1      36.569 -18.910 -20.599  0.00  0.00    +0.094 C 
BRANCH   8  10
ATOM      9  O   UNL     1      35.260 -16.277 -19.915  0.00  0.00    -0.270 OA
ATOM     10  N   UNL     1      35.895 -17.969 -21.442  0.00  0.00    -0.272 N 
ATOM     11  C   UNL     1      35.743 -18.190 -22.883  0.00  0.00    +0.121 C 
ATOM     12  C   UNL     1      35.315 -16.764 -21.028  0.00  0.00    +0.249 C 
ATOM     13  C   UNL     1      34.998 -16.975 -23.318  0.00  0.00    +0.002 C 
ATOM     14  C   UNL     1      34.748 -16.140 -22.228  0.00  0.00    +0.051 C 
ATOM     15  C   UNL     1      34.566 -16.620 -24.582  0.00  0.00    -0.002 C 
ATOM     16  C   UNL     1      34.072 -14.942 -22.346  0.00  0.00    +0.004 C 
ATOM     17  C   UNL     1      33.879 -15.411 -24.730  0.00  0.00    -0.000 C 
ATOM     18  C   UNL     1      33.634 -14.579 -23.621  0.00  0.00    +0.000 C 
ENDBRANCH   8  10
ENDBRANCH   2   8
BRANCH   1  19
ATOM     19  C   UNL     1      33.206 -23.027 -18.421  0.00  0.00    -0.006 C 
BRANCH  19  21
ATOM     20  O   UNL     1      31.318 -22.152 -17.200  0.00  0.00    -0.294 OA
ATOM     21  C   UNL     1      32.389 -22.754 -17.172  0.00  0.00    +0.152 C 
BRANCH  21  23
ATOM     22  F   UNL     1      34.346 -24.566 -12.267  0.00  0.00    -0.204 F 
ATOM     23  C   UNL     1      32.912 -23.240 -15.860  0.00  0.00    +0.033 C 
ATOM     24  C   UNL     1      34.273 -23.373 -15.703  0.00  0.00    +0.005 C 
ATOM     25  C   UNL     1      32.014 -23.533 -14.860  0.00  0.00    +0.005 C 
ATOM     26  C   UNL     1      34.762 -23.825 -14.477  0.00  0.00    +0.030 C 
ATOM     27  C   UNL     1      32.503 -23.985 -13.635  0.00  0.00    +0.030 C 
ATOM     28  C   UNL     1      33.877 -24.131 -13.444  0.00  0.00    +0.140 C 
ENDBRANCH  21  23
ENDBRANCH  19  21
ENDBRANCH   1  19
TORSDOF 5
ENDMDL
