MODEL 1
REMARK VINA RESULT:     -12.3      0.000      0.000
REMARK  Name = 6419766
REMARK  1 active torsions:
REMARK  status: ('A' for Active; 'I' for Inactive)
REMARK    1  A    between atoms: C_9  and  C_20
REMARK                            x       y       z     vdW  Elec       q    Type
REMARK                         _______ _______ _______ _____ _____    ______ ____
ROOT
ATOM      1  N   UNL     1      34.192 -24.185 -14.161  0.00  0.00    -0.274 N 
ATOM      2  N   UNL     1      33.943 -23.060 -16.213  0.00  0.00    -0.328 NA
ATOM      3  N   UNL     1      31.758 -22.705 -17.163  0.00  0.00    -0.343 NA
ATOM      4  N   UNL     1      37.396 -25.247 -14.749  0.00  0.00    -0.239 N 
ATOM      5  N   UNL     1      36.258 -24.738 -15.249  0.00  0.00    -0.166 NA
ATOM      6  C   UNL     1      31.968 -23.855 -15.070  0.00  0.00    +0.143 C 
ATOM      7  C   UNL     1      33.345 -23.684 -15.181  0.00  0.00    +0.185 C 
ATOM      8  C   UNL     1      31.192 -23.333 -16.118  0.00  0.00    +0.133 C 
ATOM      9  C   UNL     1      33.103 -22.603 -17.155  0.00  0.00    +0.138 C 
ATOM     10  C   UNL     1      35.511 -24.665 -14.176  0.00  0.00    +0.152 C 
ATOM     11  C   UNL     1      31.366 -24.511 -13.981  0.00  0.00    -0.011 C 
ATOM     12  C   UNL     1      29.811 -23.486 -16.041  0.00  0.00    +0.029 C 
ATOM     13  C   UNL     1      36.097 -25.098 -12.999  0.00  0.00    +0.048 C 
ATOM     14  C   UNL     1      37.353 -25.481 -13.406  0.00  0.00    +0.046 C 
ATOM     15  C   UNL     1      29.983 -24.649 -13.931  0.00  0.00    -0.004 C 
ATOM     16  C   UNL     1      29.204 -24.137 -14.962  0.00  0.00    +0.002 C 
ATOM     17  C   UNL     1      38.499 -26.037 -12.668  0.00  0.00    +0.049 C 
ATOM     18  H   UNL     1      33.775 -24.198 -13.270  0.00  0.00    +0.156 HD
ATOM     19  H   UNL     1      38.189 -25.434 -15.301  0.00  0.00    +0.174 HD
ENDROOT
BRANCH   9  20
ATOM     20  C   UNL     1      33.700 -21.929 -18.277  0.00  0.00    +0.086 C 
ATOM     21  C   UNL     1      32.910 -21.174 -19.149  0.00  0.00    +0.012 C 
ATOM     22  C   UNL     1      35.077 -22.023 -18.503  0.00  0.00    +0.012 C 
ATOM     23  C   UNL     1      33.489 -20.520 -20.235  0.00  0.00    +0.001 C 
ATOM     24  C   UNL     1      35.657 -21.369 -19.589  0.00  0.00    +0.001 C 
ATOM     25  C   UNL     1      34.863 -20.616 -20.456  0.00  0.00    +0.000 C 
ENDBRANCH   9  20
TORSDOF 1
ENDMDL
MODEL 2
REMARK VINA RESULT:     -11.6      1.291      4.957
REMARK  Name = 6419766
REMARK  1 active torsions:
REMARK  status: ('A' for Active; 'I' for Inactive)
REMARK    1  A    between atoms: C_9  and  C_20
REMARK                            x       y       z     vdW  Elec       q    Type
REMARK                         _______ _______ _______ _____ _____    ______ ____
ROOT
ATOM      1  N   UNL     1      35.713 -23.290 -15.700  0.00  0.00    -0.274 N 
ATOM      2  N   UNL     1      33.364 -23.380 -15.816  0.00  0.00    -0.328 NA
ATOM      3  N   UNL     1      32.187 -22.408 -17.679  0.00  0.00    -0.343 NA
ATOM      4  N   UNL     1      35.889 -23.551 -12.288  0.00  0.00    -0.239 N 
ATOM      5  N   UNL     1      35.132 -23.312 -13.372  0.00  0.00    -0.166 NA
ATOM      6  C   UNL     1      34.580 -22.296 -17.600  0.00  0.00    +0.143 C 
ATOM      7  C   UNL     1      34.514 -22.981 -16.390  0.00  0.00    +0.185 C 
ATOM      8  C   UNL     1      33.353 -22.023 -18.226  0.00  0.00    +0.133 C 
ATOM      9  C   UNL     1      32.255 -23.064 -16.503  0.00  0.00    +0.138 C 
ATOM     10  C   UNL     1      36.008 -23.444 -14.336  0.00  0.00    +0.152 C 
ATOM     11  C   UNL     1      35.795 -21.890 -18.181  0.00  0.00    -0.011 C 
ATOM     12  C   UNL     1      33.380 -21.340 -19.438  0.00  0.00    +0.029 C 
ATOM     13  C   UNL     1      37.299 -23.757 -13.945  0.00  0.00    +0.048 C 
ATOM     14  C   UNL     1      37.195 -23.822 -12.576  0.00  0.00    +0.046 C 
ATOM     15  C   UNL     1      35.791 -21.207 -19.393  0.00  0.00    -0.004 C 
ATOM     16  C   UNL     1      34.583 -20.932 -20.023  0.00  0.00    +0.002 C 
ATOM     17  C   UNL     1      38.186 -24.111 -11.528  0.00  0.00    +0.049 C 
ATOM     18  H   UNL     1      36.488 -23.424 -16.292  0.00  0.00    +0.156 HD
ATOM     19  H   UNL     1      35.535 -23.532 -11.371  0.00  0.00    +0.174 HD
ENDROOT
BRANCH   9  20
ATOM     20  C   UNL     1      31.002 -23.473 -15.925  0.00  0.00    +0.086 C 
ATOM     21  C   UNL     1      29.816 -22.825 -16.283  0.00  0.00    +0.012 C 
ATOM     22  C   UNL     1      30.961 -24.521 -15.000  0.00  0.00    +0.012 C 
ATOM     23  C   UNL     1      28.601 -23.222 -15.723  0.00  0.00    +0.001 C 
ATOM     24  C   UNL     1      29.748 -24.918 -14.441  0.00  0.00    +0.001 C 
ATOM     25  C   UNL     1      28.566 -24.269 -14.802  0.00  0.00    +0.000 C 
ENDBRANCH   9  20
TORSDOF 1
ENDMDL
MODEL 3
REMARK VINA RESULT:     -11.2      1.474      5.829
REMARK  Name = 6419766
REMARK  1 active torsions:
REMARK  status: ('A' for Active; 'I' for Inactive)
REMARK    1  A    between atoms: C_9  and  C_20
REMARK                            x       y       z     vdW  Elec       q    Type
REMARK                         _______ _______ _______ _____ _____    ______ ____
ROOT
ATOM      1  N   UNL     1      33.762 -22.788 -17.362  0.00  0.00    -0.274 N 
ATOM      2  N   UNL     1      35.096 -23.908 -15.780  0.00  0.00    -0.328 NA
ATOM      3  N   UNL     1      34.147 -24.705 -13.715  0.00  0.00    -0.343 NA
ATOM      4  N   UNL     1      36.343 -21.060 -18.811  0.00  0.00    -0.239 N 
ATOM      5  N   UNL     1      35.907 -21.791 -17.772  0.00  0.00    -0.166 NA
ATOM      6  C   UNL     1      32.753 -23.569 -15.301  0.00  0.00    +0.143 C 
ATOM      7  C   UNL     1      33.878 -23.442 -16.110  0.00  0.00    +0.185 C 
ATOM      8  C   UNL     1      32.943 -24.228 -14.075  0.00  0.00    +0.133 C 
ATOM      9  C   UNL     1      35.159 -24.519 -14.586  0.00  0.00    +0.138 C 
ATOM     10  C   UNL     1      34.671 -22.038 -18.127  0.00  0.00    +0.152 C 
ATOM     11  C   UNL     1      31.489 -23.073 -15.668  0.00  0.00    -0.011 C 
ATOM     12  C   UNL     1      31.839 -24.374 -13.238  0.00  0.00    +0.029 C 
ATOM     13  C   UNL     1      34.272 -21.509 -19.342  0.00  0.00    +0.048 C 
ATOM     14  C   UNL     1      35.402 -20.861 -19.779  0.00  0.00    +0.046 C 
ATOM     15  C   UNL     1      30.404 -23.233 -14.811  0.00  0.00    -0.004 C 
ATOM     16  C   UNL     1      30.579 -23.884 -13.595  0.00  0.00    +0.002 C 
ATOM     17  C   UNL     1      35.682 -20.085 -20.998  0.00  0.00    +0.049 C 
ATOM     18  H   UNL     1      32.874 -22.877 -17.776  0.00  0.00    +0.156 HD
ATOM     19  H   UNL     1      37.257 -20.700 -18.868  0.00  0.00    +0.174 HD
ENDROOT
BRANCH   9  20
ATOM     20  C   UNL     1      36.444 -25.033 -14.193  0.00  0.00    +0.086 C 
ATOM     21  C   UNL     1      37.207 -24.365 -13.232  0.00  0.00    +0.012 C 
ATOM     22  C   UNL     1      36.939 -26.208 -14.770  0.00  0.00    +0.012 C 
ATOM     23  C   UNL     1      38.452 -24.864 -12.850  0.00  0.00    +0.001 C 
ATOM     24  C   UNL     1      38.183 -26.707 -14.388  0.00  0.00    +0.001 C 
ATOM     25  C   UNL     1      38.941 -26.036 -13.428  0.00  0.00    +0.000 C 
ENDBRANCH   9  20
TORSDOF 1
ENDMDL
MODEL 4
REMARK VINA RESULT:     -11.1      0.894      1.029
REMARK  Name = 6419766
REMARK  1 active torsions:
REMARK  status: ('A' for Active; 'I' for Inactive)
REMARK    1  A    between atoms: C_9  and  C_20
REMARK                            x       y       z     vdW  Elec       q    Type
REMARK                         _______ _______ _______ _____ _____    ______ ____
ROOT
ATOM      1  N   UNL     1      35.308 -24.129 -14.098  0.00  0.00    -0.274 N 
ATOM      2  N   UNL     1      34.676 -23.077 -16.106  0.00  0.00    -0.328 NA
ATOM      3  N   UNL     1      32.366 -23.004 -16.782  0.00  0.00    -0.343 NA
ATOM      4  N   UNL     1      38.522 -24.806 -15.073  0.00  0.00    -0.239 N 
ATOM      5  N   UNL     1      37.278 -24.447 -15.430  0.00  0.00    -0.166 NA
ATOM      6  C   UNL     1      32.967 -24.085 -14.728  0.00  0.00    +0.143 C 
ATOM      7  C   UNL     1      34.288 -23.751 -15.008  0.00  0.00    +0.185 C 
ATOM      8  C   UNL     1      32.011 -23.678 -15.674  0.00  0.00    +0.133 C 
ATOM      9  C   UNL     1      33.678 -22.740 -16.939  0.00  0.00    +0.138 C 
ATOM     10  C   UNL     1      36.664 -24.446 -14.274  0.00  0.00    +0.152 C 
ATOM     11  C   UNL     1      32.586 -24.790 -13.572  0.00  0.00    -0.011 C 
ATOM     12  C   UNL     1      30.678 -23.995 -15.429  0.00  0.00    +0.029 C 
ATOM     13  C   UNL     1      37.437 -24.786 -13.177  0.00  0.00    +0.048 C 
ATOM     14  C   UNL     1      38.671 -25.022 -13.734  0.00  0.00    +0.046 C 
ATOM     15  C   UNL     1      31.246 -25.093 -13.354  0.00  0.00    -0.004 C 
ATOM     16  C   UNL     1      30.291 -24.696 -14.282  0.00  0.00    +0.002 C 
ATOM     17  C   UNL     1      39.957 -25.423 -13.141  0.00  0.00    +0.049 C 
ATOM     18  H   UNL     1      35.007 -24.178 -13.163  0.00  0.00    +0.156 HD
ATOM     19  H   UNL     1      39.259 -24.905 -15.718  0.00  0.00    +0.174 HD
ENDROOT
BRANCH   9  20
ATOM     20  C   UNL     1      34.049 -22.018 -18.127  0.00  0.00    +0.086 C 
ATOM     21  C   UNL     1      33.079 -21.338 -18.870  0.00  0.00    +0.012 C 
ATOM     22  C   UNL     1      35.382 -21.990 -18.547  0.00  0.00    +0.012 C 
ATOM     23  C   UNL     1      33.438 -20.637 -20.021  0.00  0.00    +0.001 C 
ATOM     24  C   UNL     1      35.742 -21.289 -19.697  0.00  0.00    +0.001 C 
ATOM     25  C   UNL     1      34.770 -20.611 -20.435  0.00  0.00    +0.000 C 
ENDBRANCH   9  20
TORSDOF 1
ENDMDL
MODEL 5
REMARK VINA RESULT:     -10.7      1.631      5.231
REMARK  Name = 6419766
REMARK  1 active torsions:
REMARK  status: ('A' for Active; 'I' for Inactive)
REMARK    1  A    between atoms: C_9  and  C_20
REMARK                            x       y       z     vdW  Elec       q    Type
REMARK                         _______ _______ _______ _____ _____    ______ ____
ROOT
ATOM      1  N   UNL     1      32.871 -23.972 -15.789  0.00  0.00    -0.274 N 
ATOM      2  N   UNL     1      34.027 -22.642 -17.348  0.00  0.00    -0.328 NA
ATOM      3  N   UNL     1      36.379 -22.195 -17.079  0.00  0.00    -0.343 NA
ATOM      4  N   UNL     1      29.786 -22.620 -16.419  0.00  0.00    -0.239 N 
ATOM      5  N   UNL     1      31.119 -22.521 -16.553  0.00  0.00    -0.166 NA
ATOM      6  C   UNL     1      35.238 -23.556 -15.468  0.00  0.00    +0.143 C 
ATOM      7  C   UNL     1      34.081 -23.370 -16.218  0.00  0.00    +0.185 C 
ATOM      8  C   UNL     1      36.398 -22.929 -15.953  0.00  0.00    +0.133 C 
ATOM      9  C   UNL     1      35.195 -22.091 -17.716  0.00  0.00    +0.138 C 
ATOM     10  C   UNL     1      31.525 -23.601 -15.933  0.00  0.00    +0.152 C 
ATOM     11  C   UNL     1      35.269 -24.322 -14.288  0.00  0.00    -0.011 C 
ATOM     12  C   UNL     1      37.576 -23.092 -15.229  0.00  0.00    +0.029 C 
ATOM     13  C   UNL     1      30.531 -24.404 -15.400  0.00  0.00    +0.048 C 
ATOM     14  C   UNL     1      29.381 -23.730 -15.736  0.00  0.00    +0.046 C 
ATOM     15  C   UNL     1      36.461 -24.467 -13.585  0.00  0.00    -0.004 C 
ATOM     16  C   UNL     1      37.615 -23.851 -14.055  0.00  0.00    +0.002 C 
ATOM     17  C   UNL     1      27.961 -24.021 -15.482  0.00  0.00    +0.049 C 
ATOM     18  H   UNL     1      33.000 -24.814 -15.295  0.00  0.00    +0.156 HD
ATOM     19  H   UNL     1      29.159 -21.954 -16.781  0.00  0.00    +0.174 HD
ENDROOT
BRANCH   9  20
ATOM     20  C   UNL     1      35.183 -21.303 -18.921  0.00  0.00    +0.086 C 
ATOM     21  C   UNL     1      33.975 -21.013 -19.561  0.00  0.00    +0.012 C 
ATOM     22  C   UNL     1      36.381 -20.822 -19.459  0.00  0.00    +0.012 C 
ATOM     23  C   UNL     1      33.964 -20.248 -20.728  0.00  0.00    +0.001 C 
ATOM     24  C   UNL     1      36.371 -20.058 -20.624  0.00  0.00    +0.001 C 
ATOM     25  C   UNL     1      35.162 -19.770 -21.260  0.00  0.00    +0.000 C 
ENDBRANCH   9  20
TORSDOF 1
ENDMDL
MODEL 6
REMARK VINA RESULT:     -10.4      1.852      6.547
REMARK  Name = 6419766
REMARK  1 active torsions:
REMARK  status: ('A' for Active; 'I' for Inactive)
REMARK    1  A    between atoms: C_9  and  C_20
REMARK                            x       y       z     vdW  Elec       q    Type
REMARK                         _______ _______ _______ _____ _____    ______ ____
ROOT
ATOM      1  N   UNL     1      36.595 -22.539 -16.262  0.00  0.00    -0.274 N 
ATOM      2  N   UNL     1      34.673 -23.333 -15.160  0.00  0.00    -0.328 NA
ATOM      3  N   UNL     1      34.850 -24.987 -13.418  0.00  0.00    -0.343 NA
ATOM      4  N   UNL     1      34.974 -21.618 -19.137  0.00  0.00    -0.239 N 
ATOM      5  N   UNL     1      34.941 -22.308 -17.985  0.00  0.00    -0.166 NA
ATOM      6  C   UNL     1      36.833 -24.203 -14.515  0.00  0.00    +0.143 C 
ATOM      7  C   UNL     1      36.012 -23.383 -15.283  0.00  0.00    +0.185 C 
ATOM      8  C   UNL     1      36.186 -25.013 -13.566  0.00  0.00    +0.133 C 
ATOM      9  C   UNL     1      34.166 -24.149 -14.223  0.00  0.00    +0.138 C 
ATOM     10  C   UNL     1      36.123 -22.043 -17.488  0.00  0.00    +0.152 C 
ATOM     11  C   UNL     1      38.231 -24.238 -14.662  0.00  0.00    -0.011 C 
ATOM     12  C   UNL     1      36.974 -25.847 -12.779  0.00  0.00    +0.029 C 
ATOM     13  C   UNL     1      36.930 -21.217 -18.250  0.00  0.00    +0.048 C 
ATOM     14  C   UNL     1      36.144 -20.947 -19.344  0.00  0.00    +0.046 C 
ATOM     15  C   UNL     1      38.993 -25.082 -13.862  0.00  0.00    -0.004 C 
ATOM     16  C   UNL     1      38.365 -25.888 -12.919  0.00  0.00    +0.002 C 
ATOM     17  C   UNL     1      36.378 -20.132 -20.547  0.00  0.00    +0.049 C 
ATOM     18  H   UNL     1      37.506 -22.241 -16.038  0.00  0.00    +0.156 HD
ATOM     19  H   UNL     1      34.224 -21.598 -19.773  0.00  0.00    +0.174 HD
ENDROOT
BRANCH   9  20
ATOM     20  C   UNL     1      32.736 -24.128 -14.057  0.00  0.00    +0.086 C 
ATOM     21  C   UNL     1      31.966 -23.155 -14.700  0.00  0.00    +0.012 C 
ATOM     22  C   UNL     1      32.106 -25.082 -13.251  0.00  0.00    +0.012 C 
ATOM     23  C   UNL     1      30.581 -23.135 -14.540  0.00  0.00    +0.001 C 
ATOM     24  C   UNL     1      30.722 -25.063 -13.091  0.00  0.00    +0.001 C 
ATOM     25  C   UNL     1      29.958 -24.090 -13.736  0.00  0.00    +0.000 C 
ENDBRANCH   9  20
TORSDOF 1
ENDMDL
MODEL 7
REMARK VINA RESULT:     -10.3      1.851      6.537
REMARK  Name = 6419766
REMARK  1 active torsions:
REMARK  status: ('A' for Active; 'I' for Inactive)
REMARK    1  A    between atoms: C_9  and  C_20
REMARK                            x       y       z     vdW  Elec       q    Type
REMARK                         _______ _______ _______ _____ _____    ______ ____
ROOT
ATOM      1  N   UNL     1      36.643 -22.524 -16.188  0.00  0.00    -0.274 N 
ATOM      2  N   UNL     1      34.686 -23.358 -15.182  0.00  0.00    -0.328 NA
ATOM      3  N   UNL     1      34.810 -25.031 -13.453  0.00  0.00    -0.343 NA
ATOM      4  N   UNL     1      35.137 -21.590 -19.121  0.00  0.00    -0.239 N 
ATOM      5  N   UNL     1      35.063 -22.295 -17.980  0.00  0.00    -0.166 NA
ATOM      6  C   UNL     1      36.827 -24.207 -14.453  0.00  0.00    +0.143 C 
ATOM      7  C   UNL     1      36.030 -23.389 -15.247  0.00  0.00    +0.185 C 
ATOM      8  C   UNL     1      36.151 -25.037 -13.543  0.00  0.00    +0.133 C 
ATOM      9  C   UNL     1      34.150 -24.193 -14.278  0.00  0.00    +0.138 C 
ATOM     10  C   UNL     1      36.218 -22.020 -17.428  0.00  0.00    +0.152 C 
ATOM     11  C   UNL     1      38.231 -24.221 -14.538  0.00  0.00    -0.011 C 
ATOM     12  C   UNL     1      36.916 -25.870 -12.732  0.00  0.00    +0.029 C 
ATOM     13  C   UNL     1      37.046 -21.173 -18.144  0.00  0.00    +0.048 C 
ATOM     14  C   UNL     1      36.305 -20.900 -19.269  0.00  0.00    +0.046 C 
ATOM     15  C   UNL     1      38.969 -25.064 -13.715  0.00  0.00    -0.004 C 
ATOM     16  C   UNL     1      38.312 -25.890 -12.811  0.00  0.00    +0.002 C 
ATOM     17  C   UNL     1      36.581 -20.068 -20.450  0.00  0.00    +0.049 C 
ATOM     18  H   UNL     1      37.539 -22.217 -15.921  0.00  0.00    +0.156 HD
ATOM     19  H   UNL     1      34.415 -21.573 -19.790  0.00  0.00    +0.174 HD
ENDROOT
BRANCH   9  20
ATOM     20  C   UNL     1      32.714 -24.193 -14.175  0.00  0.00    +0.086 C 
ATOM     21  C   UNL     1      32.079 -24.939 -13.178  0.00  0.00    +0.012 C 
ATOM     22  C   UNL     1      31.944 -23.446 -15.071  0.00  0.00    +0.012 C 
ATOM     23  C   UNL     1      30.688 -24.937 -13.077  0.00  0.00    +0.001 C 
ATOM     24  C   UNL     1      30.553 -23.444 -14.971  0.00  0.00    +0.001 C 
ATOM     25  C   UNL     1      29.924 -24.190 -13.973  0.00  0.00    +0.000 C 
ENDBRANCH   9  20
TORSDOF 1
ENDMDL
MODEL 8
REMARK VINA RESULT:      -9.8      1.816      5.335
REMARK  Name = 6419766
REMARK  1 active torsions:
REMARK  status: ('A' for Active; 'I' for Inactive)
REMARK    1  A    between atoms: C_9  and  C_20
REMARK                            x       y       z     vdW  Elec       q    Type
REMARK                         _______ _______ _______ _____ _____    ______ ____
ROOT
ATOM      1  N   UNL     1      33.398 -24.753 -13.622  0.00  0.00    -0.274 N 
ATOM      2  N   UNL     1      34.610 -23.545 -15.237  0.00  0.00    -0.328 NA
ATOM      3  N   UNL     1      36.800 -22.676 -14.734  0.00  0.00    -0.343 NA
ATOM      4  N   UNL     1      30.310 -24.059 -14.935  0.00  0.00    -0.239 N 
ATOM      5  N   UNL     1      31.621 -23.767 -14.897  0.00  0.00    -0.166 NA
ATOM      6  C   UNL     1      35.598 -23.903 -13.061  0.00  0.00    +0.143 C 
ATOM      7  C   UNL     1      34.570 -24.045 -13.987  0.00  0.00    +0.185 C 
ATOM      8  C   UNL     1      36.727 -23.189 -13.493  0.00  0.00    +0.133 C 
ATOM      9  C   UNL     1      35.737 -22.881 -15.538  0.00  0.00    +0.138 C 
ATOM     10  C   UNL     1      32.057 -24.640 -14.025  0.00  0.00    +0.152 C 
ATOM     11  C   UNL     1      35.532 -24.435 -11.760  0.00  0.00    -0.011 C 
ATOM     12  C   UNL     1      37.777 -23.026 -12.593  0.00  0.00    +0.029 C 
ATOM     13  C   UNL     1      31.105 -25.489 -13.488  0.00  0.00    +0.048 C 
ATOM     14  C   UNL     1      29.949 -25.083 -14.108  0.00  0.00    +0.046 C 
ATOM     15  C   UNL     1      36.596 -24.257 -10.882  0.00  0.00    -0.004 C 
ATOM     16  C   UNL     1      37.720 -23.551 -11.298  0.00  0.00    +0.002 C 
ATOM     17  C   UNL     1      28.559 -25.555 -14.004  0.00  0.00    +0.049 C 
ATOM     18  H   UNL     1      33.554 -25.463 -12.958  0.00  0.00    +0.156 HD
ATOM     19  H   UNL     1      29.668 -23.579 -15.506  0.00  0.00    +0.174 HD
ENDROOT
BRANCH   9  20
ATOM     20  C   UNL     1      35.823 -22.330 -16.865  0.00  0.00    +0.086 C 
ATOM     21  C   UNL     1      36.981 -21.663 -17.278  0.00  0.00    +0.012 C 
ATOM     22  C   UNL     1      34.750 -22.458 -17.752  0.00  0.00    +0.012 C 
ATOM     23  C   UNL     1      37.064 -21.130 -18.564  0.00  0.00    +0.001 C 
ATOM     24  C   UNL     1      34.833 -21.926 -19.038  0.00  0.00    +0.001 C 
ATOM     25  C   UNL     1      35.991 -21.262 -19.445  0.00  0.00    +0.000 C 
ENDBRANCH   9  20
TORSDOF 1
ENDMDL
MODEL 9
REMARK VINA RESULT:      -9.5      1.644      6.524
REMARK  Name = 6419766
REMARK  1 active torsions:
REMARK  status: ('A' for Active; 'I' for Inactive)
REMARK    1  A    between atoms: C_9  and  C_20
REMARK                            x       y       z     vdW  Elec       q    Type
REMARK                         _______ _______ _______ _____ _____    ______ ____
ROOT
ATOM      1  N   UNL     1      32.699 -23.062 -15.843  0.00  0.00    -0.274 N 
ATOM      2  N   UNL     1      34.807 -23.351 -14.839  0.00  0.00    -0.328 NA
ATOM      3  N   UNL     1      36.822 -22.758 -16.017  0.00  0.00    -0.343 NA
ATOM      4  N   UNL     1      31.111 -25.461 -13.981  0.00  0.00    -0.239 N 
ATOM      5  N   UNL     1      32.272 -24.925 -14.392  0.00  0.00    -0.166 NA
ATOM      6  C   UNL     1      34.694 -22.447 -17.077  0.00  0.00    +0.143 C 
ATOM      7  C   UNL     1      34.110 -22.952 -15.919  0.00  0.00    +0.185 C 
ATOM      8  C   UNL     1      36.096 -22.367 -17.079  0.00  0.00    +0.133 C 
ATOM      9  C   UNL     1      36.139 -23.229 -14.955  0.00  0.00    +0.138 C 
ATOM     10  C   UNL     1      31.853 -23.949 -15.157  0.00  0.00    +0.152 C 
ATOM     11  C   UNL     1      33.944 -22.035 -18.193  0.00  0.00    -0.011 C 
ATOM     12  C   UNL     1      36.716 -21.866 -18.221  0.00  0.00    +0.029 C 
ATOM     13  C   UNL     1      30.480 -23.814 -15.271  0.00  0.00    +0.048 C 
ATOM     14  C   UNL     1      30.007 -24.832 -14.480  0.00  0.00    +0.046 C 
ATOM     15  C   UNL     1      34.590 -21.539 -19.320  0.00  0.00    -0.004 C 
ATOM     16  C   UNL     1      35.978 -21.455 -19.335  0.00  0.00    +0.002 C 
ATOM     17  C   UNL     1      28.640 -25.267 -14.149  0.00  0.00    +0.049 C 
ATOM     18  H   UNL     1      32.219 -22.387 -16.374  0.00  0.00    +0.156 HD
ATOM     19  H   UNL     1      31.060 -26.236 -13.377  0.00  0.00    +0.174 HD
ENDROOT
BRANCH   9  20
ATOM     20  C   UNL     1      36.924 -23.645 -13.823  0.00  0.00    +0.086 C 
ATOM     21  C   UNL     1      36.657 -23.129 -12.552  0.00  0.00    +0.012 C 
ATOM     22  C   UNL     1      37.960 -24.571 -13.986  0.00  0.00    +0.012 C 
ATOM     23  C   UNL     1      37.417 -23.533 -11.454  0.00  0.00    +0.001 C 
ATOM     24  C   UNL     1      38.719 -24.976 -12.889  0.00  0.00    +0.001 C 
ATOM     25  C   UNL     1      38.448 -24.457 -11.622  0.00  0.00    +0.000 C 
ENDBRANCH   9  20
TORSDOF 1
ENDMDL
