MODEL 1
REMARK VINA RESULT:     -13.2      0.000      0.000
REMARK  Name = 16741238
REMARK  6 active torsions:
REMARK  status: ('A' for Active; 'I' for Inactive)
REMARK    1  A    between atoms: N_1  and  C_22
REMARK    2  A    between atoms: C_10  and  C_15
REMARK    3  A    between atoms: C_15  and  C_16
REMARK    4  A    between atoms: C_22  and  C_23
REMARK    5  A    between atoms: C_23  and  C_26
REMARK    6  A    between atoms: N_25  and  C_28
REMARK                            x       y       z     vdW  Elec       q    Type
REMARK                         _______ _______ _______ _____ _____    ______ ____
ROOT
ATOM      1  N   UNL     1      34.021 -14.036 -23.332  0.00  0.00    -0.249 N 
ATOM      2  N   UNL     1      33.877 -15.925 -24.813  0.00  0.00    -0.373 NA
ATOM      3  N   UNL     1      33.131 -13.849 -25.506  0.00  0.00    -0.321 N 
ATOM      4  C   UNL     1      34.627 -14.793 -22.235  0.00  0.00    +0.071 C 
ATOM      5  C   UNL     1      34.824 -16.245 -22.570  0.00  0.00    +0.045 C 
ATOM      6  C   UNL     1      33.692 -14.656 -24.541  0.00  0.00    +0.239 C 
ATOM      7  C   UNL     1      34.447 -16.744 -23.824  0.00  0.00    +0.136 C 
ATOM      8  C   UNL     1      35.389 -17.106 -21.619  0.00  0.00    +0.007 C 
ATOM      9  C   UNL     1      34.644 -18.101 -24.109  0.00  0.00    +0.032 C 
ATOM     10  C   UNL     1      35.580 -18.456 -21.913  0.00  0.00    +0.039 C 
ATOM     11  C   UNL     1      35.207 -18.953 -23.159  0.00  0.00    +0.006 C 
ATOM     12  H   UNL     1      32.984 -12.892 -25.323  0.00  0.00    +0.146 HD
ATOM     13  H   UNL     1      32.878 -14.228 -26.378  0.00  0.00    +0.146 HD
ENDROOT
BRANCH  10  15
ATOM     14  O   UNL     1      37.388 -19.318 -20.705  0.00  0.00    -0.287 OA
ATOM     15  C   UNL     1      36.166 -19.342 -20.921  0.00  0.00    +0.196 C 
BRANCH  15  16
ATOM     16  C   UNL     1      35.348 -20.305 -20.124  0.00  0.00    +0.039 C 
ATOM     17  C   UNL     1      35.973 -21.209 -19.266  0.00  0.00    +0.003 C 
ATOM     18  C   UNL     1      33.957 -20.300 -20.238  0.00  0.00    +0.003 C 
ATOM     19  C   UNL     1      35.209 -22.108 -18.522  0.00  0.00    +0.000 C 
ATOM     20  C   UNL     1      33.193 -21.199 -19.494  0.00  0.00    +0.000 C 
ATOM     21  C   UNL     1      33.820 -22.103 -18.636  0.00  0.00    +0.000 C 
ENDBRANCH  15  16
ENDBRANCH  10  15
BRANCH   1  22
ATOM     22  C   UNL     1      33.803 -12.619 -23.060  0.00  0.00    +0.109 C 
BRANCH  22  23
ATOM     23  C   UNL     1      32.397 -12.391 -22.511  0.00  0.00    +0.107 C 
BRANCH  23  26
ATOM     24  O   UNL     1      31.702 -10.830 -20.824  0.00  0.00    -0.275 OA
ATOM     25  N   UNL     1      32.543  -9.929 -22.787  0.00  0.00    -0.279 N 
ATOM     26  C   UNL     1      32.177 -10.989 -21.952  0.00  0.00    +0.227 C 
ATOM     27  C   UNL     1      33.103 -10.138 -24.120  0.00  0.00    +0.115 C 
BRANCH  25  28
ATOM     28  C   UNL     1      32.395  -8.547 -22.394  0.00  0.00    +0.075 C 
ATOM     29  C   UNL     1      31.172  -7.926 -23.071  0.00  0.00    +0.020 C 
ATOM     30  C   UNL     1      33.668  -7.756 -22.708  0.00  0.00    +0.020 C 
ATOM     31  C   UNL     1      31.020  -6.449 -22.715  0.00  0.00    +0.002 C 
ATOM     32  C   UNL     1      33.514  -6.279 -22.351  0.00  0.00    +0.002 C 
ATOM     33  C   UNL     1      32.292  -5.663 -23.025  0.00  0.00    +0.000 C 
ENDBRANCH  25  28
ENDBRANCH  23  26
ENDBRANCH  22  23
ENDBRANCH   1  22
TORSDOF 6
ENDMDL
MODEL 2
REMARK VINA RESULT:     -12.0      6.232     10.801
REMARK  Name = 16741238
REMARK  6 active torsions:
REMARK  status: ('A' for Active; 'I' for Inactive)
REMARK    1  A    between atoms: N_1  and  C_22
REMARK    2  A    between atoms: C_10  and  C_15
REMARK    3  A    between atoms: C_15  and  C_16
REMARK    4  A    between atoms: C_22  and  C_23
REMARK    5  A    between atoms: C_23  and  C_26
REMARK    6  A    between atoms: N_25  and  C_28
REMARK                            x       y       z     vdW  Elec       q    Type
REMARK                         _______ _______ _______ _____ _____    ______ ____
ROOT
ATOM      1  N   UNL     1      36.273 -22.565 -16.481  0.00  0.00    -0.249 N 
ATOM      2  N   UNL     1      36.671 -23.688 -14.392  0.00  0.00    -0.373 NA
ATOM      3  N   UNL     1      38.452 -23.052 -15.724  0.00  0.00    -0.321 N 
ATOM      4  C   UNL     1      34.816 -22.575 -16.344  0.00  0.00    +0.071 C 
ATOM      5  C   UNL     1      34.356 -23.236 -15.075  0.00  0.00    +0.045 C 
ATOM      6  C   UNL     1      37.095 -23.120 -15.495  0.00  0.00    +0.239 C 
ATOM      7  C   UNL     1      35.287 -23.756 -14.165  0.00  0.00    +0.136 C 
ATOM      8  C   UNL     1      32.984 -23.330 -14.799  0.00  0.00    +0.007 C 
ATOM      9  C   UNL     1      34.829 -24.364 -12.990  0.00  0.00    +0.032 C 
ATOM     10  C   UNL     1      32.540 -23.938 -13.625  0.00  0.00    +0.039 C 
ATOM     11  C   UNL     1      33.463 -24.456 -12.720  0.00  0.00    +0.006 C 
ATOM     12  H   UNL     1      38.791 -22.629 -16.546  0.00  0.00    +0.146 HD
ATOM     13  H   UNL     1      39.081 -23.426 -15.066  0.00  0.00    +0.146 HD
ENDROOT
BRANCH  10  15
ATOM     14  O   UNL     1      30.717 -24.246 -12.192  0.00  0.00    -0.287 OA
ATOM     15  C   UNL     1      31.117 -24.033 -13.347  0.00  0.00    +0.196 C 
BRANCH  15  16
ATOM     16  C   UNL     1      30.081 -23.879 -14.413  0.00  0.00    +0.039 C 
ATOM     17  C   UNL     1      29.520 -22.628 -14.666  0.00  0.00    +0.003 C 
ATOM     18  C   UNL     1      29.675 -24.988 -15.156  0.00  0.00    +0.003 C 
ATOM     19  C   UNL     1      28.554 -22.485 -15.662  0.00  0.00    +0.000 C 
ATOM     20  C   UNL     1      28.709 -24.845 -16.152  0.00  0.00    +0.000 C 
ATOM     21  C   UNL     1      28.148 -23.593 -16.404  0.00  0.00    +0.000 C 
ENDBRANCH  15  16
ENDBRANCH  10  15
BRANCH   1  22
ATOM     22  C   UNL     1      36.777 -21.939 -17.700  0.00  0.00    +0.109 C 
BRANCH  22  23
ATOM     23  C   UNL     1      35.619 -21.510 -18.597  0.00  0.00    +0.107 C 
BRANCH  23  26
ATOM     24  O   UNL     1      37.238 -20.391 -19.973  0.00  0.00    -0.275 OA
ATOM     25  N   UNL     1      35.013 -20.133 -20.572  0.00  0.00    -0.279 N 
ATOM     26  C   UNL     1      36.045 -20.631 -19.768  0.00  0.00    +0.227 C 
ATOM     27  C   UNL     1      33.606 -20.429 -20.312  0.00  0.00    +0.115 C 
BRANCH  25  28
ATOM     28  C   UNL     1      35.262 -19.290 -21.717  0.00  0.00    +0.075 C 
ATOM     29  C   UNL     1      35.325 -17.820 -21.296  0.00  0.00    +0.020 C 
ATOM     30  C   UNL     1      34.200 -19.516 -22.796  0.00  0.00    +0.020 C 
ATOM     31  C   UNL     1      35.534 -16.899 -22.496  0.00  0.00    +0.002 C 
ATOM     32  C   UNL     1      34.412 -18.594 -23.995  0.00  0.00    +0.002 C 
ATOM     33  C   UNL     1      34.477 -17.129 -23.572  0.00  0.00    +0.000 C 
ENDBRANCH  25  28
ENDBRANCH  23  26
ENDBRANCH  22  23
ENDBRANCH   1  22
TORSDOF 6
ENDMDL
MODEL 3
REMARK VINA RESULT:     -11.9      3.075      5.555
REMARK  Name = 16741238
REMARK  6 active torsions:
REMARK  status: ('A' for Active; 'I' for Inactive)
REMARK    1  A    between atoms: N_1  and  C_22
REMARK    2  A    between atoms: C_10  and  C_15
REMARK    3  A    between atoms: C_15  and  C_16
REMARK    4  A    between atoms: C_22  and  C_23
REMARK    5  A    between atoms: C_23  and  C_26
REMARK    6  A    between atoms: N_25  and  C_28
REMARK                            x       y       z     vdW  Elec       q    Type
REMARK                         _______ _______ _______ _____ _____    ______ ____
ROOT
ATOM      1  N   UNL     1      35.265 -18.829 -21.730  0.00  0.00    -0.249 N 
ATOM      2  N   UNL     1      36.990 -19.522 -20.205  0.00  0.00    -0.373 NA
ATOM      3  N   UNL     1      37.400 -17.831 -21.728  0.00  0.00    -0.321 N 
ATOM      4  C   UNL     1      34.274 -19.783 -21.228  0.00  0.00    +0.071 C 
ATOM      5  C   UNL     1      34.806 -20.639 -20.112  0.00  0.00    +0.045 C 
ATOM      6  C   UNL     1      36.550 -18.767 -21.182  0.00  0.00    +0.239 C 
ATOM      7  C   UNL     1      36.120 -20.476 -19.654  0.00  0.00    +0.136 C 
ATOM      8  C   UNL     1      33.978 -21.607 -19.526  0.00  0.00    +0.007 C 
ATOM      9  C   UNL     1      36.587 -21.288 -18.612  0.00  0.00    +0.032 C 
ATOM     10  C   UNL     1      34.454 -22.410 -18.490  0.00  0.00    +0.039 C 
ATOM     11  C   UNL     1      35.760 -22.250 -18.032  0.00  0.00    +0.006 C 
ATOM     12  H   UNL     1      37.089 -17.252 -22.462  0.00  0.00    +0.146 HD
ATOM     13  H   UNL     1      38.318 -17.740 -21.384  0.00  0.00    +0.146 HD
ENDROOT
BRANCH  10  15
ATOM     14  O   UNL     1      33.357 -24.476 -18.482  0.00  0.00    -0.287 OA
ATOM     15  C   UNL     1      33.590 -23.412 -17.888  0.00  0.00    +0.196 C 
BRANCH  15  16
ATOM     16  C   UNL     1      32.951 -23.220 -16.551  0.00  0.00    +0.039 C 
ATOM     17  C   UNL     1      33.713 -23.343 -15.390  0.00  0.00    +0.003 C 
ATOM     18  C   UNL     1      31.592 -22.916 -16.464  0.00  0.00    +0.003 C 
ATOM     19  C   UNL     1      33.117 -23.163 -14.142  0.00  0.00    +0.000 C 
ATOM     20  C   UNL     1      30.996 -22.736 -15.216  0.00  0.00    +0.000 C 
ATOM     21  C   UNL     1      31.759 -22.860 -14.055  0.00  0.00    +0.000 C 
ENDBRANCH  15  16
ENDBRANCH  10  15
BRANCH   1  22
ATOM     22  C   UNL     1      34.804 -17.973 -22.819  0.00  0.00    +0.109 C 
BRANCH  22  23
ATOM     23  C   UNL     1      35.328 -16.551 -22.637  0.00  0.00    +0.107 C 
BRANCH  23  26
ATOM     24  O   UNL     1      33.921 -15.481 -24.262  0.00  0.00    -0.275 OA
ATOM     25  N   UNL     1      33.997 -14.511 -22.158  0.00  0.00    -0.279 N 
ATOM     26  C   UNL     1      34.354 -15.475 -23.107  0.00  0.00    +0.227 C 
ATOM     27  C   UNL     1      34.522 -14.521 -20.794  0.00  0.00    +0.115 C 
BRANCH  25  28
ATOM     28  C   UNL     1      33.084 -13.433 -22.456  0.00  0.00    +0.075 C 
ATOM     29  C   UNL     1      33.823 -12.276 -23.132  0.00  0.00    +0.020 C 
ATOM     30  C   UNL     1      32.363 -12.968 -21.187  0.00  0.00    +0.020 C 
ATOM     31  C   UNL     1      32.892 -11.099 -23.411  0.00  0.00    +0.002 C 
ATOM     32  C   UNL     1      31.432 -11.791 -21.469  0.00  0.00    +0.002 C 
ATOM     33  C   UNL     1      32.171 -10.640 -22.146  0.00  0.00    +0.000 C 
ENDBRANCH  25  28
ENDBRANCH  23  26
ENDBRANCH  22  23
ENDBRANCH   1  22
TORSDOF 6
ENDMDL
MODEL 4
REMARK VINA RESULT:     -11.6      3.081     11.610
REMARK  Name = 16741238
REMARK  6 active torsions:
REMARK  status: ('A' for Active; 'I' for Inactive)
REMARK    1  A    between atoms: N_1  and  C_22
REMARK    2  A    between atoms: C_10  and  C_15
REMARK    3  A    between atoms: C_15  and  C_16
REMARK    4  A    between atoms: C_22  and  C_23
REMARK    5  A    between atoms: C_23  and  C_26
REMARK    6  A    between atoms: N_25  and  C_28
REMARK                            x       y       z     vdW  Elec       q    Type
REMARK                         _______ _______ _______ _____ _____    ______ ____
ROOT
ATOM      1  N   UNL     1      31.850 -10.073 -20.348  0.00  0.00    -0.249 N 
ATOM      2  N   UNL     1      32.230  -8.020 -19.155  0.00  0.00    -0.373 NA
ATOM      3  N   UNL     1      32.223 -10.036 -18.022  0.00  0.00    -0.321 N 
ATOM      4  C   UNL     1      31.707  -9.425 -21.653  0.00  0.00    +0.071 C 
ATOM      5  C   UNL     1      31.852  -7.931 -21.580  0.00  0.00    +0.045 C 
ATOM      6  C   UNL     1      32.102  -9.324 -19.195  0.00  0.00    +0.239 C 
ATOM      7  C   UNL     1      32.103  -7.300 -20.354  0.00  0.00    +0.136 C 
ATOM      8  C   UNL     1      31.735  -7.164 -22.747  0.00  0.00    +0.007 C 
ATOM      9  C   UNL     1      32.235  -5.906 -20.316  0.00  0.00    +0.032 C 
ATOM     10  C   UNL     1      31.868  -5.777 -22.698  0.00  0.00    +0.039 C 
ATOM     11  C   UNL     1      32.118  -5.147 -21.481  0.00  0.00    +0.006 C 
ATOM     12  H   UNL     1      32.132 -11.017 -18.029  0.00  0.00    +0.146 HD
ATOM     13  H   UNL     1      32.401  -9.564 -17.176  0.00  0.00    +0.146 HD
ENDROOT
BRANCH  10  15
ATOM     14  O   UNL     1      30.701  -4.360 -24.148  0.00  0.00    -0.287 OA
ATOM     15  C   UNL     1      31.744  -4.989 -23.913  0.00  0.00    +0.196 C 
BRANCH  15  16
ATOM     16  C   UNL     1      32.844  -4.893 -24.920  0.00  0.00    +0.039 C 
ATOM     17  C   UNL     1      32.568  -4.455 -26.215  0.00  0.00    +0.003 C 
ATOM     18  C   UNL     1      34.147  -5.242 -24.566  0.00  0.00    +0.003 C 
ATOM     19  C   UNL     1      33.594  -4.365 -27.155  0.00  0.00    +0.000 C 
ATOM     20  C   UNL     1      35.174  -5.152 -25.505  0.00  0.00    +0.000 C 
ATOM     21  C   UNL     1      34.897  -4.714 -26.800  0.00  0.00    +0.000 C 
ENDBRANCH  15  16
ENDBRANCH  10  15
BRANCH   1  22
ATOM     22  C   UNL     1      31.714 -11.526 -20.360  0.00  0.00    +0.109 C 
BRANCH  22  23
ATOM     23  C   UNL     1      31.967 -12.075 -21.761  0.00  0.00    +0.107 C 
BRANCH  23  26
ATOM     24  O   UNL     1      32.902 -14.068 -20.802  0.00  0.00    -0.275 OA
ATOM     25  N   UNL     1      33.568 -13.545 -22.960  0.00  0.00    -0.279 N 
ATOM     26  C   UNL     1      32.848 -13.320 -21.782  0.00  0.00    +0.227 C 
ATOM     27  C   UNL     1      33.490 -12.646 -24.110  0.00  0.00    +0.115 C 
BRANCH  25  28
ATOM     28  C   UNL     1      34.441 -14.682 -23.129  0.00  0.00    +0.075 C 
ATOM     29  C   UNL     1      33.932 -15.587 -24.253  0.00  0.00    +0.020 C 
ATOM     30  C   UNL     1      34.586 -15.454 -21.814  0.00  0.00    +0.020 C 
ATOM     31  C   UNL     1      34.808 -16.827 -24.419  0.00  0.00    +0.002 C 
ATOM     32  C   UNL     1      35.462 -16.693 -21.983  0.00  0.00    +0.002 C 
ATOM     33  C   UNL     1      34.954 -17.592 -23.106  0.00  0.00    +0.000 C 
ENDBRANCH  25  28
ENDBRANCH  23  26
ENDBRANCH  22  23
ENDBRANCH   1  22
TORSDOF 6
ENDMDL
MODEL 5
REMARK VINA RESULT:     -11.6      7.296     11.457
REMARK  Name = 16741238
REMARK  6 active torsions:
REMARK  status: ('A' for Active; 'I' for Inactive)
REMARK    1  A    between atoms: N_1  and  C_22
REMARK    2  A    between atoms: C_10  and  C_15
REMARK    3  A    between atoms: C_15  and  C_16
REMARK    4  A    between atoms: C_22  and  C_23
REMARK    5  A    between atoms: C_23  and  C_26
REMARK    6  A    between atoms: N_25  and  C_28
REMARK                            x       y       z     vdW  Elec       q    Type
REMARK                         _______ _______ _______ _____ _____    ______ ____
ROOT
ATOM      1  N   UNL     1      32.760 -23.106 -15.929  0.00  0.00    -0.249 N 
ATOM      2  N   UNL     1      32.393 -23.712 -13.630  0.00  0.00    -0.373 NA
ATOM      3  N   UNL     1      30.608 -23.103 -14.969  0.00  0.00    -0.321 N 
ATOM      4  C   UNL     1      34.209 -23.311 -15.873  0.00  0.00    +0.071 C 
ATOM      5  C   UNL     1      34.682 -23.752 -14.516  0.00  0.00    +0.045 C 
ATOM      6  C   UNL     1      31.958 -23.322 -14.804  0.00  0.00    +0.239 C 
ATOM      7  C   UNL     1      33.770 -23.932 -13.467  0.00  0.00    +0.136 C 
ATOM      8  C   UNL     1      36.048 -23.986 -14.299  0.00  0.00    +0.007 C 
ATOM      9  C   UNL     1      34.239 -24.344 -12.214  0.00  0.00    +0.032 C 
ATOM     10  C   UNL     1      36.504 -24.396 -13.047  0.00  0.00    +0.039 C 
ATOM     11  C   UNL     1      35.599 -24.575 -12.004  0.00  0.00    +0.006 C 
ATOM     12  H   UNL     1      30.260 -22.812 -15.843  0.00  0.00    +0.146 HD
ATOM     13  H   UNL     1      29.991 -23.239 -14.214  0.00  0.00    +0.146 HD
ENDROOT
BRANCH  10  15
ATOM     14  O   UNL     1      38.522 -24.053 -11.915  0.00  0.00    -0.287 OA
ATOM     15  C   UNL     1      37.921 -24.636 -12.831  0.00  0.00    +0.196 C 
BRANCH  15  16
ATOM     16  C   UNL     1      38.713 -25.577 -13.679  0.00  0.00    +0.039 C 
ATOM     17  C   UNL     1      40.106 -25.536 -13.653  0.00  0.00    +0.003 C 
ATOM     18  C   UNL     1      38.058 -26.499 -14.496  0.00  0.00    +0.003 C 
ATOM     19  C   UNL     1      40.845 -26.416 -14.444  0.00  0.00    +0.000 C 
ATOM     20  C   UNL     1      38.796 -27.379 -15.287  0.00  0.00    +0.000 C 
ATOM     21  C   UNL     1      40.190 -27.337 -15.261  0.00  0.00    +0.000 C 
ENDBRANCH  15  16
ENDBRANCH  10  15
BRANCH   1  22
ATOM     22  C   UNL     1      32.245 -22.673 -17.223  0.00  0.00    +0.109 C 
BRANCH  22  23
ATOM     23  C   UNL     1      33.346 -22.721 -18.279  0.00  0.00    +0.107 C 
BRANCH  23  26
ATOM     24  O   UNL     1      32.430 -20.816 -19.419  0.00  0.00    -0.275 OA
ATOM     25  N   UNL     1      34.732 -21.072 -19.514  0.00  0.00    -0.279 N 
ATOM     26  C   UNL     1      33.444 -21.451 -19.120  0.00  0.00    +0.227 C 
ATOM     27  C   UNL     1      35.921 -21.839 -19.149  0.00  0.00    +0.115 C 
BRANCH  25  28
ATOM     28  C   UNL     1      34.982 -19.894 -20.309  0.00  0.00    +0.075 C 
ATOM     29  C   UNL     1      34.378 -20.053 -21.706  0.00  0.00    +0.020 C 
ATOM     30  C   UNL     1      36.483 -19.597 -20.381  0.00  0.00    +0.020 C 
ATOM     31  C   UNL     1      34.674 -18.842 -22.589  0.00  0.00    +0.002 C 
ATOM     32  C   UNL     1      36.775 -18.386 -21.264  0.00  0.00    +0.002 C 
ATOM     33  C   UNL     1      36.169 -18.546 -22.655  0.00  0.00    +0.000 C 
ENDBRANCH  25  28
ENDBRANCH  23  26
ENDBRANCH  22  23
ENDBRANCH   1  22
TORSDOF 6
ENDMDL
MODEL 6
REMARK VINA RESULT:     -11.5      6.493     13.361
REMARK  Name = 16741238
REMARK  6 active torsions:
REMARK  status: ('A' for Active; 'I' for Inactive)
REMARK    1  A    between atoms: N_1  and  C_22
REMARK    2  A    between atoms: C_10  and  C_15
REMARK    3  A    between atoms: C_15  and  C_16
REMARK    4  A    between atoms: C_22  and  C_23
REMARK    5  A    between atoms: C_23  and  C_26
REMARK    6  A    between atoms: N_25  and  C_28
REMARK                            x       y       z     vdW  Elec       q    Type
REMARK                         _______ _______ _______ _____ _____    ______ ____
ROOT
ATOM      1  N   UNL     1      34.152 -23.174 -16.592  0.00  0.00    -0.249 N 
ATOM      2  N   UNL     1      32.298 -22.343 -17.878  0.00  0.00    -0.373 NA
ATOM      3  N   UNL     1      31.926 -23.766 -16.093  0.00  0.00    -0.321 N 
ATOM      4  C   UNL     1      35.165 -22.466 -17.376  0.00  0.00    +0.071 C 
ATOM      5  C   UNL     1      34.573 -21.656 -18.495  0.00  0.00    +0.045 C 
ATOM      6  C   UNL     1      32.792 -23.060 -16.898  0.00  0.00    +0.239 C 
ATOM      7  C   UNL     1      33.186 -21.627 -18.697  0.00  0.00    +0.136 C 
ATOM      8  C   UNL     1      35.415 -20.922 -19.342  0.00  0.00    +0.007 C 
ATOM      9  C   UNL     1      32.662 -20.862 -19.746  0.00  0.00    +0.032 C 
ATOM     10  C   UNL     1      34.882 -20.164 -20.385  0.00  0.00    +0.039 C 
ATOM     11  C   UNL     1      33.505 -20.134 -20.586  0.00  0.00    +0.006 C 
ATOM     12  H   UNL     1      32.276 -24.310 -15.351  0.00  0.00    +0.146 HD
ATOM     13  H   UNL     1      30.956 -23.725 -16.259  0.00  0.00    +0.146 HD
ENDROOT
BRANCH  10  15
ATOM     14  O   UNL     1      36.993 -19.468 -21.113  0.00  0.00    -0.287 OA
ATOM     15  C   UNL     1      35.763 -19.407 -21.259  0.00  0.00    +0.196 C 
BRANCH  15  16
ATOM     16  C   UNL     1      35.245 -18.536 -22.357  0.00  0.00    +0.039 C 
ATOM     17  C   UNL     1      34.583 -19.104 -23.445  0.00  0.00    +0.003 C 
ATOM     18  C   UNL     1      35.424 -17.153 -22.294  0.00  0.00    +0.003 C 
ATOM     19  C   UNL     1      34.099 -18.290 -24.469  0.00  0.00    +0.000 C 
ATOM     20  C   UNL     1      34.940 -16.340 -23.318  0.00  0.00    +0.000 C 
ATOM     21  C   UNL     1      34.278 -16.909 -24.406  0.00  0.00    +0.000 C 
ENDBRANCH  15  16
ENDBRANCH  10  15
BRANCH   1  22
ATOM     22  C   UNL     1      34.672 -23.982 -15.493  0.00  0.00    +0.109 C 
BRANCH  22  23
ATOM     23  C   UNL     1      35.738 -23.209 -14.721  0.00  0.00    +0.107 C 
BRANCH  23  26
ATOM     24  O   UNL     1      37.938 -22.951 -15.647  0.00  0.00    -0.275 OA
ATOM     25  N   UNL     1      37.513 -24.934 -14.525  0.00  0.00    -0.279 N 
ATOM     26  C   UNL     1      37.162 -23.671 -15.014  0.00  0.00    +0.227 C 
ATOM     27  C   UNL     1      36.578 -25.772 -13.777  0.00  0.00    +0.115 C 
BRANCH  25  28
ATOM     28  C   UNL     1      38.825 -25.503 -14.722  0.00  0.00    +0.075 C 
ATOM     29  C   UNL     1      38.714 -26.914 -15.304  0.00  0.00    +0.020 C 
ATOM     30  C   UNL     1      39.619 -25.501 -13.412  0.00  0.00    +0.020 C 
ATOM     31  C   UNL     1      40.086 -27.563 -15.474  0.00  0.00    +0.002 C 
ATOM     32  C   UNL     1      40.990 -26.150 -13.586  0.00  0.00    +0.002 C 
ATOM     33  C   UNL     1      40.877 -27.555 -14.169  0.00  0.00    +0.000 C 
ENDBRANCH  25  28
ENDBRANCH  23  26
ENDBRANCH  22  23
ENDBRANCH   1  22
TORSDOF 6
ENDMDL
MODEL 7
REMARK VINA RESULT:     -11.5      2.814     11.232
REMARK  Name = 16741238
REMARK  6 active torsions:
REMARK  status: ('A' for Active; 'I' for Inactive)
REMARK    1  A    between atoms: N_1  and  C_22
REMARK    2  A    between atoms: C_10  and  C_15
REMARK    3  A    between atoms: C_15  and  C_16
REMARK    4  A    between atoms: C_22  and  C_23
REMARK    5  A    between atoms: C_23  and  C_26
REMARK    6  A    between atoms: N_25  and  C_28
REMARK                            x       y       z     vdW  Elec       q    Type
REMARK                         _______ _______ _______ _____ _____    ______ ____
ROOT
ATOM      1  N   UNL     1      32.146 -11.824 -22.118  0.00  0.00    -0.249 N 
ATOM      2  N   UNL     1      31.899 -10.755 -19.977  0.00  0.00    -0.373 NA
ATOM      3  N   UNL     1      31.789 -13.059 -20.142  0.00  0.00    -0.321 N 
ATOM      4  C   UNL     1      32.329 -10.572 -22.853  0.00  0.00    +0.071 C 
ATOM      5  C   UNL     1      32.266  -9.361 -21.965  0.00  0.00    +0.045 C 
ATOM      6  C   UNL     1      31.946 -11.825 -20.733  0.00  0.00    +0.239 C 
ATOM      7  C   UNL     1      32.057  -9.500 -20.586  0.00  0.00    +0.136 C 
ATOM      8  C   UNL     1      32.418  -8.083 -22.521  0.00  0.00    +0.007 C 
ATOM      9  C   UNL     1      32.004  -8.354 -19.783  0.00  0.00    +0.032 C 
ATOM     10  C   UNL     1      32.363  -6.948 -21.712  0.00  0.00    +0.039 C 
ATOM     11  C   UNL     1      32.157  -7.084 -20.342  0.00  0.00    +0.006 C 
ATOM     12  H   UNL     1      31.822 -13.876 -20.692  0.00  0.00    +0.146 HD
ATOM     13  H   UNL     1      31.645 -13.125 -19.171  0.00  0.00    +0.146 HD
ENDROOT
BRANCH  10  15
ATOM     14  O   UNL     1      32.166  -4.618 -21.669  0.00  0.00    -0.287 OA
ATOM     15  C   UNL     1      32.521  -5.628 -22.297  0.00  0.00    +0.196 C 
BRANCH  15  16
ATOM     16  C   UNL     1      33.109  -5.418 -23.655  0.00  0.00    +0.039 C 
ATOM     17  C   UNL     1      32.319  -4.911 -24.687  0.00  0.00    +0.003 C 
ATOM     18  C   UNL     1      34.449  -5.729 -23.891  0.00  0.00    +0.003 C 
ATOM     19  C   UNL     1      32.868  -4.715 -25.953  0.00  0.00    +0.000 C 
ATOM     20  C   UNL     1      34.997  -5.533 -25.158  0.00  0.00    +0.000 C 
ATOM     21  C   UNL     1      34.207  -5.026 -26.190  0.00  0.00    +0.000 C 
ENDBRANCH  15  16
ENDBRANCH  10  15
BRANCH   1  22
ATOM     22  C   UNL     1      32.193 -13.034 -22.932  0.00  0.00    +0.109 C 
BRANCH  22  23
ATOM     23  C   UNL     1      33.442 -13.037 -23.810  0.00  0.00    +0.107 C 
BRANCH  23  26
ATOM     24  O   UNL     1      33.719 -14.777 -25.442  0.00  0.00    -0.275 OA
ATOM     25  N   UNL     1      34.418 -15.259 -23.285  0.00  0.00    -0.279 N 
ATOM     26  C   UNL     1      33.865 -14.430 -24.267  0.00  0.00    +0.227 C 
ATOM     27  C   UNL     1      34.583 -14.828 -21.898  0.00  0.00    +0.115 C 
BRANCH  25  28
ATOM     28  C   UNL     1      34.867 -16.601 -23.568  0.00  0.00    +0.075 C 
ATOM     29  C   UNL     1      33.718 -17.444 -24.126  0.00  0.00    +0.020 C 
ATOM     30  C   UNL     1      35.474 -17.244 -22.318  0.00  0.00    +0.020 C 
ATOM     31  C   UNL     1      34.151 -18.885 -24.386  0.00  0.00    +0.002 C 
ATOM     32  C   UNL     1      35.906 -18.685 -22.580  0.00  0.00    +0.002 C 
ATOM     33  C   UNL     1      34.759 -19.522 -23.139  0.00  0.00    +0.000 C 
ENDBRANCH  25  28
ENDBRANCH  23  26
ENDBRANCH  22  23
ENDBRANCH   1  22
TORSDOF 6
ENDMDL
MODEL 8
REMARK VINA RESULT:     -11.5      4.777     11.714
REMARK  Name = 16741238
REMARK  6 active torsions:
REMARK  status: ('A' for Active; 'I' for Inactive)
REMARK    1  A    between atoms: N_1  and  C_22
REMARK    2  A    between atoms: C_10  and  C_15
REMARK    3  A    between atoms: C_15  and  C_16
REMARK    4  A    between atoms: C_22  and  C_23
REMARK    5  A    between atoms: C_23  and  C_26
REMARK    6  A    between atoms: N_25  and  C_28
REMARK                            x       y       z     vdW  Elec       q    Type
REMARK                         _______ _______ _______ _____ _____    ______ ____
ROOT
ATOM      1  N   UNL     1      34.934 -21.647 -19.549  0.00  0.00    -0.249 N 
ATOM      2  N   UNL     1      36.840 -20.180 -19.575  0.00  0.00    -0.373 NA
ATOM      3  N   UNL     1      36.738 -21.922 -18.057  0.00  0.00    -0.321 N 
ATOM      4  C   UNL     1      34.248 -20.965 -20.648  0.00  0.00    +0.071 C 
ATOM      5  C   UNL     1      35.022 -19.791 -21.178  0.00  0.00    +0.045 C 
ATOM      6  C   UNL     1      36.181 -21.205 -19.093  0.00  0.00    +0.239 C 
ATOM      7  C   UNL     1      36.266 -19.452 -20.629  0.00  0.00    +0.136 C 
ATOM      8  C   UNL     1      34.494 -19.030 -22.231  0.00  0.00    +0.007 C 
ATOM      9  C   UNL     1      36.965 -18.353 -21.144  0.00  0.00    +0.032 C 
ATOM     10  C   UNL     1      35.199 -17.937 -22.736  0.00  0.00    +0.039 C 
ATOM     11  C   UNL     1      36.436 -17.599 -22.192  0.00  0.00    +0.006 C 
ATOM     12  H   UNL     1      36.260 -22.697 -17.682  0.00  0.00    +0.146 HD
ATOM     13  H   UNL     1      37.614 -21.660 -17.693  0.00  0.00    +0.146 HD
ENDROOT
BRANCH  10  15
ATOM     14  O   UNL     1      34.449 -17.674 -24.935  0.00  0.00    -0.287 OA
ATOM     15  C   UNL     1      34.644 -17.153 -23.827  0.00  0.00    +0.196 C 
BRANCH  15  16
ATOM     16  C   UNL     1      34.286 -15.711 -23.674  0.00  0.00    +0.039 C 
ATOM     17  C   UNL     1      33.692 -15.024 -24.733  0.00  0.00    +0.003 C 
ATOM     18  C   UNL     1      34.544 -15.051 -22.473  0.00  0.00    +0.003 C 
ATOM     19  C   UNL     1      33.356 -13.678 -24.590  0.00  0.00    +0.000 C 
ATOM     20  C   UNL     1      34.208 -13.705 -22.330  0.00  0.00    +0.000 C 
ATOM     21  C   UNL     1      33.614 -13.018 -23.389  0.00  0.00    +0.000 C 
ENDBRANCH  15  16
ENDBRANCH  10  15
BRANCH   1  22
ATOM     22  C   UNL     1      34.225 -22.794 -18.992  0.00  0.00    +0.109 C 
BRANCH  22  23
ATOM     23  C   UNL     1      33.158 -22.333 -18.003  0.00  0.00    +0.107 C 
BRANCH  23  26
ATOM     24  O   UNL     1      34.149 -23.677 -16.278  0.00  0.00    -0.275 OA
ATOM     25  N   UNL     1      31.879 -23.248 -16.082  0.00  0.00    -0.279 N 
ATOM     26  C   UNL     1      33.123 -23.148 -16.715  0.00  0.00    +0.227 C 
ATOM     27  C   UNL     1      30.676 -22.614 -16.617  0.00  0.00    +0.115 C 
BRANCH  25  28
ATOM     28  C   UNL     1      31.692 -23.984 -14.855  0.00  0.00    +0.075 C 
ATOM     29  C   UNL     1      30.351 -24.721 -14.872  0.00  0.00    +0.020 C 
ATOM     30  C   UNL     1      31.801 -23.054 -13.643  0.00  0.00    +0.020 C 
ATOM     31  C   UNL     1      30.101 -25.466 -13.563  0.00  0.00    +0.002 C 
ATOM     32  C   UNL     1      31.551 -23.802 -12.336  0.00  0.00    +0.002 C 
ATOM     33  C   UNL     1      30.215 -24.538 -12.357  0.00  0.00    +0.000 C 
ENDBRANCH  25  28
ENDBRANCH  23  26
ENDBRANCH  22  23
ENDBRANCH   1  22
TORSDOF 6
ENDMDL
MODEL 9
REMARK VINA RESULT:     -11.5      5.364      9.636
REMARK  Name = 16741238
REMARK  6 active torsions:
REMARK  status: ('A' for Active; 'I' for Inactive)
REMARK    1  A    between atoms: N_1  and  C_22
REMARK    2  A    between atoms: C_10  and  C_15
REMARK    3  A    between atoms: C_15  and  C_16
REMARK    4  A    between atoms: C_22  and  C_23
REMARK    5  A    between atoms: C_23  and  C_26
REMARK    6  A    between atoms: N_25  and  C_28
REMARK                            x       y       z     vdW  Elec       q    Type
REMARK                         _______ _______ _______ _____ _____    ______ ____
ROOT
ATOM      1  N   UNL     1      34.484 -22.238 -18.690  0.00  0.00    -0.249 N 
ATOM      2  N   UNL     1      32.284 -22.433 -17.736  0.00  0.00    -0.373 NA
ATOM      3  N   UNL     1      32.544 -21.682 -19.909  0.00  0.00    -0.321 N 
ATOM      4  C   UNL     1      35.174 -22.710 -17.489  0.00  0.00    +0.071 C 
ATOM      5  C   UNL     1      34.230 -23.041 -16.367  0.00  0.00    +0.045 C 
ATOM      6  C   UNL     1      33.089 -22.134 -18.727  0.00  0.00    +0.239 C 
ATOM      7  C   UNL     1      32.846 -22.892 -16.534  0.00  0.00    +0.136 C 
ATOM      8  C   UNL     1      34.739 -23.503 -15.145  0.00  0.00    +0.007 C 
ATOM      9  C   UNL     1      31.990 -23.208 -15.472  0.00  0.00    +0.032 C 
ATOM     10  C   UNL     1      33.877 -23.815 -14.094  0.00  0.00    +0.039 C 
ATOM     11  C   UNL     1      32.502 -23.668 -14.258  0.00  0.00    +0.006 C 
ATOM     12  H   UNL     1      33.131 -21.454 -20.666  0.00  0.00    +0.146 HD
ATOM     13  H   UNL     1      31.568 -21.589 -19.996  0.00  0.00    +0.146 HD
ENDROOT
BRANCH  10  15
ATOM     14  O   UNL     1      33.651 -24.550 -11.885  0.00  0.00    -0.287 OA
ATOM     15  C   UNL     1      34.413 -24.293 -12.830  0.00  0.00    +0.196 C 
BRANCH  15  16
ATOM     16  C   UNL     1      35.876 -24.497 -12.607  0.00  0.00    +0.039 C 
ATOM     17  C   UNL     1      36.604 -23.570 -11.862  0.00  0.00    +0.003 C 
ATOM     18  C   UNL     1      36.514 -25.617 -13.142  0.00  0.00    +0.003 C 
ATOM     19  C   UNL     1      37.969 -23.762 -11.652  0.00  0.00    +0.000 C 
ATOM     20  C   UNL     1      37.879 -25.808 -12.933  0.00  0.00    +0.000 C 
ATOM     21  C   UNL     1      38.607 -24.880 -12.188  0.00  0.00    +0.000 C 
ENDBRANCH  15  16
ENDBRANCH  10  15
BRANCH   1  22
ATOM     22  C   UNL     1      35.353 -21.897 -19.812  0.00  0.00    +0.109 C 
BRANCH  22  23
ATOM     23  C   UNL     1      35.736 -20.421 -19.761  0.00  0.00    +0.107 C 
BRANCH  23  26
ATOM     24  O   UNL     1      34.007 -19.707 -21.267  0.00  0.00    -0.275 OA
ATOM     25  N   UNL     1      36.101 -18.760 -21.570  0.00  0.00    -0.279 N 
ATOM     26  C   UNL     1      35.189 -19.606 -20.930  0.00  0.00    +0.227 C 
ATOM     27  C   UNL     1      37.498 -18.656 -21.155  0.00  0.00    +0.115 C 
BRANCH  25  28
ATOM     28  C   UNL     1      35.730 -17.927 -22.689  0.00  0.00    +0.075 C 
ATOM     29  C   UNL     1      35.325 -16.532 -22.207  0.00  0.00    +0.020 C 
ATOM     30  C   UNL     1      34.612 -18.582 -23.505  0.00  0.00    +0.020 C 
ATOM     31  C   UNL     1      34.876 -15.644 -23.365  0.00  0.00    +0.002 C 
ATOM     32  C   UNL     1      34.165 -17.692 -24.662  0.00  0.00    +0.002 C 
ATOM     33  C   UNL     1      33.764 -16.301 -24.179  0.00  0.00    +0.000 C 
ENDBRANCH  25  28
ENDBRANCH  23  26
ENDBRANCH  22  23
ENDBRANCH   1  22
TORSDOF 6
ENDMDL
