MODEL 1
REMARK VINA RESULT:     -11.5      0.000      0.000
REMARK  Name = 23729147
REMARK  5 active torsions:
REMARK  status: ('A' for Active; 'I' for Inactive)
REMARK    1  A    between atoms: O_1  and  C_6
REMARK    2  A    between atoms: O_1  and  C_18
REMARK    3  A    between atoms: C_18  and  C_20
REMARK    4  A    between atoms: N_19  and  C_26
REMARK    5  A    between atoms: C_26  and  C_28
REMARK                            x       y       z     vdW  Elec       q    Type
REMARK                         _______ _______ _______ _____ _____    ______ ____
ROOT
ATOM      1  O   UNL     1      35.338 -21.925 -18.566  0.00  0.00    -0.479 OA
ENDROOT
BRANCH   1   6
ATOM      2  N   UNL     1      32.744 -23.687 -14.870  0.00  0.00    -0.332 NA
ATOM      3  N   UNL     1      31.599 -23.163 -16.925  0.00  0.00    -0.317 NA
ATOM      4  N   UNL     1      32.743 -22.310 -18.770  0.00  0.00    -0.335 N 
ATOM      5  N   UNL     1      30.433 -24.019 -15.082  0.00  0.00    -0.283 N 
ATOM      6  C   UNL     1      35.208 -22.402 -17.284  0.00  0.00    +0.130 C 
ATOM      7  C   UNL     1      33.983 -22.813 -16.730  0.00  0.00    +0.177 C 
ATOM      8  C   UNL     1      36.372 -22.466 -16.524  0.00  0.00    +0.033 C 
ATOM      9  C   UNL     1      33.911 -23.291 -15.411  0.00  0.00    +0.137 C 
ATOM     10  C   UNL     1      32.783 -22.775 -17.435  0.00  0.00    +0.181 C 
ATOM     11  C   UNL     1      36.312 -22.937 -15.218  0.00  0.00    +0.005 C 
ATOM     12  C   UNL     1      35.091 -23.344 -14.674  0.00  0.00    +0.030 C 
ATOM     13  C   UNL     1      31.652 -23.601 -15.657  0.00  0.00    +0.197 C 
ATOM     14  H   UNL     1      31.889 -22.289 -19.259  0.00  0.00    +0.144 HD
ATOM     15  H   UNL     1      33.570 -22.010 -19.212  0.00  0.00    +0.144 HD
ATOM     16  H   UNL     1      30.412 -24.349 -14.156  0.00  0.00    +0.156 HD
ATOM     17  H   UNL     1      29.602 -23.980 -15.610  0.00  0.00    +0.156 HD
ENDBRANCH   1   6
BRANCH   1  18
ATOM     18  C   UNL     1      36.494 -21.159 -18.851  0.00  0.00    +0.205 C 
BRANCH  18  20
ATOM     19  N   UNL     1      35.518 -18.169 -21.811  0.00  0.00    +0.390 N 
ATOM     20  C   UNL     1      36.311 -20.495 -20.213  0.00  0.00    +0.040 C 
ATOM     21  C   UNL     1      37.189 -19.246 -20.340  0.00  0.00    -0.019 C 
ATOM     22  C   UNL     1      34.844 -20.122 -20.451  0.00  0.00    -0.019 C 
ATOM     23  C   UNL     1      36.937 -18.519 -21.662  0.00  0.00    -0.077 C 
ATOM     24  C   UNL     1      34.669 -19.366 -21.771  0.00  0.00    -0.077 C 
ATOM     25  H   UNL     1      35.257 -17.571 -21.027  0.00  0.00    -0.079 HD
BRANCH  19  26
ATOM     26  C   UNL     1      35.302 -17.430 -23.055  0.00  0.00    -0.048 C 
BRANCH  26  28
ATOM     27  F   UNL     1      34.089 -15.863 -25.083  0.00  0.00    -0.205 F 
ATOM     28  C   UNL     1      34.719 -16.064 -22.802  0.00  0.00    -0.016 C 
ATOM     29  C   UNL     1      34.137 -15.347 -23.847  0.00  0.00    +0.134 C 
ATOM     30  C   UNL     1      34.764 -15.518 -21.521  0.00  0.00    -0.004 C 
ATOM     31  C   UNL     1      33.599 -14.081 -23.609  0.00  0.00    +0.029 C 
ATOM     32  C   UNL     1      34.226 -14.253 -21.282  0.00  0.00    -0.000 C 
ATOM     33  C   UNL     1      33.644 -13.534 -22.327  0.00  0.00    +0.002 C 
ENDBRANCH  26  28
ENDBRANCH  19  26
ENDBRANCH  18  20
ENDBRANCH   1  18
TORSDOF 5
ENDMDL
MODEL 2
REMARK VINA RESULT:     -11.4      4.827     10.676
REMARK  Name = 23729147
REMARK  5 active torsions:
REMARK  status: ('A' for Active; 'I' for Inactive)
REMARK    1  A    between atoms: O_1  and  C_6
REMARK    2  A    between atoms: O_1  and  C_18
REMARK    3  A    between atoms: C_18  and  C_20
REMARK    4  A    between atoms: N_19  and  C_26
REMARK    5  A    between atoms: C_26  and  C_28
REMARK                            x       y       z     vdW  Elec       q    Type
REMARK                         _______ _______ _______ _____ _____    ______ ____
ROOT
ATOM      1  O   UNL     1      34.210 -13.179 -23.144  0.00  0.00    -0.479 OA
ENDROOT
BRANCH   1   6
ATOM      2  N   UNL     1      31.631  -9.147 -22.383  0.00  0.00    -0.332 NA
ATOM      3  N   UNL     1      33.259  -9.146 -24.161  0.00  0.00    -0.317 NA
ATOM      4  N   UNL     1      34.557 -11.028 -24.619  0.00  0.00    -0.335 N 
ATOM      5  N   UNL     1      31.963  -7.245 -23.715  0.00  0.00    -0.283 N 
ATOM      6  C   UNL     1      33.256 -12.447 -22.478  0.00  0.00    +0.130 C 
ATOM      7  C   UNL     1      32.933 -11.118 -22.801  0.00  0.00    +0.177 C 
ATOM      8  C   UNL     1      32.598 -13.090 -21.434  0.00  0.00    +0.033 C 
ATOM      9  C   UNL     1      31.949 -10.419 -22.083  0.00  0.00    +0.137 C 
ATOM     10  C   UNL     1      33.552 -10.418 -23.833  0.00  0.00    +0.181 C 
ATOM     11  C   UNL     1      31.623 -12.408 -20.716  0.00  0.00    +0.005 C 
ATOM     12  C   UNL     1      31.306 -11.086 -21.044  0.00  0.00    +0.030 C 
ATOM     13  C   UNL     1      32.303  -8.580 -23.406  0.00  0.00    +0.197 C 
ATOM     14  H   UNL     1      34.988 -10.523 -25.346  0.00  0.00    +0.144 HD
ATOM     15  H   UNL     1      34.826 -11.958 -24.440  0.00  0.00    +0.144 HD
ATOM     16  H   UNL     1      31.269  -6.780 -23.195  0.00  0.00    +0.156 HD
ATOM     17  H   UNL     1      32.420  -6.779 -24.453  0.00  0.00    +0.156 HD
ENDBRANCH   1   6
BRANCH   1  18
ATOM     18  C   UNL     1      33.782 -14.377 -23.764  0.00  0.00    +0.205 C 
BRANCH  18  20
ATOM     19  N   UNL     1      35.060 -18.104 -21.993  0.00  0.00    +0.390 N 
ATOM     20  C   UNL     1      34.699 -15.511 -23.312  0.00  0.00    +0.040 C 
ATOM     21  C   UNL     1      34.309 -16.834 -23.978  0.00  0.00    -0.019 C 
ATOM     22  C   UNL     1      34.668 -15.670 -21.789  0.00  0.00    -0.019 C 
ATOM     23  C   UNL     1      35.159 -17.994 -23.455  0.00  0.00    -0.077 C 
ATOM     24  C   UNL     1      35.506 -16.868 -21.337  0.00  0.00    -0.077 C 
ATOM     25  H   UNL     1      34.080 -18.251 -21.754  0.00  0.00    -0.079 HD
BRANCH  19  26
ATOM     26  C   UNL     1      35.837 -19.247 -21.513  0.00  0.00    -0.048 C 
BRANCH  26  28
ATOM     27  F   UNL     1      37.020 -21.001 -19.626  0.00  0.00    -0.205 F 
ATOM     28  C   UNL     1      35.034 -20.120 -20.585  0.00  0.00    -0.016 C 
ATOM     29  C   UNL     1      35.682 -20.961 -19.679  0.00  0.00    +0.134 C 
ATOM     30  C   UNL     1      33.641 -20.086 -20.632  0.00  0.00    -0.004 C 
ATOM     31  C   UNL     1      34.935 -21.769 -18.821  0.00  0.00    +0.029 C 
ATOM     32  C   UNL     1      32.894 -20.893 -19.774  0.00  0.00    -0.000 C 
ATOM     33  C   UNL     1      33.541 -21.735 -18.869  0.00  0.00    +0.002 C 
ENDBRANCH  26  28
ENDBRANCH  19  26
ENDBRANCH  18  20
ENDBRANCH   1  18
TORSDOF 5
ENDMDL
MODEL 3
REMARK VINA RESULT:     -11.3      4.299     10.102
REMARK  Name = 23729147
REMARK  5 active torsions:
REMARK  status: ('A' for Active; 'I' for Inactive)
REMARK    1  A    between atoms: O_1  and  C_6
REMARK    2  A    between atoms: O_1  and  C_18
REMARK    3  A    between atoms: C_18  and  C_20
REMARK    4  A    between atoms: N_19  and  C_26
REMARK    5  A    between atoms: C_26  and  C_28
REMARK                            x       y       z     vdW  Elec       q    Type
REMARK                         _______ _______ _______ _____ _____    ______ ____
ROOT
ATOM      1  O   UNL     1      33.329 -14.403 -23.295  0.00  0.00    -0.479 OA
ENDROOT
BRANCH   1   6
ATOM      2  N   UNL     1      32.316  -9.847 -21.991  0.00  0.00    -0.332 NA
ATOM      3  N   UNL     1      31.919 -11.608 -20.395  0.00  0.00    -0.317 NA
ATOM      4  N   UNL     1      32.369 -13.838 -20.911  0.00  0.00    -0.335 N 
ATOM      5  N   UNL     1      31.461  -9.374 -19.859  0.00  0.00    -0.283 N 
ATOM      6  C   UNL     1      33.264 -13.051 -23.532  0.00  0.00    +0.130 C 
ATOM      7  C   UNL     1      32.801 -12.119 -22.587  0.00  0.00    +0.177 C 
ATOM      8  C   UNL     1      33.686 -12.620 -24.786  0.00  0.00    +0.033 C 
ATOM      9  C   UNL     1      32.756 -10.748 -22.888  0.00  0.00    +0.137 C 
ATOM     10  C   UNL     1      32.366 -12.483 -21.316  0.00  0.00    +0.181 C 
ATOM     11  C   UNL     1      33.645 -11.266 -25.094  0.00  0.00    +0.005 C 
ATOM     12  C   UNL     1      33.185 -10.345 -24.149  0.00  0.00    +0.030 C 
ATOM     13  C   UNL     1      31.922 -10.326 -20.794  0.00  0.00    +0.197 C 
ATOM     14  H   UNL     1      32.059 -14.083 -20.009  0.00  0.00    +0.144 HD
ATOM     15  H   UNL     1      32.683 -14.537 -21.530  0.00  0.00    +0.144 HD
ATOM     16  H   UNL     1      31.441  -8.420 -20.097  0.00  0.00    +0.156 HD
ATOM     17  H   UNL     1      31.161  -9.665 -18.967  0.00  0.00    +0.156 HD
ENDBRANCH   1   6
BRANCH   1  18
ATOM     18  C   UNL     1      33.858 -15.212 -24.329  0.00  0.00    +0.205 C 
BRANCH  18  20
ATOM     19  N   UNL     1      35.136 -18.493 -21.828  0.00  0.00    +0.390 N 
ATOM     20  C   UNL     1      34.761 -16.271 -23.703  0.00  0.00    +0.040 C 
ATOM     21  C   UNL     1      34.232 -17.681 -23.982  0.00  0.00    -0.019 C 
ATOM     22  C   UNL     1      34.893 -16.058 -22.191  0.00  0.00    -0.019 C 
ATOM     23  C   UNL     1      35.075 -18.743 -23.274  0.00  0.00    -0.077 C 
ATOM     24  C   UNL     1      35.715 -17.174 -21.542  0.00  0.00    -0.077 C 
ATOM     25  H   UNL     1      34.183 -18.503 -21.466  0.00  0.00    -0.079 HD
BRANCH  19  26
ATOM     26  C   UNL     1      35.903 -19.544 -21.159  0.00  0.00    -0.048 C 
BRANCH  26  28
ATOM     27  F   UNL     1      36.941 -21.479 -19.365  0.00  0.00    -0.205 F 
ATOM     28  C   UNL     1      35.032 -20.394 -20.271  0.00  0.00    -0.016 C 
ATOM     29  C   UNL     1      35.610 -21.328 -19.411  0.00  0.00    +0.134 C 
ATOM     30  C   UNL     1      33.647 -20.246 -20.311  0.00  0.00    -0.004 C 
ATOM     31  C   UNL     1      34.800 -22.115 -18.591  0.00  0.00    +0.029 C 
ATOM     32  C   UNL     1      32.837 -21.031 -19.491  0.00  0.00    -0.000 C 
ATOM     33  C   UNL     1      33.414 -21.967 -18.631  0.00  0.00    +0.002 C 
ENDBRANCH  26  28
ENDBRANCH  19  26
ENDBRANCH  18  20
ENDBRANCH   1  18
TORSDOF 5
ENDMDL
MODEL 4
REMARK VINA RESULT:     -11.3      2.315      3.992
REMARK  Name = 23729147
REMARK  5 active torsions:
REMARK  status: ('A' for Active; 'I' for Inactive)
REMARK    1  A    between atoms: O_1  and  C_6
REMARK    2  A    between atoms: O_1  and  C_18
REMARK    3  A    between atoms: C_18  and  C_20
REMARK    4  A    between atoms: N_19  and  C_26
REMARK    5  A    between atoms: C_26  and  C_28
REMARK                            x       y       z     vdW  Elec       q    Type
REMARK                         _______ _______ _______ _____ _____    ______ ____
ROOT
ATOM      1  O   UNL     1      34.433 -19.202 -21.543  0.00  0.00    -0.479 OA
ENDROOT
BRANCH   1   6
ATOM      2  N   UNL     1      34.726 -22.464 -17.970  0.00  0.00    -0.332 NA
ATOM      3  N   UNL     1      32.560 -21.999 -18.921  0.00  0.00    -0.317 NA
ATOM      4  N   UNL     1      32.297 -20.449 -20.644  0.00  0.00    -0.335 N 
ATOM      5  N   UNL     1      32.805 -23.559 -17.190  0.00  0.00    -0.283 N 
ATOM      6  C   UNL     1      35.130 -19.934 -20.612  0.00  0.00    +0.130 C 
ATOM      7  C   UNL     1      34.527 -20.858 -19.741  0.00  0.00    +0.177 C 
ATOM      8  C   UNL     1      36.504 -19.720 -20.558  0.00  0.00    +0.033 C 
ATOM      9  C   UNL     1      35.292 -21.577 -18.808  0.00  0.00    +0.137 C 
ATOM     10  C   UNL     1      33.159 -21.119 -19.745  0.00  0.00    +0.181 C 
ATOM     11  C   UNL     1      37.271 -20.425 -19.638  0.00  0.00    +0.005 C 
ATOM     12  C   UNL     1      36.664 -21.343 -18.776  0.00  0.00    +0.030 C 
ATOM     13  C   UNL     1      33.391 -22.626 -18.072  0.00  0.00    +0.197 C 
ATOM     14  H   UNL     1      31.332 -20.642 -20.637  0.00  0.00    +0.144 HD
ATOM     15  H   UNL     1      32.663 -19.791 -21.278  0.00  0.00    +0.144 HD
ATOM     16  H   UNL     1      33.365 -24.048 -16.546  0.00  0.00    +0.156 HD
ATOM     17  H   UNL     1      31.833 -23.721 -17.219  0.00  0.00    +0.156 HD
ENDBRANCH   1   6
BRANCH   1  18
ATOM     18  C   UNL     1      34.986 -19.124 -22.844  0.00  0.00    +0.205 C 
BRANCH  18  20
ATOM     19  N   UNL     1      33.868 -14.981 -23.342  0.00  0.00    +0.390 N 
ATOM     20  C   UNL     1      35.068 -17.654 -23.248  0.00  0.00    +0.040 C 
ATOM     21  C   UNL     1      34.999 -16.740 -22.021  0.00  0.00    -0.019 C 
ATOM     22  C   UNL     1      33.949 -17.290 -24.228  0.00  0.00    -0.019 C 
ATOM     23  C   UNL     1      34.980 -15.265 -22.425  0.00  0.00    -0.077 C 
ATOM     24  C   UNL     1      33.964 -15.796 -24.560  0.00  0.00    -0.077 C 
ATOM     25  H   UNL     1      32.999 -15.227 -22.867  0.00  0.00    -0.079 HD
BRANCH  19  26
ATOM     26  C   UNL     1      33.833 -13.558 -23.678  0.00  0.00    -0.048 C 
BRANCH  26  28
ATOM     27  F   UNL     1      33.077 -10.856 -24.082  0.00  0.00    -0.205 F 
ATOM     28  C   UNL     1      33.053 -12.762 -22.665  0.00  0.00    -0.016 C 
ATOM     29  C   UNL     1      32.714 -11.434 -22.929  0.00  0.00    +0.134 C 
ATOM     30  C   UNL     1      32.671 -13.354 -21.463  0.00  0.00    -0.004 C 
ATOM     31  C   UNL     1      31.993 -10.699 -21.987  0.00  0.00    +0.029 C 
ATOM     32  C   UNL     1      31.950 -12.620 -20.521  0.00  0.00    -0.000 C 
ATOM     33  C   UNL     1      31.611 -11.292 -20.783  0.00  0.00    +0.002 C 
ENDBRANCH  26  28
ENDBRANCH  19  26
ENDBRANCH  18  20
ENDBRANCH   1  18
TORSDOF 5
ENDMDL
MODEL 5
REMARK VINA RESULT:     -11.2      2.221      3.644
REMARK  Name = 23729147
REMARK  5 active torsions:
REMARK  status: ('A' for Active; 'I' for Inactive)
REMARK    1  A    between atoms: O_1  and  C_6
REMARK    2  A    between atoms: O_1  and  C_18
REMARK    3  A    between atoms: C_18  and  C_20
REMARK    4  A    between atoms: N_19  and  C_26
REMARK    5  A    between atoms: C_26  and  C_28
REMARK                            x       y       z     vdW  Elec       q    Type
REMARK                         _______ _______ _______ _____ _____    ______ ____
ROOT
ATOM      1  O   UNL     1      33.578 -22.852 -16.936  0.00  0.00    -0.479 OA
ENDROOT
BRANCH   1   6
ATOM      2  N   UNL     1      33.487 -24.376 -12.337  0.00  0.00    -0.332 NA
ATOM      3  N   UNL     1      35.627 -23.932 -13.353  0.00  0.00    -0.317 NA
ATOM      4  N   UNL     1      35.794 -23.195 -15.559  0.00  0.00    -0.335 N 
ATOM      5  N   UNL     1      35.479 -24.673 -11.135  0.00  0.00    -0.283 N 
ATOM      6  C   UNL     1      32.925 -23.259 -15.798  0.00  0.00    +0.130 C 
ATOM      7  C   UNL     1      33.586 -23.619 -14.611  0.00  0.00    +0.177 C 
ATOM      8  C   UNL     1      31.536 -23.306 -15.863  0.00  0.00    +0.033 C 
ATOM      9  C   UNL     1      32.865 -24.030 -13.478  0.00  0.00    +0.137 C 
ATOM     10  C   UNL     1      34.972 -23.593 -14.479  0.00  0.00    +0.181 C 
ATOM     11  C   UNL     1      30.811 -23.712 -14.748  0.00  0.00    +0.005 C 
ATOM     12  C   UNL     1      31.476 -24.068 -13.571  0.00  0.00    +0.030 C 
ATOM     13  C   UNL     1      34.834 -24.308 -12.336  0.00  0.00    +0.197 C 
ATOM     14  H   UNL     1      36.772 -23.180 -15.454  0.00  0.00    +0.144 HD
ATOM     15  H   UNL     1      35.387 -22.931 -16.417  0.00  0.00    +0.144 HD
ATOM     16  H   UNL     1      34.948 -24.957 -10.357  0.00  0.00    +0.156 HD
ATOM     17  H   UNL     1      36.462 -24.642 -11.075  0.00  0.00    +0.156 HD
ENDBRANCH   1   6
BRANCH   1  18
ATOM     18  C   UNL     1      32.778 -22.350 -17.990  0.00  0.00    +0.205 C 
BRANCH  18  20
ATOM     19  N   UNL     1      35.432 -19.838 -20.293  0.00  0.00    +0.390 N 
ATOM     20  C   UNL     1      33.696 -21.887 -19.118  0.00  0.00    +0.040 C 
ATOM     21  C   UNL     1      35.111 -21.612 -18.600  0.00  0.00    -0.019 C 
ATOM     22  C   UNL     1      33.141 -20.632 -19.800  0.00  0.00    -0.019 C 
ATOM     23  C   UNL     1      36.010 -21.053 -19.703  0.00  0.00    -0.077 C 
ATOM     24  C   UNL     1      34.106 -20.105 -20.865  0.00  0.00    -0.077 C 
ATOM     25  H   UNL     1      35.320 -19.150 -19.548  0.00  0.00    -0.079 HD
BRANCH  19  26
ATOM     26  C   UNL     1      36.327 -19.287 -21.310  0.00  0.00    -0.048 C 
BRANCH  26  28
ATOM     27  F   UNL     1      35.057 -20.022 -23.735  0.00  0.00    -0.205 F 
ATOM     28  C   UNL     1      35.622 -18.299 -22.202  0.00  0.00    -0.016 C 
ATOM     29  C   UNL     1      35.017 -18.730 -23.383  0.00  0.00    +0.134 C 
ATOM     30  C   UNL     1      35.575 -16.953 -21.845  0.00  0.00    -0.004 C 
ATOM     31  C   UNL     1      34.366 -17.811 -24.207  0.00  0.00    +0.029 C 
ATOM     32  C   UNL     1      34.924 -16.034 -22.668  0.00  0.00    -0.000 C 
ATOM     33  C   UNL     1      34.320 -16.464 -23.850  0.00  0.00    +0.002 C 
ENDBRANCH  26  28
ENDBRANCH  19  26
ENDBRANCH  18  20
ENDBRANCH   1  18
TORSDOF 5
ENDMDL
MODEL 6
REMARK VINA RESULT:     -11.2      3.239      9.437
REMARK  Name = 23729147
REMARK  5 active torsions:
REMARK  status: ('A' for Active; 'I' for Inactive)
REMARK    1  A    between atoms: O_1  and  C_6
REMARK    2  A    between atoms: O_1  and  C_18
REMARK    3  A    between atoms: C_18  and  C_20
REMARK    4  A    between atoms: N_19  and  C_26
REMARK    5  A    between atoms: C_26  and  C_28
REMARK                            x       y       z     vdW  Elec       q    Type
REMARK                         _______ _______ _______ _____ _____    ______ ____
ROOT
ATOM      1  O   UNL     1      35.247 -17.866 -22.048  0.00  0.00    -0.479 OA
ENDROOT
BRANCH   1   6
ATOM      2  N   UNL     1      33.616 -13.608 -23.690  0.00  0.00    -0.332 NA
ATOM      3  N   UNL     1      33.925 -15.401 -25.270  0.00  0.00    -0.317 NA
ATOM      4  N   UNL     1      34.705 -17.493 -24.596  0.00  0.00    -0.335 N 
ATOM      5  N   UNL     1      33.141 -13.305 -25.967  0.00  0.00    -0.283 N 
ATOM      6  C   UNL     1      34.857 -16.559 -21.876  0.00  0.00    +0.130 C 
ATOM      7  C   UNL     1      34.421 -15.735 -22.928  0.00  0.00    +0.177 C 
ATOM      8  C   UNL     1      34.913 -16.061 -20.578  0.00  0.00    +0.033 C 
ATOM      9  C   UNL     1      34.036 -14.405 -22.691  0.00  0.00    +0.137 C 
ATOM     10  C   UNL     1      34.340 -16.172 -24.247  0.00  0.00    +0.181 C 
ATOM     11  C   UNL     1      34.535 -14.746 -20.332  0.00  0.00    +0.005 C 
ATOM     12  C   UNL     1      34.101 -13.933 -21.383  0.00  0.00    +0.030 C 
ATOM     13  C   UNL     1      33.583 -14.149 -24.925  0.00  0.00    +0.197 C 
ATOM     14  H   UNL     1      34.644 -17.790 -25.532  0.00  0.00    +0.144 HD
ATOM     15  H   UNL     1      35.018 -18.117 -23.901  0.00  0.00    +0.144 HD
ATOM     16  H   UNL     1      32.878 -12.378 -25.772  0.00  0.00    +0.156 HD
ATOM     17  H   UNL     1      33.096 -13.646 -26.890  0.00  0.00    +0.156 HD
ENDBRANCH   1   6
BRANCH   1  18
ATOM     18  C   UNL     1      35.995 -18.455 -21.001  0.00  0.00    +0.205 C 
BRANCH  18  20
ATOM     19  N   UNL     1      34.257 -21.778 -18.856  0.00  0.00    +0.390 N 
ATOM     20  C   UNL     1      35.429 -19.845 -20.724  0.00  0.00    +0.040 C 
ATOM     21  C   UNL     1      33.969 -19.765 -20.264  0.00  0.00    -0.019 C 
ATOM     22  C   UNL     1      36.263 -20.579 -19.669  0.00  0.00    -0.019 C 
ATOM     23  C   UNL     1      33.426 -21.145 -19.889  0.00  0.00    -0.077 C 
ATOM     24  C   UNL     1      35.644 -21.933 -19.313  0.00  0.00    -0.077 C 
ATOM     25  H   UNL     1      34.262 -21.168 -18.039  0.00  0.00    -0.079 HD
BRANCH  19  26
ATOM     26  C   UNL     1      33.697 -23.073 -18.471  0.00  0.00    -0.048 C 
BRANCH  26  28
ATOM     27  F   UNL     1      35.526 -23.248 -16.312  0.00  0.00    -0.205 F 
ATOM     28  C   UNL     1      33.267 -23.091 -17.028  0.00  0.00    -0.016 C 
ATOM     29  C   UNL     1      34.221 -23.180 -16.014  0.00  0.00    +0.134 C 
ATOM     30  C   UNL     1      31.912 -23.021 -16.707  0.00  0.00    -0.004 C 
ATOM     31  C   UNL     1      33.819 -23.198 -14.678  0.00  0.00    +0.029 C 
ATOM     32  C   UNL     1      31.510 -23.038 -15.371  0.00  0.00    -0.000 C 
ATOM     33  C   UNL     1      32.463 -23.128 -14.357  0.00  0.00    +0.002 C 
ENDBRANCH  26  28
ENDBRANCH  19  26
ENDBRANCH  18  20
ENDBRANCH   1  18
TORSDOF 5
ENDMDL
MODEL 7
REMARK VINA RESULT:     -11.1      2.299      3.431
REMARK  Name = 23729147
REMARK  5 active torsions:
REMARK  status: ('A' for Active; 'I' for Inactive)
REMARK    1  A    between atoms: O_1  and  C_6
REMARK    2  A    between atoms: O_1  and  C_18
REMARK    3  A    between atoms: C_18  and  C_20
REMARK    4  A    between atoms: N_19  and  C_26
REMARK    5  A    between atoms: C_26  and  C_28
REMARK                            x       y       z     vdW  Elec       q    Type
REMARK                         _______ _______ _______ _____ _____    ______ ____
ROOT
ATOM      1  O   UNL     1      34.822 -22.878 -17.113  0.00  0.00    -0.479 OA
ENDROOT
BRANCH   1   6
ATOM      2  N   UNL     1      35.776 -23.838 -12.460  0.00  0.00    -0.332 NA
ATOM      3  N   UNL     1      37.608 -23.223 -13.900  0.00  0.00    -0.317 NA
ATOM      4  N   UNL     1      37.269 -22.740 -16.157  0.00  0.00    -0.335 N 
ATOM      5  N   UNL     1      37.968 -23.706 -11.636  0.00  0.00    -0.283 N 
ATOM      6  C   UNL     1      34.450 -23.234 -15.839  0.00  0.00    +0.130 C 
ATOM      7  C   UNL     1      35.356 -23.353 -14.771  0.00  0.00    +0.177 C 
ATOM      8  C   UNL     1      33.097 -23.484 -15.635  0.00  0.00    +0.033 C 
ATOM      9  C   UNL     1      34.918 -23.722 -13.489  0.00  0.00    +0.137 C 
ATOM     10  C   UNL     1      36.722 -23.116 -14.908  0.00  0.00    +0.181 C 
ATOM     11  C   UNL     1      32.651 -23.851 -14.370  0.00  0.00    +0.005 C 
ATOM     12  C   UNL     1      33.559 -23.966 -13.313  0.00  0.00    +0.030 C 
ATOM     13  C   UNL     1      37.074 -23.583 -12.722  0.00  0.00    +0.197 C 
ATOM     14  H   UNL     1      38.236 -22.575 -16.241  0.00  0.00    +0.144 HD
ATOM     15  H   UNL     1      36.683 -22.640 -16.942  0.00  0.00    +0.144 HD
ATOM     16  H   UNL     1      37.632 -23.967 -10.749  0.00  0.00    +0.156 HD
ATOM     17  H   UNL     1      38.928 -23.531 -11.767  0.00  0.00    +0.156 HD
ENDBRANCH   1   6
BRANCH   1  18
ATOM     18  C   UNL     1      33.781 -22.588 -18.028  0.00  0.00    +0.205 C 
BRANCH  18  20
ATOM     19  N   UNL     1      35.338 -19.415 -20.511  0.00  0.00    +0.390 N 
ATOM     20  C   UNL     1      34.382 -21.876 -19.237  0.00  0.00    +0.040 C 
ATOM     21  C   UNL     1      35.730 -21.238 -18.887  0.00  0.00    -0.019 C 
ATOM     22  C   UNL     1      33.428 -20.806 -19.776  0.00  0.00    -0.019 C 
ATOM     23  C   UNL     1      36.292 -20.439 -20.064  0.00  0.00    -0.077 C 
ATOM     24  C   UNL     1      34.065 -20.020 -20.925  0.00  0.00    -0.077 C 
ATOM     25  H   UNL     1      35.150 -18.795 -19.723  0.00  0.00    -0.079 HD
BRANCH  19  26
ATOM     26  C   UNL     1      35.909 -18.626 -21.603  0.00  0.00    -0.048 C 
BRANCH  26  28
ATOM     27  F   UNL     1      35.340 -17.250 -24.015  0.00  0.00    -0.205 F 
ATOM     28  C   UNL     1      35.344 -17.231 -21.640  0.00  0.00    -0.016 C 
ATOM     29  C   UNL     1      35.088 -16.611 -22.864  0.00  0.00    +0.134 C 
ATOM     30  C   UNL     1      35.079 -16.557 -20.449  0.00  0.00    -0.004 C 
ATOM     31  C   UNL     1      34.566 -15.317 -22.895  0.00  0.00    +0.029 C 
ATOM     32  C   UNL     1      34.557 -15.264 -20.479  0.00  0.00    -0.000 C 
ATOM     33  C   UNL     1      34.301 -14.644 -21.703  0.00  0.00    +0.002 C 
ENDBRANCH  26  28
ENDBRANCH  19  26
ENDBRANCH  18  20
ENDBRANCH   1  18
TORSDOF 5
ENDMDL
MODEL 8
REMARK VINA RESULT:     -11.1      4.787     10.763
REMARK  Name = 23729147
REMARK  5 active torsions:
REMARK  status: ('A' for Active; 'I' for Inactive)
REMARK    1  A    between atoms: O_1  and  C_6
REMARK    2  A    between atoms: O_1  and  C_18
REMARK    3  A    between atoms: C_18  and  C_20
REMARK    4  A    between atoms: N_19  and  C_26
REMARK    5  A    between atoms: C_26  and  C_28
REMARK                            x       y       z     vdW  Elec       q    Type
REMARK                         _______ _______ _______ _____ _____    ______ ____
ROOT
ATOM      1  O   UNL     1      33.025 -13.287 -23.386  0.00  0.00    -0.479 OA
ENDROOT
BRANCH   1   6
ATOM      2  N   UNL     1      33.016  -8.540 -22.410  0.00  0.00    -0.332 NA
ATOM      3  N   UNL     1      31.723 -10.001 -20.995  0.00  0.00    -0.317 NA
ATOM      4  N   UNL     1      31.652 -12.302 -21.369  0.00  0.00    -0.335 N 
ATOM      5  N   UNL     1      31.783  -7.691 -20.605  0.00  0.00    -0.283 N 
ATOM      6  C   UNL     1      33.409 -11.990 -23.628  0.00  0.00    +0.130 C 
ATOM      7  C   UNL     1      32.988 -10.898 -22.851  0.00  0.00    +0.177 C 
ATOM      8  C   UNL     1      34.259 -11.787 -24.711  0.00  0.00    +0.033 C 
ATOM      9  C   UNL     1      33.413  -9.592 -23.148  0.00  0.00    +0.137 C 
ATOM     10  C   UNL     1      32.139 -11.032 -21.755  0.00  0.00    +0.181 C 
ATOM     11  C   UNL     1      34.685 -10.500 -25.015  0.00  0.00    +0.005 C 
ATOM     12  C   UNL     1      34.263  -9.419 -24.236  0.00  0.00    +0.030 C 
ATOM     13  C   UNL     1      32.194  -8.802 -21.374  0.00  0.00    +0.197 C 
ATOM     14  H   UNL     1      31.053 -12.384 -20.592  0.00  0.00    +0.144 HD
ATOM     15  H   UNL     1      31.913 -13.105 -21.876  0.00  0.00    +0.144 HD
ATOM     16  H   UNL     1      32.096  -6.788 -20.837  0.00  0.00    +0.156 HD
ATOM     17  H   UNL     1      31.182  -7.822 -19.835  0.00  0.00    +0.156 HD
ENDBRANCH   1   6
BRANCH   1  18
ATOM     18  C   UNL     1      33.260 -14.229 -24.415  0.00  0.00    +0.205 C 
BRANCH  18  20
ATOM     19  N   UNL     1      34.911 -17.669 -22.389  0.00  0.00    +0.390 N 
ATOM     20  C   UNL     1      34.283 -15.246 -23.917  0.00  0.00    +0.040 C 
ATOM     21  C   UNL     1      33.961 -16.652 -24.434  0.00  0.00    -0.019 C 
ATOM     22  C   UNL     1      34.345 -15.260 -22.386  0.00  0.00    -0.019 C 
ATOM     23  C   UNL     1      34.923 -17.692 -23.858  0.00  0.00    -0.077 C 
ATOM     24  C   UNL     1      35.295 -16.347 -21.877  0.00  0.00    -0.077 C 
ATOM     25  H   UNL     1      33.959 -17.861 -22.080  0.00  0.00    -0.079 HD
BRANCH  19  26
ATOM     26  C   UNL     1      35.797 -18.702 -21.854  0.00  0.00    -0.048 C 
BRANCH  26  28
ATOM     27  F   UNL     1      37.106 -20.369 -19.970  0.00  0.00    -0.205 F 
ATOM     28  C   UNL     1      35.062 -19.656 -20.949  0.00  0.00    -0.016 C 
ATOM     29  C   UNL     1      35.770 -20.448 -20.044  0.00  0.00    +0.134 C 
ATOM     30  C   UNL     1      33.673 -19.747 -21.018  0.00  0.00    -0.004 C 
ATOM     31  C   UNL     1      35.086 -21.332 -19.208  0.00  0.00    +0.029 C 
ATOM     32  C   UNL     1      32.989 -20.629 -20.182  0.00  0.00    -0.000 C 
ATOM     33  C   UNL     1      33.696 -21.422 -19.277  0.00  0.00    +0.002 C 
ENDBRANCH  26  28
ENDBRANCH  19  26
ENDBRANCH  18  20
ENDBRANCH   1  18
TORSDOF 5
ENDMDL
MODEL 9
REMARK VINA RESULT:     -10.9      1.770      2.751
REMARK  Name = 23729147
REMARK  5 active torsions:
REMARK  status: ('A' for Active; 'I' for Inactive)
REMARK    1  A    between atoms: O_1  and  C_6
REMARK    2  A    between atoms: O_1  and  C_18
REMARK    3  A    between atoms: C_18  and  C_20
REMARK    4  A    between atoms: N_19  and  C_26
REMARK    5  A    between atoms: C_26  and  C_28
REMARK                            x       y       z     vdW  Elec       q    Type
REMARK                         _______ _______ _______ _____ _____    ______ ____
ROOT
ATOM      1  O   UNL     1      32.795 -22.525 -17.427  0.00  0.00    -0.479 OA
ENDROOT
BRANCH   1   6
ATOM      2  N   UNL     1      32.290 -24.530 -13.044  0.00  0.00    -0.332 NA
ATOM      3  N   UNL     1      30.300 -23.905 -14.252  0.00  0.00    -0.317 NA
ATOM      4  N   UNL     1      30.420 -22.932 -16.369  0.00  0.00    -0.335 N 
ATOM      5  N   UNL     1      30.160 -24.881 -12.127  0.00  0.00    -0.283 N 
ATOM      6  C   UNL     1      33.294 -23.076 -16.272  0.00  0.00    +0.130 C 
ATOM      7  C   UNL     1      32.486 -23.534 -15.218  0.00  0.00    +0.177 C 
ATOM      8  C   UNL     1      34.679 -23.168 -16.177  0.00  0.00    +0.033 C 
ATOM      9  C   UNL     1      33.054 -24.088 -14.059  0.00  0.00    +0.137 C 
ATOM     10  C   UNL     1      31.095 -23.472 -15.249  0.00  0.00    +0.181 C 
ATOM     11  C   UNL     1      35.253 -23.714 -15.035  0.00  0.00    +0.005 C 
ATOM     12  C   UNL     1      34.442 -24.168 -13.991  0.00  0.00    +0.030 C 
ATOM     13  C   UNL     1      30.954 -24.415 -13.196  0.00  0.00    +0.197 C 
ATOM     14  H   UNL     1      29.437 -22.894 -16.380  0.00  0.00    +0.144 HD
ATOM     15  H   UNL     1      30.934 -22.595 -17.138  0.00  0.00    +0.144 HD
ATOM     16  H   UNL     1      30.585 -25.265 -11.327  0.00  0.00    +0.156 HD
ATOM     17  H   UNL     1      29.178 -24.824 -12.182  0.00  0.00    +0.156 HD
ENDBRANCH   1   6
BRANCH   1  18
ATOM     18  C   UNL     1      33.537 -22.737 -18.613  0.00  0.00    +0.205 C 
BRANCH  18  20
ATOM     19  N   UNL     1      35.607 -19.773 -20.977  0.00  0.00    +0.390 N 
ATOM     20  C   UNL     1      34.240 -21.435 -18.986  0.00  0.00    +0.040 C 
ATOM     21  C   UNL     1      33.489 -20.703 -20.102  0.00  0.00    -0.019 C 
ATOM     22  C   UNL     1      35.686 -21.694 -19.419  0.00  0.00    -0.019 C 
ATOM     23  C   UNL     1      34.240 -19.447 -20.550  0.00  0.00    -0.077 C 
ATOM     24  C   UNL     1      36.366 -20.406 -19.890  0.00  0.00    -0.077 C 
ATOM     25  H   UNL     1      35.546 -20.440 -21.746  0.00  0.00    -0.079 HD
BRANCH  19  26
ATOM     26  C   UNL     1      36.295 -18.572 -21.450  0.00  0.00    -0.048 C 
BRANCH  26  28
ATOM     27  F   UNL     1      35.099 -19.853 -23.678  0.00  0.00    -0.205 F 
ATOM     28  C   UNL     1      35.488 -17.836 -22.486  0.00  0.00    -0.016 C 
ATOM     29  C   UNL     1      34.927 -18.529 -23.559  0.00  0.00    +0.134 C 
ATOM     30  C   UNL     1      35.304 -16.459 -22.373  0.00  0.00    -0.004 C 
ATOM     31  C   UNL     1      34.181 -17.844 -24.519  0.00  0.00    +0.029 C 
ATOM     32  C   UNL     1      34.558 -15.773 -23.332  0.00  0.00    -0.000 C 
ATOM     33  C   UNL     1      33.998 -16.466 -24.405  0.00  0.00    +0.002 C 
ENDBRANCH  26  28
ENDBRANCH  19  26
ENDBRANCH  18  20
ENDBRANCH   1  18
TORSDOF 5
ENDMDL
