MODEL 1
REMARK VINA RESULT:     -11.9      0.000      0.000
REMARK  Name = 46937052
REMARK  7 active torsions:
REMARK  status: ('A' for Active; 'I' for Inactive)
REMARK    1  A    between atoms: O_1  and  C_3
REMARK    2  A    between atoms: O_1  and  C_17
REMARK    3  A    between atoms: C_4  and  C_11
REMARK    4  A    between atoms: C_17  and  C_18
REMARK    5  A    between atoms: C_18  and  N_19
REMARK    6  A    between atoms: C_18  and  C_23
REMARK    7  A    between atoms: C_23  and  C_25
REMARK                            x       y       z     vdW  Elec       q    Type
REMARK                         _______ _______ _______ _____ _____    ______ ____
ROOT
ATOM      1  O   UNL     1      35.474 -16.691 -22.367  0.00  0.00    -0.476 OA
ENDROOT
BRANCH   1   3
ATOM      2  N   UNL     1      33.758 -15.346 -25.305  0.00  0.00    -0.239 NA
ATOM      3  C   UNL     1      34.746 -15.836 -23.154  0.00  0.00    +0.158 C 
ATOM      4  C   UNL     1      33.527 -13.787 -23.471  0.00  0.00    +0.039 C 
ATOM      5  C   UNL     1      34.263 -14.634 -22.650  0.00  0.00    +0.042 C 
ATOM      6  C   UNL     1      34.469 -16.143 -24.476  0.00  0.00    +0.136 C 
ATOM      7  C   UNL     1      33.305 -14.186 -24.780  0.00  0.00    +0.101 C 
BRANCH   4  11
ATOM      8  N   UNL     1      32.126 -12.521 -22.014  0.00  0.00    -0.264 NA
ATOM      9  N   UNL     1      31.765  -8.837 -21.816  0.00  0.00    -0.150 NA
ATOM     10  N   UNL     1      32.530  -7.973 -22.714  0.00  0.00    -0.147 NA
ATOM     11  C   UNL     1      32.997 -12.493 -22.963  0.00  0.00    +0.078 C 
ATOM     12  C   UNL     1      33.051 -10.129 -23.164  0.00  0.00    +0.040 C 
ATOM     13  C   UNL     1      32.083 -10.073 -22.097  0.00  0.00    +0.107 C 
ATOM     14  C   UNL     1      31.551 -11.298 -21.450  0.00  0.00    +0.173 C 
ATOM     15  C   UNL     1      33.528 -11.272 -23.631  0.00  0.00    +0.022 C 
ATOM     16  C   UNL     1      33.257  -8.735 -23.479  0.00  0.00    +0.123 C 
ENDBRANCH   4  11
ENDBRANCH   1   3
BRANCH   1  17
ATOM     17  C   UNL     1      35.330 -18.081 -22.627  0.00  0.00    +0.184 C 
BRANCH  17  18
ATOM     18  C   UNL     1      35.773 -18.903 -21.410  0.00  0.00    -0.017 C 
BRANCH  18  19
ATOM     19  N   UNL     1      35.921 -17.993 -20.271  0.00  0.00    +0.384 N 
ATOM     20  H   UNL     1      35.351 -18.327 -19.494  0.00  0.00    -0.089 HD
ATOM     21  H   UNL     1      35.616 -17.058 -20.540  0.00  0.00    -0.089 HD
ATOM     22  H   UNL     1      36.900 -17.963 -19.985  0.00  0.00    -0.089 HD
ENDBRANCH  18  19
BRANCH  18  23
ATOM     23  C   UNL     1      34.772 -20.024 -21.037  0.00  0.00    +0.010 C 
BRANCH  23  25
ATOM     24  N   UNL     1      36.685 -21.783 -18.350  0.00  0.00    -0.244 NA
ATOM     25  C   UNL     1      35.151 -20.821 -19.856  0.00  0.00    -0.004 C 
ATOM     26  C   UNL     1      34.469 -21.498 -18.925  0.00  0.00    +0.011 C 
ATOM     27  C   UNL     1      35.402 -22.096 -17.992  0.00  0.00    +0.080 C 
ATOM     28  C   UNL     1      36.536 -21.055 -19.416  0.00  0.00    +0.094 C 
ATOM     29  C   UNL     1      33.045 -21.664 -18.787  0.00  0.00    -0.020 C 
ATOM     30  C   UNL     1      34.967 -22.830 -16.961  0.00  0.00    +0.015 C 
ATOM     31  C   UNL     1      33.486 -23.061 -16.734  0.00  0.00    -0.020 C 
ATOM     32  C   UNL     1      32.582 -22.398 -17.758  0.00  0.00    +0.052 C 
ENDBRANCH  23  25
ENDBRANCH  18  23
ENDBRANCH  17  18
ENDBRANCH   1  17
TORSDOF 7
ENDMDL
MODEL 2
REMARK VINA RESULT:     -11.8      3.008     10.968
REMARK  Name = 46937052
REMARK  7 active torsions:
REMARK  status: ('A' for Active; 'I' for Inactive)
REMARK    1  A    between atoms: O_1  and  C_3
REMARK    2  A    between atoms: O_1  and  C_17
REMARK    3  A    between atoms: C_4  and  C_11
REMARK    4  A    between atoms: C_17  and  C_18
REMARK    5  A    between atoms: C_18  and  N_19
REMARK    6  A    between atoms: C_18  and  C_23
REMARK    7  A    between atoms: C_23  and  C_25
REMARK                            x       y       z     vdW  Elec       q    Type
REMARK                         _______ _______ _______ _____ _____    ______ ____
ROOT
ATOM      1  O   UNL     1      33.725 -20.206 -20.575  0.00  0.00    -0.476 OA
ENDROOT
BRANCH   1   3
ATOM      2  N   UNL     1      35.708 -22.269 -18.294  0.00  0.00    -0.239 NA
ATOM      3  C   UNL     1      34.033 -21.044 -19.534  0.00  0.00    +0.158 C 
ATOM      4  C   UNL     1      33.385 -22.365 -17.631  0.00  0.00    +0.039 C 
ATOM      5  C   UNL     1      33.044 -21.517 -18.679  0.00  0.00    +0.042 C 
ATOM      6  C   UNL     1      35.338 -21.446 -19.301  0.00  0.00    +0.136 C 
ATOM      7  C   UNL     1      34.720 -22.708 -17.484  0.00  0.00    +0.101 C 
BRANCH   4  11
ATOM      8  N   UNL     1      31.111 -22.714 -17.002  0.00  0.00    -0.264 NA
ATOM      9  N   UNL     1      29.809 -24.420 -13.979  0.00  0.00    -0.150 NA
ATOM     10  N   UNL     1      30.733 -24.967 -12.986  0.00  0.00    -0.147 NA
ATOM     11  C   UNL     1      32.351 -22.889 -16.699  0.00  0.00    +0.078 C 
ATOM     12  C   UNL     1      31.937 -24.027 -14.658  0.00  0.00    +0.040 C 
ATOM     13  C   UNL     1      30.527 -23.884 -14.929  0.00  0.00    +0.107 C 
ATOM     14  C   UNL     1      30.026 -23.198 -16.146  0.00  0.00    +0.173 C 
ATOM     15  C   UNL     1      32.868 -23.562 -15.474  0.00  0.00    +0.022 C 
ATOM     16  C   UNL     1      31.946 -24.728 -13.395  0.00  0.00    +0.123 C 
ENDBRANCH   4  11
ENDBRANCH   1   3
BRANCH   1  17
ATOM     17  C   UNL     1      34.780 -19.887 -21.473  0.00  0.00    +0.184 C 
BRANCH  17  18
ATOM     18  C   UNL     1      35.140 -18.399 -21.369  0.00  0.00    -0.017 C 
BRANCH  18  19
ATOM     19  N   UNL     1      36.084 -18.231 -20.261  0.00  0.00    +0.384 N 
ATOM     20  H   UNL     1      36.457 -19.142 -19.991  0.00  0.00    -0.089 HD
ATOM     21  H   UNL     1      35.603 -17.812 -19.465  0.00  0.00    -0.089 HD
ATOM     22  H   UNL     1      36.849 -17.624 -20.555  0.00  0.00    -0.089 HD
ENDBRANCH  18  19
BRANCH  18  23
ATOM     23  C   UNL     1      35.774 -17.836 -22.664  0.00  0.00    +0.010 C 
BRANCH  23  25
ATOM     24  N   UNL     1      33.839 -15.811 -25.140  0.00  0.00    -0.244 NA
ATOM     25  C   UNL     1      34.989 -16.779 -23.326  0.00  0.00    -0.004 C 
ATOM     26  C   UNL     1      34.506 -15.591 -22.943  0.00  0.00    +0.011 C 
ATOM     27  C   UNL     1      33.796 -14.985 -24.050  0.00  0.00    +0.080 C 
ATOM     28  C   UNL     1      34.521 -16.834 -24.721  0.00  0.00    +0.094 C 
ATOM     29  C   UNL     1      34.619 -14.937 -21.664  0.00  0.00    -0.020 C 
ATOM     30  C   UNL     1      33.217 -13.785 -23.921  0.00  0.00    +0.015 C 
ATOM     31  C   UNL     1      33.284 -13.020 -22.613  0.00  0.00    -0.020 C 
ATOM     32  C   UNL     1      34.046 -13.730 -21.508  0.00  0.00    +0.052 C 
ENDBRANCH  23  25
ENDBRANCH  18  23
ENDBRANCH  17  18
ENDBRANCH   1  17
TORSDOF 7
ENDMDL
MODEL 3
REMARK VINA RESULT:     -11.7      3.067     11.387
REMARK  Name = 46937052
REMARK  7 active torsions:
REMARK  status: ('A' for Active; 'I' for Inactive)
REMARK    1  A    between atoms: O_1  and  C_3
REMARK    2  A    between atoms: O_1  and  C_17
REMARK    3  A    between atoms: C_4  and  C_11
REMARK    4  A    between atoms: C_17  and  C_18
REMARK    5  A    between atoms: C_18  and  N_19
REMARK    6  A    between atoms: C_18  and  C_23
REMARK    7  A    between atoms: C_23  and  C_25
REMARK                            x       y       z     vdW  Elec       q    Type
REMARK                         _______ _______ _______ _____ _____    ______ ____
ROOT
ATOM      1  O   UNL     1      35.455 -20.726 -20.137  0.00  0.00    -0.476 OA
ENDROOT
BRANCH   1   3
ATOM      2  N   UNL     1      32.657 -22.373 -18.451  0.00  0.00    -0.239 NA
ATOM      3  C   UNL     1      34.757 -21.429 -19.191  0.00  0.00    +0.158 C 
ATOM      4  C   UNL     1      34.649 -22.617 -17.102  0.00  0.00    +0.039 C 
ATOM      5  C   UNL     1      35.383 -21.906 -18.045  0.00  0.00    +0.042 C 
ATOM      6  C   UNL     1      33.404 -21.687 -19.345  0.00  0.00    +0.136 C 
ATOM      7  C   UNL     1      33.301 -22.822 -17.350  0.00  0.00    +0.101 C 
BRANCH   4  11
ATOM      8  N   UNL     1      36.568 -23.292 -15.857  0.00  0.00    -0.264 NA
ATOM      9  N   UNL     1      36.708 -24.570 -12.380  0.00  0.00    -0.150 NA
ATOM     10  N   UNL     1      35.479 -24.725 -11.602  0.00  0.00    -0.147 NA
ATOM     11  C   UNL     1      35.289 -23.141 -15.865  0.00  0.00    +0.078 C 
ATOM     12  C   UNL     1      34.945 -23.918 -13.650  0.00  0.00    +0.040 C 
ATOM     13  C   UNL     1      36.372 -24.106 -13.554  0.00  0.00    +0.107 C 
ATOM     14  C   UNL     1      37.284 -23.798 -14.684  0.00  0.00    +0.173 C 
ATOM     15  C   UNL     1      34.361 -23.459 -14.744  0.00  0.00    +0.022 C 
ATOM     16  C   UNL     1      34.482 -24.349 -12.351  0.00  0.00    +0.123 C 
ENDBRANCH   4  11
ENDBRANCH   1   3
BRANCH   1  17
ATOM     17  C   UNL     1      34.709 -19.831 -20.951  0.00  0.00    +0.184 C 
BRANCH  17  18
ATOM     18  C   UNL     1      35.433 -18.484 -21.070  0.00  0.00    -0.017 C 
BRANCH  18  19
ATOM     19  N   UNL     1      36.607 -18.514 -20.194  0.00  0.00    +0.384 N 
ATOM     20  H   UNL     1      37.449 -18.629 -20.758  0.00  0.00    -0.089 HD
ATOM     21  H   UNL     1      36.525 -19.294 -19.542  0.00  0.00    -0.089 HD
ATOM     22  H   UNL     1      36.664 -17.639 -19.672  0.00  0.00    -0.089 HD
ENDBRANCH  18  19
BRANCH  18  23
ATOM     23  C   UNL     1      35.888 -18.164 -22.516  0.00  0.00    +0.010 C 
BRANCH  23  25
ATOM     24  N   UNL     1      33.934 -16.182 -25.012  0.00  0.00    -0.244 NA
ATOM     25  C   UNL     1      35.102 -17.116 -23.192  0.00  0.00    -0.004 C 
ATOM     26  C   UNL     1      34.635 -15.915 -22.830  0.00  0.00    +0.011 C 
ATOM     27  C   UNL     1      33.914 -15.330 -23.942  0.00  0.00    +0.080 C 
ATOM     28  C   UNL     1      34.614 -17.201 -24.577  0.00  0.00    +0.094 C 
ATOM     29  C   UNL     1      34.772 -15.232 -21.569  0.00  0.00    -0.020 C 
ATOM     30  C   UNL     1      33.347 -14.122 -23.833  0.00  0.00    +0.015 C 
ATOM     31  C   UNL     1      33.439 -13.326 -22.546  0.00  0.00    -0.020 C 
ATOM     32  C   UNL     1      34.211 -14.016 -21.435  0.00  0.00    +0.052 C 
ENDBRANCH  23  25
ENDBRANCH  18  23
ENDBRANCH  17  18
ENDBRANCH   1  17
TORSDOF 7
ENDMDL
MODEL 4
REMARK VINA RESULT:     -11.6      1.648     10.733
REMARK  Name = 46937052
REMARK  7 active torsions:
REMARK  status: ('A' for Active; 'I' for Inactive)
REMARK    1  A    between atoms: O_1  and  C_3
REMARK    2  A    between atoms: O_1  and  C_17
REMARK    3  A    between atoms: C_4  and  C_11
REMARK    4  A    between atoms: C_17  and  C_18
REMARK    5  A    between atoms: C_18  and  N_19
REMARK    6  A    between atoms: C_18  and  C_23
REMARK    7  A    between atoms: C_23  and  C_25
REMARK                            x       y       z     vdW  Elec       q    Type
REMARK                         _______ _______ _______ _____ _____    ______ ____
ROOT
ATOM      1  O   UNL     1      35.275 -15.331 -22.824  0.00  0.00    -0.476 OA
ENDROOT
BRANCH   1   3
ATOM      2  N   UNL     1      34.282 -18.553 -24.245  0.00  0.00    -0.239 NA
ATOM      3  C   UNL     1      35.025 -16.676 -22.915  0.00  0.00    +0.158 C 
ATOM      4  C   UNL     1      34.979 -18.880 -21.953  0.00  0.00    +0.039 C 
ATOM      5  C   UNL     1      35.240 -17.519 -21.832  0.00  0.00    +0.042 C 
ATOM      6  C   UNL     1      34.549 -17.237 -24.089  0.00  0.00    +0.136 C 
ATOM      7  C   UNL     1      34.505 -19.342 -23.170  0.00  0.00    +0.101 C 
BRANCH   4  11
ATOM      8  N   UNL     1      36.397 -19.949 -20.361  0.00  0.00    -0.264 NA
ATOM      9  N   UNL     1      35.457 -22.387 -17.731  0.00  0.00    -0.150 NA
ATOM     10  N   UNL     1      34.065 -22.814 -17.586  0.00  0.00    -0.147 NA
ATOM     11  C   UNL     1      35.199 -19.809 -20.812  0.00  0.00    +0.078 C 
ATOM     12  C   UNL     1      34.195 -21.329 -19.291  0.00  0.00    +0.040 C 
ATOM     13  C   UNL     1      35.504 -21.534 -18.720  0.00  0.00    +0.107 C 
ATOM     14  C   UNL     1      36.707 -20.840 -19.240  0.00  0.00    +0.173 C 
ATOM     15  C   UNL     1      33.985 -20.511 -20.309  0.00  0.00    +0.022 C 
ATOM     16  C   UNL     1      33.362 -22.198 -18.492  0.00  0.00    +0.123 C 
ENDBRANCH   4  11
ENDBRANCH   1   3
BRANCH   1  17
ATOM     17  C   UNL     1      34.196 -14.505 -22.407  0.00  0.00    +0.184 C 
BRANCH  17  18
ATOM     18  C   UNL     1      33.853 -13.480 -23.495  0.00  0.00    -0.017 C 
BRANCH  18  19
ATOM     19  N   UNL     1      33.076 -14.157 -24.537  0.00  0.00    +0.384 N 
ATOM     20  H   UNL     1      32.273 -14.622 -24.113  0.00  0.00    -0.089 HD
ATOM     21  H   UNL     1      33.662 -14.850 -25.003  0.00  0.00    -0.089 HD
ATOM     22  H   UNL     1      32.751 -13.471 -25.218  0.00  0.00    -0.089 HD
ENDBRANCH  18  19
BRANCH  18  23
ATOM     23  C   UNL     1      33.041 -12.275 -22.961  0.00  0.00    +0.010 C 
BRANCH  23  25
ATOM     24  N   UNL     1      34.969  -9.501 -24.562  0.00  0.00    -0.244 NA
ATOM     25  C   UNL     1      33.577 -10.954 -23.338  0.00  0.00    -0.004 C 
ATOM     26  C   UNL     1      33.337  -9.698 -22.944  0.00  0.00    +0.011 C 
ATOM     27  C   UNL     1      34.187  -8.793 -23.689  0.00  0.00    +0.080 C 
ATOM     28  C   UNL     1      34.616 -10.734 -24.357  0.00  0.00    +0.094 C 
ATOM     29  C   UNL     1      32.407  -9.222 -21.951  0.00  0.00    -0.020 C 
ATOM     30  C   UNL     1      34.137  -7.473 -23.478  0.00  0.00    +0.015 C 
ATOM     31  C   UNL     1      33.191  -6.879 -22.453  0.00  0.00    -0.020 C 
ATOM     32  C   UNL     1      32.338  -7.899 -21.721  0.00  0.00    +0.052 C 
ENDBRANCH  23  25
ENDBRANCH  18  23
ENDBRANCH  17  18
ENDBRANCH   1  17
TORSDOF 7
ENDMDL
MODEL 5
REMARK VINA RESULT:     -11.5      7.054     11.618
REMARK  Name = 46937052
REMARK  7 active torsions:
REMARK  status: ('A' for Active; 'I' for Inactive)
REMARK    1  A    between atoms: O_1  and  C_3
REMARK    2  A    between atoms: O_1  and  C_17
REMARK    3  A    between atoms: C_4  and  C_11
REMARK    4  A    between atoms: C_17  and  C_18
REMARK    5  A    between atoms: C_18  and  N_19
REMARK    6  A    between atoms: C_18  and  C_23
REMARK    7  A    between atoms: C_23  and  C_25
REMARK                            x       y       z     vdW  Elec       q    Type
REMARK                         _______ _______ _______ _____ _____    ______ ____
ROOT
ATOM      1  O   UNL     1      36.871 -23.875 -15.348  0.00  0.00    -0.476 OA
ENDROOT
BRANCH   1   3
ATOM      2  N   UNL     1      35.320 -24.251 -12.057  0.00  0.00    -0.239 NA
ATOM      3  C   UNL     1      35.901 -24.032 -14.393  0.00  0.00    +0.158 C 
ATOM      4  C   UNL     1      33.597 -24.288 -13.753  0.00  0.00    +0.039 C 
ATOM      5  C   UNL     1      34.560 -24.131 -14.743  0.00  0.00    +0.042 C 
ATOM      6  C   UNL     1      36.226 -24.097 -13.048  0.00  0.00    +0.136 C 
ATOM      7  C   UNL     1      34.026 -24.343 -12.436  0.00  0.00    +0.101 C 
BRANCH   4  11
ATOM      8  N   UNL     1      31.472 -25.355 -13.567  0.00  0.00    -0.264 NA
ATOM      9  N   UNL     1      28.288 -24.416 -15.216  0.00  0.00    -0.150 NA
ATOM     10  N   UNL     1      28.237 -23.268 -16.121  0.00  0.00    -0.147 NA
ATOM     11  C   UNL     1      32.153 -24.398 -14.094  0.00  0.00    +0.078 C 
ATOM     12  C   UNL     1      30.350 -23.481 -15.336  0.00  0.00    +0.040 C 
ATOM     13  C   UNL     1      29.514 -24.517 -14.780  0.00  0.00    +0.107 C 
ATOM     14  C   UNL     1      30.045 -25.539 -13.844  0.00  0.00    +0.173 C 
ATOM     15  C   UNL     1      31.636 -23.374 -15.046  0.00  0.00    +0.022 C 
ATOM     16  C   UNL     1      29.431 -22.750 -16.176  0.00  0.00    +0.123 C 
ENDBRANCH   4  11
ENDBRANCH   1   3
BRANCH   1  17
ATOM     17  C   UNL     1      37.580 -22.643 -15.346  0.00  0.00    +0.184 C 
BRANCH  17  18
ATOM     18  C   UNL     1      36.925 -21.646 -16.308  0.00  0.00    -0.017 C 
BRANCH  18  19
ATOM     19  N   UNL     1      37.792 -20.469 -16.412  0.00  0.00    +0.384 N 
ATOM     20  H   UNL     1      37.221 -19.624 -16.401  0.00  0.00    -0.089 HD
ATOM     21  H   UNL     1      38.320 -20.511 -17.284  0.00  0.00    -0.089 HD
ATOM     22  H   UNL     1      38.439 -20.453 -15.623  0.00  0.00    -0.089 HD
ENDBRANCH  18  19
BRANCH  18  23
ATOM     23  C   UNL     1      36.693 -22.230 -17.724  0.00  0.00    +0.010 C 
BRANCH  23  25
ATOM     24  N   UNL     1      33.021 -22.196 -18.427  0.00  0.00    -0.244 NA
ATOM     25  C   UNL     1      35.360 -21.956 -18.293  0.00  0.00    -0.004 C 
ATOM     26  C   UNL     1      34.908 -21.190 -19.293  0.00  0.00    +0.011 C 
ATOM     27  C   UNL     1      33.469 -21.329 -19.386  0.00  0.00    +0.080 C 
ATOM     28  C   UNL     1      34.106 -22.551 -17.806  0.00  0.00    +0.094 C 
ATOM     29  C   UNL     1      35.648 -20.334 -20.184  0.00  0.00    -0.020 C 
ATOM     30  C   UNL     1      32.773 -20.660 -20.313  0.00  0.00    +0.015 C 
ATOM     31  C   UNL     1      33.465 -19.736 -21.296  0.00  0.00    -0.020 C 
ATOM     32  C   UNL     1      34.971 -19.651 -21.125  0.00  0.00    +0.052 C 
ENDBRANCH  23  25
ENDBRANCH  18  23
ENDBRANCH  17  18
ENDBRANCH   1  17
TORSDOF 7
ENDMDL
MODEL 6
REMARK VINA RESULT:     -11.4      4.786      7.603
REMARK  Name = 46937052
REMARK  7 active torsions:
REMARK  status: ('A' for Active; 'I' for Inactive)
REMARK    1  A    between atoms: O_1  and  C_3
REMARK    2  A    between atoms: O_1  and  C_17
REMARK    3  A    between atoms: C_4  and  C_11
REMARK    4  A    between atoms: C_17  and  C_18
REMARK    5  A    between atoms: C_18  and  N_19
REMARK    6  A    between atoms: C_18  and  C_23
REMARK    7  A    between atoms: C_23  and  C_25
REMARK                            x       y       z     vdW  Elec       q    Type
REMARK                         _______ _______ _______ _____ _____    ______ ____
ROOT
ATOM      1  O   UNL     1      35.974 -22.754 -17.609  0.00  0.00    -0.476 OA
ENDROOT
BRANCH   1   3
ATOM      2  N   UNL     1      32.686 -21.984 -19.018  0.00  0.00    -0.239 NA
ATOM      3  C   UNL     1      35.011 -22.149 -18.374  0.00  0.00    +0.158 C 
ATOM      4  C   UNL     1      34.337 -20.530 -20.020  0.00  0.00    +0.039 C 
ATOM      5  C   UNL     1      35.335 -21.125 -19.257  0.00  0.00    +0.042 C 
ATOM      6  C   UNL     1      33.684 -22.538 -18.293  0.00  0.00    +0.136 C 
ATOM      7  C   UNL     1      33.040 -20.992 -19.865  0.00  0.00    +0.101 C 
BRANCH   4  11
ATOM      8  N   UNL     1      35.385 -18.457 -20.563  0.00  0.00    -0.264 NA
ATOM      9  N   UNL     1      35.316 -16.633 -23.790  0.00  0.00    -0.150 NA
ATOM     10  N   UNL     1      34.567 -17.172 -24.925  0.00  0.00    -0.147 NA
ATOM     11  C   UNL     1      34.651 -19.432 -20.975  0.00  0.00    +0.078 C 
ATOM     12  C   UNL     1      34.350 -18.590 -23.173  0.00  0.00    +0.040 C 
ATOM     13  C   UNL     1      35.174 -17.468 -22.795  0.00  0.00    +0.107 C 
ATOM     14  C   UNL     1      35.747 -17.335 -21.433  0.00  0.00    +0.173 C 
ATOM     15  C   UNL     1      34.057 -19.570 -22.334  0.00  0.00    +0.022 C 
ATOM     16  C   UNL     1      34.019 -18.291 -24.547  0.00  0.00    +0.123 C 
ENDBRANCH   4  11
ENDBRANCH   1   3
BRANCH   1  17
ATOM     17  C   UNL     1      35.968 -22.457 -16.219  0.00  0.00    +0.184 C 
BRANCH  17  18
ATOM     18  C   UNL     1      35.153 -23.505 -15.451  0.00  0.00    -0.017 C 
BRANCH  18  19
ATOM     19  N   UNL     1      36.079 -24.316 -14.656  0.00  0.00    +0.384 N 
ATOM     20  H   UNL     1      36.413 -25.099 -15.218  0.00  0.00    -0.089 HD
ATOM     21  H   UNL     1      35.598 -24.671 -13.830  0.00  0.00    -0.089 HD
ATOM     22  H   UNL     1      36.872 -23.742 -14.369  0.00  0.00    -0.089 HD
ENDBRANCH  18  19
BRANCH  18  23
ATOM     23  C   UNL     1      34.093 -22.880 -14.510  0.00  0.00    +0.010 C 
BRANCH  23  25
ATOM     24  N   UNL     1      31.733 -25.486 -13.241  0.00  0.00    -0.244 NA
ATOM     25  C   UNL     1      32.908 -23.724 -14.270  0.00  0.00    -0.004 C 
ATOM     26  C   UNL     1      31.661 -23.747 -14.754  0.00  0.00    +0.011 C 
ATOM     27  C   UNL     1      30.927 -24.828 -14.129  0.00  0.00    +0.080 C 
ATOM     28  C   UNL     1      32.863 -24.852 -13.326  0.00  0.00    +0.094 C 
ATOM     29  C   UNL     1      31.053 -22.884 -15.735  0.00  0.00    -0.020 C 
ATOM     30  C   UNL     1      29.647 -25.062 -14.446  0.00  0.00    +0.015 C 
ATOM     31  C   UNL     1      28.924 -24.208 -15.468  0.00  0.00    -0.020 C 
ATOM     32  C   UNL     1      29.769 -23.099 -16.071  0.00  0.00    +0.052 C 
ENDBRANCH  23  25
ENDBRANCH  18  23
ENDBRANCH  17  18
ENDBRANCH   1  17
TORSDOF 7
ENDMDL
MODEL 7
REMARK VINA RESULT:     -11.4      1.906     10.525
REMARK  Name = 46937052
REMARK  7 active torsions:
REMARK  status: ('A' for Active; 'I' for Inactive)
REMARK    1  A    between atoms: O_1  and  C_3
REMARK    2  A    between atoms: O_1  and  C_17
REMARK    3  A    between atoms: C_4  and  C_11
REMARK    4  A    between atoms: C_17  and  C_18
REMARK    5  A    between atoms: C_18  and  N_19
REMARK    6  A    between atoms: C_18  and  C_23
REMARK    7  A    between atoms: C_23  and  C_25
REMARK                            x       y       z     vdW  Elec       q    Type
REMARK                         _______ _______ _______ _____ _____    ______ ____
ROOT
ATOM      1  O   UNL     1      34.257 -13.809 -23.188  0.00  0.00    -0.476 OA
ENDROOT
BRANCH   1   3
ATOM      2  N   UNL     1      34.106 -16.980 -25.007  0.00  0.00    -0.239 NA
ATOM      3  C   UNL     1      34.375 -15.149 -23.451  0.00  0.00    +0.158 C 
ATOM      4  C   UNL     1      34.970 -17.383 -22.785  0.00  0.00    +0.039 C 
ATOM      5  C   UNL     1      34.860 -16.028 -22.490  0.00  0.00    +0.042 C 
ATOM      6  C   UNL     1      34.015 -15.671 -24.683  0.00  0.00    +0.136 C 
ATOM      7  C   UNL     1      34.582 -17.804 -24.047  0.00  0.00    +0.101 C 
BRANCH   4  11
ATOM      8  N   UNL     1      36.731 -18.293 -21.460  0.00  0.00    -0.264 NA
ATOM      9  N   UNL     1      36.559 -21.091 -19.034  0.00  0.00    -0.150 NA
ATOM     10  N   UNL     1      35.295 -21.792 -18.806  0.00  0.00    -0.147 NA
ATOM     11  C   UNL     1      35.484 -18.349 -21.778  0.00  0.00    +0.078 C 
ATOM     12  C   UNL     1      34.956 -20.165 -20.344  0.00  0.00    +0.040 C 
ATOM     13  C   UNL     1      36.336 -20.161 -19.924  0.00  0.00    +0.107 C 
ATOM     14  C   UNL     1      37.324 -19.203 -20.477  0.00  0.00    +0.173 C 
ATOM     15  C   UNL     1      34.485 -19.316 -21.242  0.00  0.00    +0.022 C 
ATOM     16  C   UNL     1      34.393 -21.246 -19.569  0.00  0.00    +0.123 C 
ENDBRANCH   4  11
ENDBRANCH   1   3
BRANCH   1  17
ATOM     17  C   UNL     1      32.960 -13.334 -22.851  0.00  0.00    +0.184 C 
BRANCH  17  18
ATOM     18  C   UNL     1      33.007 -11.837 -22.522  0.00  0.00    -0.017 C 
BRANCH  18  19
ATOM     19  N   UNL     1      33.281 -11.102 -23.759  0.00  0.00    +0.384 N 
ATOM     20  H   UNL     1      33.602 -11.753 -24.477  0.00  0.00    -0.089 HD
ATOM     21  H   UNL     1      34.003 -10.403 -23.587  0.00  0.00    -0.089 HD
ATOM     22  H   UNL     1      32.428 -10.641 -24.076  0.00  0.00    -0.089 HD
ENDBRANCH  18  19
BRANCH  18  23
ATOM     23  C   UNL     1      31.689 -11.310 -21.901  0.00  0.00    +0.010 C 
BRANCH  23  25
ATOM     24  N   UNL     1      32.049  -9.222 -18.822  0.00  0.00    -0.244 NA
ATOM     25  C   UNL     1      31.856 -10.187 -20.962  0.00  0.00    -0.004 C 
ATOM     26  C   UNL     1      32.008  -8.864 -21.100  0.00  0.00    +0.011 C 
ATOM     27  C   UNL     1      32.128  -8.258 -19.790  0.00  0.00    +0.080 C 
ATOM     28  C   UNL     1      31.894 -10.321 -19.497  0.00  0.00    +0.094 C 
ATOM     29  C   UNL     1      32.059  -8.080 -22.307  0.00  0.00    -0.020 C 
ATOM     30  C   UNL     1      32.290  -6.936 -19.657  0.00  0.00    +0.015 C 
ATOM     31  C   UNL     1      32.354  -6.029 -20.870  0.00  0.00    -0.020 C 
ATOM     32  C   UNL     1      32.221  -6.748 -22.200  0.00  0.00    +0.052 C 
ENDBRANCH  23  25
ENDBRANCH  18  23
ENDBRANCH  17  18
ENDBRANCH   1  17
TORSDOF 7
ENDMDL
MODEL 8
REMARK VINA RESULT:     -11.1      4.531      7.457
REMARK  Name = 46937052
REMARK  7 active torsions:
REMARK  status: ('A' for Active; 'I' for Inactive)
REMARK    1  A    between atoms: O_1  and  C_3
REMARK    2  A    between atoms: O_1  and  C_17
REMARK    3  A    between atoms: C_4  and  C_11
REMARK    4  A    between atoms: C_17  and  C_18
REMARK    5  A    between atoms: C_18  and  N_19
REMARK    6  A    between atoms: C_18  and  C_23
REMARK    7  A    between atoms: C_23  and  C_25
REMARK                            x       y       z     vdW  Elec       q    Type
REMARK                         _______ _______ _______ _____ _____    ______ ____
ROOT
ATOM      1  O   UNL     1      32.874 -22.517 -18.170  0.00  0.00    -0.476 OA
ENDROOT
BRANCH   1   3
ATOM      2  N   UNL     1      36.428 -21.787 -18.642  0.00  0.00    -0.239 NA
ATOM      3  C   UNL     1      34.014 -21.924 -18.646  0.00  0.00    +0.158 C 
ATOM      4  C   UNL     1      35.125 -20.313 -20.046  0.00  0.00    +0.039 C 
ATOM      5  C   UNL     1      33.951 -20.895 -19.580  0.00  0.00    +0.042 C 
ATOM      6  C   UNL     1      35.266 -22.330 -18.213  0.00  0.00    +0.136 C 
ATOM      7  C   UNL     1      36.327 -20.791 -19.549  0.00  0.00    +0.101 C 
BRANCH   4  11
ATOM      8  N   UNL     1      35.599 -18.073 -20.715  0.00  0.00    -0.264 NA
ATOM      9  N   UNL     1      34.845 -16.445 -23.959  0.00  0.00    -0.150 NA
ATOM     10  N   UNL     1      34.162 -17.190 -25.016  0.00  0.00    -0.147 NA
ATOM     11  C   UNL     1      35.091 -19.210 -21.044  0.00  0.00    +0.078 C 
ATOM     12  C   UNL     1      34.428 -18.550 -23.225  0.00  0.00    +0.040 C 
ATOM     13  C   UNL     1      34.984 -17.250 -22.940  0.00  0.00    +0.107 C 
ATOM     14  C   UNL     1      35.612 -16.933 -21.633  0.00  0.00    +0.173 C 
ATOM     15  C   UNL     1      34.445 -19.538 -22.346  0.00  0.00    +0.022 C 
ATOM     16  C   UNL     1      33.930 -18.392 -24.572  0.00  0.00    +0.123 C 
ENDBRANCH   4  11
ENDBRANCH   1   3
BRANCH   1  17
ATOM     17  C   UNL     1      33.045 -23.613 -17.281  0.00  0.00    +0.184 C 
BRANCH  17  18
ATOM     18  C   UNL     1      32.720 -23.192 -15.843  0.00  0.00    -0.017 C 
BRANCH  18  19
ATOM     19  N   UNL     1      31.273 -23.313 -15.644  0.00  0.00    +0.384 N 
ATOM     20  H   UNL     1      30.973 -22.660 -14.921  0.00  0.00    -0.089 HD
ATOM     21  H   UNL     1      31.047 -24.266 -15.357  0.00  0.00    -0.089 HD
ATOM     22  H   UNL     1      30.791 -23.098 -16.518  0.00  0.00    -0.089 HD
ENDBRANCH  18  19
BRANCH  18  23
ATOM     23  C   UNL     1      33.450 -24.049 -14.779  0.00  0.00    +0.010 C 
BRANCH  23  25
ATOM     24  N   UNL     1      36.873 -22.551 -14.675  0.00  0.00    -0.244 NA
ATOM     25  C   UNL     1      34.909 -23.850 -14.723  0.00  0.00    -0.004 C 
ATOM     26  C   UNL     1      35.965 -24.671 -14.659  0.00  0.00    +0.011 C 
ATOM     27  C   UNL     1      37.180 -23.884 -14.628  0.00  0.00    +0.080 C 
ATOM     28  C   UNL     1      35.575 -22.538 -14.729  0.00  0.00    +0.094 C 
ATOM     29  C   UNL     1      35.991 -26.111 -14.620  0.00  0.00    -0.020 C 
ATOM     30  C   UNL     1      38.379 -24.474 -14.563  0.00  0.00    +0.015 C 
ATOM     31  C   UNL     1      38.508 -25.984 -14.519  0.00  0.00    -0.020 C 
ATOM     32  C   UNL     1      37.185 -26.728 -14.554  0.00  0.00    +0.052 C 
ENDBRANCH  23  25
ENDBRANCH  18  23
ENDBRANCH  17  18
ENDBRANCH   1  17
TORSDOF 7
ENDMDL
MODEL 9
REMARK VINA RESULT:     -11.1      3.779     11.328
REMARK  Name = 46937052
REMARK  7 active torsions:
REMARK  status: ('A' for Active; 'I' for Inactive)
REMARK    1  A    between atoms: O_1  and  C_3
REMARK    2  A    between atoms: O_1  and  C_17
REMARK    3  A    between atoms: C_4  and  C_11
REMARK    4  A    between atoms: C_17  and  C_18
REMARK    5  A    between atoms: C_18  and  N_19
REMARK    6  A    between atoms: C_18  and  C_23
REMARK    7  A    between atoms: C_23  and  C_25
REMARK                            x       y       z     vdW  Elec       q    Type
REMARK                         _______ _______ _______ _____ _____    ______ ____
ROOT
ATOM      1  O   UNL     1      31.935 -10.881 -21.030  0.00  0.00    -0.476 OA
ENDROOT
BRANCH   1   3
ATOM      2  N   UNL     1      33.504 -11.039 -24.331  0.00  0.00    -0.239 NA
ATOM      3  C   UNL     1      32.569 -11.396 -22.131  0.00  0.00    +0.158 C 
ATOM      4  C   UNL     1      33.563 -13.235 -23.322  0.00  0.00    +0.039 C 
ATOM      5  C   UNL     1      32.920 -12.740 -22.193  0.00  0.00    +0.042 C 
ATOM      6  C   UNL     1      32.880 -10.595 -23.217  0.00  0.00    +0.136 C 
ATOM      7  C   UNL     1      33.830 -12.350 -24.355  0.00  0.00    +0.101 C 
BRANCH   4  11
ATOM      8  N   UNL     1      33.635 -15.314 -24.488  0.00  0.00    -0.264 NA
ATOM      9  N   UNL     1      35.142 -18.512 -23.373  0.00  0.00    -0.150 NA
ATOM     10  N   UNL     1      35.784 -18.607 -22.062  0.00  0.00    -0.147 NA
ATOM     11  C   UNL     1      33.951 -14.667 -23.419  0.00  0.00    +0.078 C 
ATOM     12  C   UNL     1      35.011 -16.497 -22.341  0.00  0.00    +0.040 C 
ATOM     13  C   UNL     1      34.705 -17.289 -23.507  0.00  0.00    +0.107 C 
ATOM     14  C   UNL     1      33.978 -16.726 -24.672  0.00  0.00    +0.173 C 
ATOM     15  C   UNL     1      34.668 -15.224 -22.237  0.00  0.00    +0.022 C 
ATOM     16  C   UNL     1      35.694 -17.441 -21.488  0.00  0.00    +0.123 C 
ENDBRANCH   4  11
ENDBRANCH   1   3
BRANCH   1  17
ATOM     17  C   UNL     1      31.565  -9.510 -21.087  0.00  0.00    +0.184 C 
BRANCH  17  18
ATOM     18  C   UNL     1      31.828  -8.828 -19.739  0.00  0.00    -0.017 C 
BRANCH  18  19
ATOM     19  N   UNL     1      32.298  -9.844 -18.793  0.00  0.00    +0.384 N 
ATOM     20  H   UNL     1      33.094 -10.339 -19.195  0.00  0.00    -0.089 HD
ATOM     21  H   UNL     1      31.546 -10.507 -18.604  0.00  0.00    -0.089 HD
ATOM     22  H   UNL     1      32.582  -9.393 -17.923  0.00  0.00    -0.089 HD
ENDBRANCH  18  19
BRANCH  18  23
ATOM     23  C   UNL     1      32.878  -7.693 -19.826  0.00  0.00    +0.010 C 
BRANCH  23  25
ATOM     24  N   UNL     1      31.443  -4.928 -21.892  0.00  0.00    -0.244 NA
ATOM     25  C   UNL     1      32.625  -6.699 -20.885  0.00  0.00    -0.004 C 
ATOM     26  C   UNL     1      33.227  -6.384 -22.037  0.00  0.00    +0.011 C 
ATOM     27  C   UNL     1      32.509  -5.295 -22.668  0.00  0.00    +0.080 C 
ATOM     28  C   UNL     1      31.514  -5.734 -20.876  0.00  0.00    +0.094 C 
ATOM     29  C   UNL     1      34.399  -6.969 -22.638  0.00  0.00    -0.020 C 
ATOM     30  C   UNL     1      32.915  -4.793 -23.840  0.00  0.00    +0.015 C 
ATOM     31  C   UNL     1      34.137  -5.345 -24.548  0.00  0.00    -0.020 C 
ATOM     32  C   UNL     1      34.827  -6.482 -23.816  0.00  0.00    +0.052 C 
ENDBRANCH  23  25
ENDBRANCH  18  23
ENDBRANCH  17  18
ENDBRANCH   1  17
TORSDOF 7
ENDMDL
