MODEL 1
REMARK VINA RESULT:     -11.5      0.000      0.000
REMARK  Name = 24812758
REMARK  9 active torsions:
REMARK  status: ('A' for Active; 'I' for Inactive)
REMARK    1  A    between atoms: C_1  and  C_11
REMARK    2  A    between atoms: C_4  and  C_23
REMARK    3  A    between atoms: C_9  and  O_14
REMARK    4  A    between atoms: C_10  and  O_16
REMARK    5  A    between atoms: C_12  and  O_18
REMARK    6  A    between atoms: C_13  and  C_20
REMARK    7  A    between atoms: C_20  and  O_21
REMARK    8  A    between atoms: C_23  and  C_25
REMARK    9  A    between atoms: C_27  and  C_30
REMARK                            x       y       z     vdW  Elec       q    Type
REMARK                         _______ _______ _______ _____ _____    ______ ____
ROOT
ATOM      1  C   UNL     1      34.866 -23.773 -14.726  0.00  0.00    +0.007 C 
ATOM      2  C   UNL     1      34.610 -23.651 -16.092  0.00  0.00    -0.006 C 
ATOM      3  C   UNL     1      33.838 -23.580 -13.803  0.00  0.00    -0.002 C 
ATOM      4  C   UNL     1      33.327 -23.336 -16.536  0.00  0.00    -0.021 C 
ATOM      5  C   UNL     1      32.298 -23.142 -15.613  0.00  0.00    -0.025 C 
ATOM      6  C   UNL     1      32.554 -23.264 -14.248  0.00  0.00    -0.005 C 
ATOM      7  C   UNL     1      30.915 -22.805 -16.064  0.00  0.00    +0.031 C 
ENDROOT
BRANCH   1  11
ATOM      8  O   UNL     1      36.622 -25.378 -14.816  0.00  0.00    -0.347 OA
ATOM      9  C   UNL     1      36.345 -24.167 -12.711  0.00  0.00    +0.171 C 
ATOM     10  C   UNL     1      37.716 -24.670 -12.251  0.00  0.00    +0.169 C 
ATOM     11  C   UNL     1      36.262 -24.116 -14.244  0.00  0.00    +0.167 C 
ATOM     12  C   UNL     1      38.118 -25.944 -12.993  0.00  0.00    +0.169 C 
ATOM     13  C   UNL     1      37.961 -25.764 -14.505  0.00  0.00    +0.174 C 
BRANCH   9  14
ATOM     14  O   UNL     1      36.137 -22.852 -12.197  0.00  0.00    -0.379 OA
ATOM     15  H   UNL     1      35.510 -22.378 -12.766  0.00  0.00    +0.211 HD
ENDBRANCH   9  14
BRANCH  10  16
ATOM     16  O   UNL     1      37.668 -24.970 -10.855  0.00  0.00    -0.379 OA
ATOM     17  H   UNL     1      38.109 -24.264 -10.357  0.00  0.00    +0.211 HD
ENDBRANCH  10  16
BRANCH  12  18
ATOM     18  O   UNL     1      39.477 -26.253 -12.696  0.00  0.00    -0.379 OA
ATOM     19  H   UNL     1      39.883 -26.694 -13.460  0.00  0.00    +0.211 HD
ENDBRANCH  12  18
BRANCH  13  20
ATOM     20  C   UNL     1      38.252 -27.056 -15.261  0.00  0.00    +0.169 C 
BRANCH  20  21
ATOM     21  O   UNL     1      39.620 -27.066 -15.629  0.00  0.00    -0.379 OA
ATOM     22  H   UNL     1      39.856 -26.209 -16.018  0.00  0.00    +0.211 HD
ENDBRANCH  20  21
ENDBRANCH  13  20
ENDBRANCH   1  11
BRANCH   4  23
ATOM     23  C   UNL     1      33.076 -23.211 -18.002  0.00  0.00    +0.059 C 
BRANCH  23  25
ATOM     24  S   UNL     1      33.332 -21.131 -19.844  0.00  0.00    -0.091 S 
ATOM     25  C   UNL     1      33.988 -22.221 -18.697  0.00  0.00    +0.012 C 
ATOM     26  C   UNL     1      35.346 -22.049 -18.539  0.00  0.00    +0.003 C 
ATOM     27  C   UNL     1      34.865 -20.427 -20.132  0.00  0.00    +0.029 C 
ATOM     28  C   UNL     1      35.854 -21.009 -19.370  0.00  0.00    +0.007 C 
BRANCH  27  30
ATOM     29  F   UNL     1      35.272 -16.281 -23.834  0.00  0.00    -0.204 F 
ATOM     30  C   UNL     1      34.971 -19.352 -21.091  0.00  0.00    +0.006 C 
ATOM     31  C   UNL     1      34.525 -19.539 -22.400  0.00  0.00    +0.003 C 
ATOM     32  C   UNL     1      35.519 -18.127 -20.710  0.00  0.00    +0.003 C 
ATOM     33  C   UNL     1      34.626 -18.502 -23.326  0.00  0.00    +0.030 C 
ATOM     34  C   UNL     1      35.620 -17.090 -21.636  0.00  0.00    +0.030 C 
ATOM     35  C   UNL     1      35.174 -17.277 -22.945  0.00  0.00    +0.140 C 
ENDBRANCH  27  30
ENDBRANCH  23  25
ENDBRANCH   4  23
TORSDOF 9
ENDMDL
MODEL 2
REMARK VINA RESULT:     -11.4      1.356      2.579
REMARK  Name = 24812758
REMARK  9 active torsions:
REMARK  status: ('A' for Active; 'I' for Inactive)
REMARK    1  A    between atoms: C_1  and  C_11
REMARK    2  A    between atoms: C_4  and  C_23
REMARK    3  A    between atoms: C_9  and  O_14
REMARK    4  A    between atoms: C_10  and  O_16
REMARK    5  A    between atoms: C_12  and  O_18
REMARK    6  A    between atoms: C_13  and  C_20
REMARK    7  A    between atoms: C_20  and  O_21
REMARK    8  A    between atoms: C_23  and  C_25
REMARK    9  A    between atoms: C_27  and  C_30
REMARK                            x       y       z     vdW  Elec       q    Type
REMARK                         _______ _______ _______ _____ _____    ______ ____
ROOT
ATOM      1  C   UNL     1      33.671 -24.139 -13.706  0.00  0.00    +0.007 C 
ATOM      2  C   UNL     1      33.446 -23.895 -15.061  0.00  0.00    -0.006 C 
ATOM      3  C   UNL     1      32.643 -23.951 -12.783  0.00  0.00    -0.002 C 
ATOM      4  C   UNL     1      32.192 -23.462 -15.493  0.00  0.00    -0.021 C 
ATOM      5  C   UNL     1      31.163 -23.274 -14.569  0.00  0.00    -0.025 C 
ATOM      6  C   UNL     1      31.389 -23.518 -13.215  0.00  0.00    -0.005 C 
ATOM      7  C   UNL     1      29.812 -22.812 -15.007  0.00  0.00    +0.031 C 
ENDROOT
BRANCH   1  11
ATOM      8  O   UNL     1      35.594 -23.574 -12.423  0.00  0.00    -0.347 OA
ATOM      9  C   UNL     1      35.964 -24.942 -14.414  0.00  0.00    +0.171 C 
ATOM     10  C   UNL     1      37.379 -25.258 -13.923  0.00  0.00    +0.169 C 
ATOM     11  C   UNL     1      35.034 -24.609 -13.238  0.00  0.00    +0.167 C 
ATOM     12  C   UNL     1      37.879 -24.196 -12.945  0.00  0.00    +0.169 C 
ATOM     13  C   UNL     1      36.847 -23.943 -11.844  0.00  0.00    +0.174 C 
BRANCH   9  14
ATOM     14  O   UNL     1      35.445 -26.082 -15.099  0.00  0.00    -0.379 OA
ATOM     15  H   UNL     1      34.691 -26.441 -14.605  0.00  0.00    +0.211 HD
ENDBRANCH   9  14
BRANCH  10  16
ATOM     16  O   UNL     1      38.273 -25.288 -15.037  0.00  0.00    -0.379 OA
ATOM     17  H   UNL     1      38.739 -24.440 -15.101  0.00  0.00    +0.211 HD
ENDBRANCH  10  16
BRANCH  12  18
ATOM     18  O   UNL     1      39.098 -24.637 -12.353  0.00  0.00    -0.379 OA
ATOM     19  H   UNL     1      38.914 -25.363 -11.736  0.00  0.00    +0.211 HD
ENDBRANCH  12  18
BRANCH  13  20
ATOM     20  C   UNL     1      37.274 -22.809 -10.919  0.00  0.00    +0.169 C 
BRANCH  20  21
ATOM     21  O   UNL     1      38.256 -22.032 -11.581  0.00  0.00    -0.379 OA
ATOM     22  H   UNL     1      37.914 -21.136 -11.729  0.00  0.00    +0.211 HD
ENDBRANCH  20  21
ENDBRANCH  13  20
ENDBRANCH   1  11
BRANCH   4  23
ATOM     23  C   UNL     1      31.974 -23.208 -16.948  0.00  0.00    +0.059 C 
BRANCH  23  25
ATOM     24  S   UNL     1      32.903 -21.471 -18.923  0.00  0.00    -0.091 S 
ATOM     25  C   UNL     1      33.164 -22.582 -17.645  0.00  0.00    +0.012 C 
ATOM     26  C   UNL     1      34.504 -22.776 -17.394  0.00  0.00    +0.003 C 
ATOM     27  C   UNL     1      34.586 -21.248 -19.144  0.00  0.00    +0.029 C 
ATOM     28  C   UNL     1      35.328 -22.003 -18.263  0.00  0.00    +0.007 C 
BRANCH  27  30
ATOM     29  F   UNL     1      36.341 -17.759 -23.120  0.00  0.00    -0.204 F 
ATOM     30  C   UNL     1      35.041 -20.344 -20.174  0.00  0.00    +0.006 C 
ATOM     31  C   UNL     1      34.191 -19.999 -21.225  0.00  0.00    +0.003 C 
ATOM     32  C   UNL     1      36.330 -19.815 -20.119  0.00  0.00    +0.003 C 
ATOM     33  C   UNL     1      34.629 -19.127 -22.220  0.00  0.00    +0.030 C 
ATOM     34  C   UNL     1      36.769 -18.942 -21.113  0.00  0.00    +0.030 C 
ATOM     35  C   UNL     1      35.919 -18.597 -22.165  0.00  0.00    +0.140 C 
ENDBRANCH  27  30
ENDBRANCH  23  25
ENDBRANCH   4  23
TORSDOF 9
ENDMDL
MODEL 3
REMARK VINA RESULT:     -10.7     11.787     16.841
REMARK  Name = 24812758
REMARK  9 active torsions:
REMARK  status: ('A' for Active; 'I' for Inactive)
REMARK    1  A    between atoms: C_1  and  C_11
REMARK    2  A    between atoms: C_4  and  C_23
REMARK    3  A    between atoms: C_9  and  O_14
REMARK    4  A    between atoms: C_10  and  O_16
REMARK    5  A    between atoms: C_12  and  O_18
REMARK    6  A    between atoms: C_13  and  C_20
REMARK    7  A    between atoms: C_20  and  O_21
REMARK    8  A    between atoms: C_23  and  C_25
REMARK    9  A    between atoms: C_27  and  C_30
REMARK                            x       y       z     vdW  Elec       q    Type
REMARK                         _______ _______ _______ _____ _____    ______ ____
ROOT
ATOM      1  C   UNL     1      32.830  -7.014 -21.541  0.00  0.00    +0.007 C 
ATOM      2  C   UNL     1      32.253  -8.166 -22.076  0.00  0.00    -0.006 C 
ATOM      3  C   UNL     1      32.997  -6.894 -20.161  0.00  0.00    -0.002 C 
ATOM      4  C   UNL     1      31.842  -9.197 -21.233  0.00  0.00    -0.021 C 
ATOM      5  C   UNL     1      32.008  -9.078 -19.853  0.00  0.00    -0.025 C 
ATOM      6  C   UNL     1      32.586  -7.926 -19.318  0.00  0.00    -0.005 C 
ATOM      7  C   UNL     1      31.577 -10.169 -18.929  0.00  0.00    +0.031 C 
ENDROOT
BRANCH   1  11
ATOM      8  O   UNL     1      32.103  -5.222 -22.928  0.00  0.00    -0.347 OA
ATOM      9  C   UNL     1      34.116  -6.413 -23.635  0.00  0.00    +0.171 C 
ATOM     10  C   UNL     1      34.419  -5.290 -24.632  0.00  0.00    +0.169 C 
ATOM     11  C   UNL     1      33.277  -5.893 -22.458  0.00  0.00    +0.167 C 
ATOM     12  C   UNL     1      33.155  -4.512 -24.994  0.00  0.00    +0.169 C 
ATOM     13  C   UNL     1      32.403  -4.081 -23.733  0.00  0.00    +0.174 C 
BRANCH   9  14
ATOM     14  O   UNL     1      35.347  -6.927 -23.127  0.00  0.00    -0.379 OA
ATOM     15  H   UNL     1      36.084  -6.584 -23.656  0.00  0.00    +0.211 HD
ENDBRANCH   9  14
BRANCH  10  16
ATOM     16  O   UNL     1      34.951  -5.852 -25.833  0.00  0.00    -0.379 OA
ATOM     17  H   UNL     1      35.737  -6.380 -25.623  0.00  0.00    +0.211 HD
ENDBRANCH  10  16
BRANCH  12  18
ATOM     18  O   UNL     1      33.513  -3.355 -25.745  0.00  0.00    -0.379 OA
ATOM     19  H   UNL     1      33.735  -2.632 -25.138  0.00  0.00    +0.211 HD
ENDBRANCH  12  18
BRANCH  13  20
ATOM     20  C   UNL     1      31.081  -3.398 -24.069  0.00  0.00    +0.169 C 
BRANCH  20  21
ATOM     21  O   UNL     1      30.557  -2.823 -22.886  0.00  0.00    -0.379 OA
ATOM     22  H   UNL     1      30.738  -3.409 -22.134  0.00  0.00    +0.211 HD
ENDBRANCH  20  21
ENDBRANCH  13  20
ENDBRANCH   1  11
BRANCH   4  23
ATOM     23  C   UNL     1      31.227 -10.421 -21.829  0.00  0.00    +0.059 C 
BRANCH  23  25
ATOM     24  S   UNL     1      32.307 -12.990 -21.922  0.00  0.00    -0.091 S 
ATOM     25  C   UNL     1      32.230 -11.366 -22.458  0.00  0.00    +0.012 C 
ATOM     26  C   UNL     1      33.143 -11.107 -23.456  0.00  0.00    +0.003 C 
ATOM     27  C   UNL     1      33.565 -13.351 -23.025  0.00  0.00    +0.029 C 
ATOM     28  C   UNL     1      33.917 -12.257 -23.785  0.00  0.00    +0.007 C 
BRANCH  27  30
ATOM     29  F   UNL     1      35.660 -18.515 -23.129  0.00  0.00    -0.204 F 
ATOM     30  C   UNL     1      34.108 -14.689 -23.053  0.00  0.00    +0.006 C 
ATOM     31  C   UNL     1      34.670 -15.238 -21.899  0.00  0.00    +0.003 C 
ATOM     32  C   UNL     1      34.071 -15.434 -24.232  0.00  0.00    +0.003 C 
ATOM     33  C   UNL     1      35.194 -16.529 -21.925  0.00  0.00    +0.030 C 
ATOM     34  C   UNL     1      34.595 -16.726 -24.257  0.00  0.00    +0.030 C 
ATOM     35  C   UNL     1      35.157 -17.274 -23.104  0.00  0.00    +0.140 C 
ENDBRANCH  27  30
ENDBRANCH  23  25
ENDBRANCH   4  23
TORSDOF 9
ENDMDL
MODEL 4
REMARK VINA RESULT:     -10.6      3.085      5.247
REMARK  Name = 24812758
REMARK  9 active torsions:
REMARK  status: ('A' for Active; 'I' for Inactive)
REMARK    1  A    between atoms: C_1  and  C_11
REMARK    2  A    between atoms: C_4  and  C_23
REMARK    3  A    between atoms: C_9  and  O_14
REMARK    4  A    between atoms: C_10  and  O_16
REMARK    5  A    between atoms: C_12  and  O_18
REMARK    6  A    between atoms: C_13  and  C_20
REMARK    7  A    between atoms: C_20  and  O_21
REMARK    8  A    between atoms: C_23  and  C_25
REMARK    9  A    between atoms: C_27  and  C_30
REMARK                            x       y       z     vdW  Elec       q    Type
REMARK                         _______ _______ _______ _____ _____    ______ ____
ROOT
ATOM      1  C   UNL     1      33.811 -23.340 -15.506  0.00  0.00    +0.007 C 
ATOM      2  C   UNL     1      34.361 -23.181 -16.778  0.00  0.00    -0.006 C 
ATOM      3  C   UNL     1      34.495 -22.866 -14.386  0.00  0.00    -0.002 C 
ATOM      4  C   UNL     1      35.595 -22.550 -16.931  0.00  0.00    -0.021 C 
ATOM      5  C   UNL     1      36.279 -22.076 -15.811  0.00  0.00    -0.025 C 
ATOM      6  C   UNL     1      35.729 -22.235 -14.540  0.00  0.00    -0.005 C 
ATOM      7  C   UNL     1      37.602 -21.397 -15.949  0.00  0.00    +0.031 C 
ENDROOT
BRANCH   1  11
ATOM      8  O   UNL     1      31.461 -23.130 -15.818  0.00  0.00    -0.347 OA
ATOM      9  C   UNL     1      32.202 -24.420 -13.879  0.00  0.00    +0.171 C 
ATOM     10  C   UNL     1      30.781 -24.963 -13.709  0.00  0.00    +0.169 C 
ATOM     11  C   UNL     1      32.470 -24.026 -15.340  0.00  0.00    +0.167 C 
ATOM     12  C   UNL     1      29.751 -24.041 -14.360  0.00  0.00    +0.169 C 
ATOM     13  C   UNL     1      30.154 -23.706 -15.797  0.00  0.00    +0.174 C 
BRANCH   9  14
ATOM     14  O   UNL     1      33.135 -25.433 -13.501  0.00  0.00    -0.379 OA
ATOM     15  H   UNL     1      33.822 -25.509 -14.181  0.00  0.00    +0.211 HD
ENDBRANCH   9  14
BRANCH  10  16
ATOM     16  O   UNL     1      30.472 -25.057 -12.317  0.00  0.00    -0.379 OA
ATOM     17  H   UNL     1      31.254 -24.819 -11.795  0.00  0.00    +0.211 HD
ENDBRANCH  10  16
BRANCH  12  18
ATOM     18  O   UNL     1      28.480 -24.685 -14.366  0.00  0.00    -0.379 OA
ATOM     19  H   UNL     1      28.598 -25.635 -14.203  0.00  0.00    +0.211 HD
ENDBRANCH  12  18
BRANCH  13  20
ATOM     20  C   UNL     1      29.200 -22.700 -16.432  0.00  0.00    +0.169 C 
BRANCH  20  21
ATOM     21  O   UNL     1      28.224 -23.410 -17.173  0.00  0.00    -0.379 OA
ATOM     22  H   UNL     1      28.099 -24.290 -16.785  0.00  0.00    +0.211 HD
ENDBRANCH  20  21
ENDBRANCH  13  20
ENDBRANCH   1  11
BRANCH   4  23
ATOM     23  C   UNL     1      36.164 -22.392 -18.303  0.00  0.00    +0.059 C 
BRANCH  23  25
ATOM     24  S   UNL     1      36.161 -20.465 -20.319  0.00  0.00    -0.091 S 
ATOM     25  C   UNL     1      35.354 -21.479 -19.199  0.00  0.00    +0.012 C 
ATOM     26  C   UNL     1      33.986 -21.330 -19.261  0.00  0.00    +0.003 C 
ATOM     27  C   UNL     1      34.680 -19.823 -20.888  0.00  0.00    +0.029 C 
ATOM     28  C   UNL     1      33.595 -20.370 -20.239  0.00  0.00    +0.007 C 
BRANCH  27  30
ATOM     29  F   UNL     1      34.783 -15.973 -24.916  0.00  0.00    -0.204 F 
ATOM     30  C   UNL     1      34.706 -18.825 -21.932  0.00  0.00    +0.006 C 
ATOM     31  C   UNL     1      35.211 -17.552 -21.667  0.00  0.00    +0.003 C 
ATOM     32  C   UNL     1      34.227 -19.134 -23.205  0.00  0.00    +0.003 C 
ATOM     33  C   UNL     1      35.237 -16.588 -22.675  0.00  0.00    +0.030 C 
ATOM     34  C   UNL     1      34.253 -18.171 -24.213  0.00  0.00    +0.030 C 
ATOM     35  C   UNL     1      34.758 -16.898 -23.948  0.00  0.00    +0.140 C 
ENDBRANCH  27  30
ENDBRANCH  23  25
ENDBRANCH   4  23
TORSDOF 9
ENDMDL
MODEL 5
REMARK VINA RESULT:     -10.3      6.268     10.589
REMARK  Name = 24812758
REMARK  9 active torsions:
REMARK  status: ('A' for Active; 'I' for Inactive)
REMARK    1  A    between atoms: C_1  and  C_11
REMARK    2  A    between atoms: C_4  and  C_23
REMARK    3  A    between atoms: C_9  and  O_14
REMARK    4  A    between atoms: C_10  and  O_16
REMARK    5  A    between atoms: C_12  and  O_18
REMARK    6  A    between atoms: C_13  and  C_20
REMARK    7  A    between atoms: C_20  and  O_21
REMARK    8  A    between atoms: C_23  and  C_25
REMARK    9  A    between atoms: C_27  and  C_30
REMARK                            x       y       z     vdW  Elec       q    Type
REMARK                         _______ _______ _______ _____ _____    ______ ____
ROOT
ATOM      1  C   UNL     1      35.981 -19.103 -21.395  0.00  0.00    +0.007 C 
ATOM      2  C   UNL     1      35.360 -20.332 -21.175  0.00  0.00    -0.006 C 
ATOM      3  C   UNL     1      36.931 -18.628 -20.490  0.00  0.00    -0.002 C 
ATOM      4  C   UNL     1      35.688 -21.088 -20.049  0.00  0.00    -0.021 C 
ATOM      5  C   UNL     1      36.638 -20.613 -19.144  0.00  0.00    -0.025 C 
ATOM      6  C   UNL     1      37.259 -19.384 -19.365  0.00  0.00    -0.005 C 
ATOM      7  C   UNL     1      37.007 -21.404 -17.932  0.00  0.00    +0.031 C 
ENDROOT
BRANCH   1  11
ATOM      8  O   UNL     1      35.282 -16.965 -22.174  0.00  0.00    -0.347 OA
ATOM      9  C   UNL     1      34.467 -18.907 -23.413  0.00  0.00    +0.171 C 
ATOM     10  C   UNL     1      34.018 -17.983 -24.549  0.00  0.00    +0.169 C 
ATOM     11  C   UNL     1      35.624 -18.282 -22.619  0.00  0.00    +0.167 C 
ATOM     12  C   UNL     1      33.802 -16.555 -24.050  0.00  0.00    +0.169 C 
ATOM     13  C   UNL     1      35.014 -16.069 -23.253  0.00  0.00    +0.174 C 
BRANCH   9  14
ATOM     14  O   UNL     1      34.912 -20.144 -23.970  0.00  0.00    -0.379 OA
ATOM     15  H   UNL     1      35.850 -20.073 -24.207  0.00  0.00    +0.211 HD
ENDBRANCH   9  14
BRANCH  10  16
ATOM     16  O   UNL     1      32.781 -18.455 -25.084  0.00  0.00    -0.379 OA
ATOM     17  H   UNL     1      32.123 -18.517 -24.374  0.00  0.00    +0.211 HD
ENDBRANCH  10  16
BRANCH  12  18
ATOM     18  O   UNL     1      33.597 -15.692 -25.166  0.00  0.00    -0.379 OA
ATOM     19  H   UNL     1      34.278 -15.865 -25.837  0.00  0.00    +0.211 HD
ENDBRANCH  12  18
BRANCH  13  20
ATOM     20  C   UNL     1      34.778 -14.687 -22.652  0.00  0.00    +0.169 C 
BRANCH  20  21
ATOM     21  O   UNL     1      33.414 -14.345 -22.828  0.00  0.00    -0.379 OA
ATOM     22  H   UNL     1      33.174 -13.642 -22.204  0.00  0.00    +0.211 HD
ENDBRANCH  20  21
ENDBRANCH  13  20
ENDBRANCH   1  11
BRANCH   4  23
ATOM     23  C   UNL     1      35.012 -22.401 -19.834  0.00  0.00    +0.059 C 
BRANCH  23  25
ATOM     24  S   UNL     1      33.916 -23.329 -17.443  0.00  0.00    -0.091 S 
ATOM     25  C   UNL     1      33.867 -22.345 -18.843  0.00  0.00    +0.012 C 
ATOM     26  C   UNL     1      32.725 -21.576 -18.895  0.00  0.00    +0.003 C 
ATOM     27  C   UNL     1      32.407 -22.729 -16.903  0.00  0.00    +0.029 C 
ATOM     28  C   UNL     1      31.879 -21.799 -17.771  0.00  0.00    +0.007 C 
BRANCH  27  30
ATOM     29  F   UNL     1      30.302 -24.648 -12.112  0.00  0.00    -0.204 F 
ATOM     30  C   UNL     1      31.861 -23.226 -15.661  0.00  0.00    +0.006 C 
ATOM     31  C   UNL     1      32.688 -23.379 -14.548  0.00  0.00    +0.003 C 
ATOM     32  C   UNL     1      30.508 -23.554 -15.575  0.00  0.00    +0.003 C 
ATOM     33  C   UNL     1      32.161 -23.859 -13.349  0.00  0.00    +0.030 C 
ATOM     34  C   UNL     1      29.982 -24.034 -14.377  0.00  0.00    +0.030 C 
ATOM     35  C   UNL     1      30.808 -24.187 -13.263  0.00  0.00    +0.140 C 
ENDBRANCH  27  30
ENDBRANCH  23  25
ENDBRANCH   4  23
TORSDOF 9
ENDMDL
MODEL 6
REMARK VINA RESULT:     -10.2      4.450      8.248
REMARK  Name = 24812758
REMARK  9 active torsions:
REMARK  status: ('A' for Active; 'I' for Inactive)
REMARK    1  A    between atoms: C_1  and  C_11
REMARK    2  A    between atoms: C_4  and  C_23
REMARK    3  A    between atoms: C_9  and  O_14
REMARK    4  A    between atoms: C_10  and  O_16
REMARK    5  A    between atoms: C_12  and  O_18
REMARK    6  A    between atoms: C_13  and  C_20
REMARK    7  A    between atoms: C_20  and  O_21
REMARK    8  A    between atoms: C_23  and  C_25
REMARK    9  A    between atoms: C_27  and  C_30
REMARK                            x       y       z     vdW  Elec       q    Type
REMARK                         _______ _______ _______ _____ _____    ______ ____
ROOT
ATOM      1  C   UNL     1      35.990 -22.158 -17.377  0.00  0.00    +0.007 C 
ATOM      2  C   UNL     1      35.234 -23.096 -16.675  0.00  0.00    -0.006 C 
ATOM      3  C   UNL     1      37.121 -21.591 -16.789  0.00  0.00    -0.002 C 
ATOM      4  C   UNL     1      35.608 -23.469 -15.384  0.00  0.00    -0.021 C 
ATOM      5  C   UNL     1      36.740 -22.902 -14.796  0.00  0.00    -0.025 C 
ATOM      6  C   UNL     1      37.495 -21.963 -15.498  0.00  0.00    -0.005 C 
ATOM      7  C   UNL     1      37.161 -23.285 -13.415  0.00  0.00    +0.031 C 
ENDROOT
BRANCH   1  11
ATOM      8  O   UNL     1      36.281 -20.546 -19.105  0.00  0.00    -0.347 OA
ATOM      9  C   UNL     1      34.064 -21.555 -18.904  0.00  0.00    +0.171 C 
ATOM     10  C   UNL     1      33.693 -20.993 -20.279  0.00  0.00    +0.169 C 
ATOM     11  C   UNL     1      35.582 -21.753 -18.780  0.00  0.00    +0.167 C 
ATOM     12  C   UNL     1      34.564 -19.791 -20.641  0.00  0.00    +0.169 C 
ATOM     13  C   UNL     1      36.046 -20.115 -20.446  0.00  0.00    +0.174 C 
BRANCH   9  14
ATOM     14  O   UNL     1      33.423 -22.819 -18.731  0.00  0.00    -0.379 OA
ATOM     15  H   UNL     1      33.880 -23.489 -19.262  0.00  0.00    +0.211 HD
ENDBRANCH   9  14
BRANCH  10  16
ATOM     16  O   UNL     1      32.331 -20.563 -20.265  0.00  0.00    -0.379 OA
ATOM     17  H   UNL     1      31.800 -21.187 -19.745  0.00  0.00    +0.211 HD
ENDBRANCH  10  16
BRANCH  12  18
ATOM     18  O   UNL     1      34.336 -19.438 -22.003  0.00  0.00    -0.379 OA
ATOM     19  H   UNL     1      33.733 -18.678 -22.043  0.00  0.00    +0.211 HD
ENDBRANCH  12  18
BRANCH  13  20
ATOM     20  C   UNL     1      36.929 -18.897 -20.696  0.00  0.00    +0.169 C 
BRANCH  20  21
ATOM     21  O   UNL     1      37.709 -18.660 -19.537  0.00  0.00    -0.379 OA
ATOM     22  H   UNL     1      37.168 -18.812 -18.746  0.00  0.00    +0.211 HD
ENDBRANCH  20  21
ENDBRANCH  13  20
ENDBRANCH   1  11
BRANCH   4  23
ATOM     23  C   UNL     1      34.785 -24.476 -14.651  0.00  0.00    +0.059 C 
BRANCH  23  25
ATOM     24  S   UNL     1      32.222 -23.901 -15.591  0.00  0.00    -0.091 S 
ATOM     25  C   UNL     1      33.381 -24.004 -14.334  0.00  0.00    +0.012 C 
ATOM     26  C   UNL     1      32.859 -23.626 -13.117  0.00  0.00    +0.003 C 
ATOM     27  C   UNL     1      31.018 -23.347 -14.507  0.00  0.00    +0.029 C 
ATOM     28  C   UNL     1      31.489 -23.245 -13.217  0.00  0.00    +0.007 C 
BRANCH  27  30
ATOM     29  F   UNL     1      25.930 -22.221 -16.484  0.00  0.00    -0.204 F 
ATOM     30  C   UNL     1      29.699 -23.055 -15.020  0.00  0.00    +0.006 C 
ATOM     31  C   UNL     1      29.375 -23.378 -16.338  0.00  0.00    +0.003 C 
ATOM     32  C   UNL     1      28.749 -22.450 -14.197  0.00  0.00    +0.003 C 
ATOM     33  C   UNL     1      28.103 -23.097 -16.832  0.00  0.00    +0.030 C 
ATOM     34  C   UNL     1      27.476 -22.169 -14.691  0.00  0.00    +0.030 C 
ATOM     35  C   UNL     1      27.152 -22.492 -16.009  0.00  0.00    +0.140 C 
ENDBRANCH  27  30
ENDBRANCH  23  25
ENDBRANCH   4  23
TORSDOF 9
ENDMDL
MODEL 7
REMARK VINA RESULT:     -10.1      2.735      5.049
REMARK  Name = 24812758
REMARK  9 active torsions:
REMARK  status: ('A' for Active; 'I' for Inactive)
REMARK    1  A    between atoms: C_1  and  C_11
REMARK    2  A    between atoms: C_4  and  C_23
REMARK    3  A    between atoms: C_9  and  O_14
REMARK    4  A    between atoms: C_10  and  O_16
REMARK    5  A    between atoms: C_12  and  O_18
REMARK    6  A    between atoms: C_13  and  C_20
REMARK    7  A    between atoms: C_20  and  O_21
REMARK    8  A    between atoms: C_23  and  C_25
REMARK    9  A    between atoms: C_27  and  C_30
REMARK                            x       y       z     vdW  Elec       q    Type
REMARK                         _______ _______ _______ _____ _____    ______ ____
ROOT
ATOM      1  C   UNL     1      34.819 -24.226 -14.744  0.00  0.00    +0.007 C 
ATOM      2  C   UNL     1      35.387 -23.226 -15.533  0.00  0.00    -0.006 C 
ATOM      3  C   UNL     1      35.638 -25.143 -14.084  0.00  0.00    -0.002 C 
ATOM      4  C   UNL     1      36.773 -23.143 -15.664  0.00  0.00    -0.021 C 
ATOM      5  C   UNL     1      37.592 -24.060 -15.005  0.00  0.00    -0.025 C 
ATOM      6  C   UNL     1      37.024 -25.060 -14.215  0.00  0.00    -0.005 C 
ATOM      7  C   UNL     1      39.078 -23.992 -15.128  0.00  0.00    +0.031 C 
ENDROOT
BRANCH   1  11
ATOM      8  O   UNL     1      32.733 -23.393 -15.529  0.00  0.00    -0.347 OA
ATOM      9  C   UNL     1      32.851 -24.013 -13.168  0.00  0.00    +0.171 C 
ATOM     10  C   UNL     1      31.323 -23.951 -13.085  0.00  0.00    +0.169 C 
ATOM     11  C   UNL     1      33.313 -24.316 -14.602  0.00  0.00    +0.167 C 
ATOM     12  C   UNL     1      30.742 -23.064 -14.185  0.00  0.00    +0.169 C 
ATOM     13  C   UNL     1      31.306 -23.455 -15.553  0.00  0.00    +0.174 C 
BRANCH   9  14
ATOM     14  O   UNL     1      33.321 -25.050 -12.308  0.00  0.00    -0.379 OA
ATOM     15  H   UNL     1      34.253 -25.235 -12.504  0.00  0.00    +0.211 HD
ENDBRANCH   9  14
BRANCH  10  16
ATOM     16  O   UNL     1      30.938 -23.400 -11.825  0.00  0.00    -0.379 OA
ATOM     17  H   UNL     1      30.076 -23.760 -11.564  0.00  0.00    +0.211 HD
ENDBRANCH  10  16
BRANCH  12  18
ATOM     18  O   UNL     1      29.324 -23.206 -14.204  0.00  0.00    -0.379 OA
ATOM     19  H   UNL     1      28.915 -22.341 -14.367  0.00  0.00    +0.211 HD
ENDBRANCH  12  18
BRANCH  13  20
ATOM     20  C   UNL     1      30.825 -22.514 -16.652  0.00  0.00    +0.169 C 
BRANCH  20  21
ATOM     21  O   UNL     1      29.435 -22.711 -16.839  0.00  0.00    -0.379 OA
ATOM     22  H   UNL     1      29.101 -23.319 -16.161  0.00  0.00    +0.211 HD
ENDBRANCH  20  21
ENDBRANCH  13  20
ENDBRANCH   1  11
BRANCH   4  23
ATOM     23  C   UNL     1      37.358 -22.064 -16.514  0.00  0.00    +0.059 C 
BRANCH  23  25
ATOM     24  S   UNL     1      37.031 -20.461 -18.773  0.00  0.00    -0.091 S 
ATOM     25  C   UNL     1      36.492 -21.678 -17.695  0.00  0.00    +0.012 C 
ATOM     26  C   UNL     1      35.265 -22.185 -18.061  0.00  0.00    +0.003 C 
ATOM     27  C   UNL     1      35.621 -20.610 -19.732  0.00  0.00    +0.029 C 
ATOM     28  C   UNL     1      34.760 -21.566 -19.241  0.00  0.00    +0.007 C 
BRANCH  27  30
ATOM     29  F   UNL     1      35.061 -17.358 -24.223  0.00  0.00    -0.204 F 
ATOM     30  C   UNL     1      35.475 -19.767 -20.896  0.00  0.00    +0.006 C 
ATOM     31  C   UNL     1      36.349 -18.698 -21.097  0.00  0.00    +0.003 C 
ATOM     32  C   UNL     1      34.462 -20.022 -21.820  0.00  0.00    +0.003 C 
ATOM     33  C   UNL     1      36.209 -17.884 -22.220  0.00  0.00    +0.030 C 
ATOM     34  C   UNL     1      34.322 -19.208 -22.943  0.00  0.00    +0.030 C 
ATOM     35  C   UNL     1      35.196 -18.139 -23.144  0.00  0.00    +0.140 C 
ENDBRANCH  27  30
ENDBRANCH  23  25
ENDBRANCH   4  23
TORSDOF 9
ENDMDL
MODEL 8
REMARK VINA RESULT:      -9.9     10.459     15.908
REMARK  Name = 24812758
REMARK  9 active torsions:
REMARK  status: ('A' for Active; 'I' for Inactive)
REMARK    1  A    between atoms: C_1  and  C_11
REMARK    2  A    between atoms: C_4  and  C_23
REMARK    3  A    between atoms: C_9  and  O_14
REMARK    4  A    between atoms: C_10  and  O_16
REMARK    5  A    between atoms: C_12  and  O_18
REMARK    6  A    between atoms: C_13  and  C_20
REMARK    7  A    between atoms: C_20  and  O_21
REMARK    8  A    between atoms: C_23  and  C_25
REMARK    9  A    between atoms: C_27  and  C_30
REMARK                            x       y       z     vdW  Elec       q    Type
REMARK                         _______ _______ _______ _____ _____    ______ ____
ROOT
ATOM      1  C   UNL     1      33.155  -8.394 -23.405  0.00  0.00    +0.007 C 
ATOM      2  C   UNL     1      32.784  -9.639 -23.914  0.00  0.00    -0.006 C 
ATOM      3  C   UNL     1      34.382  -7.834 -23.760  0.00  0.00    -0.002 C 
ATOM      4  C   UNL     1      33.639 -10.324 -24.777  0.00  0.00    -0.021 C 
ATOM      5  C   UNL     1      34.866  -9.763 -25.132  0.00  0.00    -0.025 C 
ATOM      6  C   UNL     1      35.238  -8.519 -24.623  0.00  0.00    -0.005 C 
ATOM      7  C   UNL     1      35.799 -10.476 -26.054  0.00  0.00    +0.031 C 
ENDROOT
BRANCH   1  11
ATOM      8  O   UNL     1      32.359  -6.252 -22.741  0.00  0.00    -0.347 OA
ATOM      9  C   UNL     1      32.535  -7.950 -20.993  0.00  0.00    +0.171 C 
ATOM     10  C   UNL     1      31.694  -7.069 -20.065  0.00  0.00    +0.169 C 
ATOM     11  C   UNL     1      32.225  -7.651 -22.467  0.00  0.00    +0.167 C 
ATOM     12  C   UNL     1      31.757  -5.602 -20.484  0.00  0.00    +0.169 C 
ATOM     13  C   UNL     1      31.458  -5.450 -21.977  0.00  0.00    +0.174 C 
BRANCH   9  14
ATOM     14  O   UNL     1      32.233  -9.321 -20.732  0.00  0.00    -0.379 OA
ATOM     15  H   UNL     1      31.574  -9.634 -21.372  0.00  0.00    +0.211 HD
ENDBRANCH   9  14
BRANCH  10  16
ATOM     16  O   UNL     1      32.197  -7.169 -18.731  0.00  0.00    -0.379 OA
ATOM     17  H   UNL     1      32.478  -8.081 -18.559  0.00  0.00    +0.211 HD
ENDBRANCH  10  16
BRANCH  12  18
ATOM     18  O   UNL     1      30.801  -4.856 -19.735  0.00  0.00    -0.379 OA
ATOM     19  H   UNL     1      29.952  -5.327 -19.736  0.00  0.00    +0.211 HD
ENDBRANCH  12  18
BRANCH  13  20
ATOM     20  C   UNL     1      31.622  -4.007 -22.443  0.00  0.00    +0.169 C 
BRANCH  20  21
ATOM     21  O   UNL     1      30.587  -3.228 -21.870  0.00  0.00    -0.379 OA
ATOM     22  H   UNL     1      30.970  -2.588 -21.249  0.00  0.00    +0.211 HD
ENDBRANCH  20  21
ENDBRANCH  13  20
ENDBRANCH   1  11
BRANCH   4  23
ATOM     23  C   UNL     1      33.220 -11.655 -25.309  0.00  0.00    +0.059 C 
BRANCH  23  25
ATOM     24  S   UNL     1      33.705 -14.394 -25.103  0.00  0.00    -0.091 S 
ATOM     25  C   UNL     1      33.625 -12.820 -24.431  0.00  0.00    +0.012 C 
ATOM     26  C   UNL     1      33.963 -12.811 -23.096  0.00  0.00    +0.003 C 
ATOM     27  C   UNL     1      34.192 -15.066 -23.605  0.00  0.00    +0.029 C 
ATOM     28  C   UNL     1      34.291 -14.112 -22.617  0.00  0.00    +0.007 C 
BRANCH  27  30
ATOM     29  F   UNL     1      35.132 -20.551 -23.297  0.00  0.00    -0.204 F 
ATOM     30  C   UNL     1      34.435 -16.488 -23.525  0.00  0.00    +0.006 C 
ATOM     31  C   UNL     1      33.773 -17.359 -24.390  0.00  0.00    +0.003 C 
ATOM     32  C   UNL     1      35.333 -16.990 -22.583  0.00  0.00    +0.003 C 
ATOM     33  C   UNL     1      34.008 -18.731 -24.314  0.00  0.00    +0.030 C 
ATOM     34  C   UNL     1      35.568 -18.362 -22.506  0.00  0.00    +0.030 C 
ATOM     35  C   UNL     1      34.906 -19.233 -23.371  0.00  0.00    +0.140 C 
ENDBRANCH  27  30
ENDBRANCH  23  25
ENDBRANCH   4  23
TORSDOF 9
ENDMDL
MODEL 9
REMARK VINA RESULT:      -9.3      3.468      6.183
REMARK  Name = 24812758
REMARK  9 active torsions:
REMARK  status: ('A' for Active; 'I' for Inactive)
REMARK    1  A    between atoms: C_1  and  C_11
REMARK    2  A    between atoms: C_4  and  C_23
REMARK    3  A    between atoms: C_9  and  O_14
REMARK    4  A    between atoms: C_10  and  O_16
REMARK    5  A    between atoms: C_12  and  O_18
REMARK    6  A    between atoms: C_13  and  C_20
REMARK    7  A    between atoms: C_20  and  O_21
REMARK    8  A    between atoms: C_23  and  C_25
REMARK    9  A    between atoms: C_27  and  C_30
REMARK                            x       y       z     vdW  Elec       q    Type
REMARK                         _______ _______ _______ _____ _____    ______ ____
ROOT
ATOM      1  C   UNL     1      37.094 -22.662 -15.509  0.00  0.00    +0.007 C 
ATOM      2  C   UNL     1      35.913 -22.968 -16.183  0.00  0.00    -0.006 C 
ATOM      3  C   UNL     1      37.998 -21.753 -16.061  0.00  0.00    -0.002 C 
ATOM      4  C   UNL     1      35.633 -22.367 -17.410  0.00  0.00    -0.021 C 
ATOM      5  C   UNL     1      36.536 -21.458 -17.962  0.00  0.00    -0.025 C 
ATOM      6  C   UNL     1      37.718 -21.152 -17.288  0.00  0.00    -0.005 C 
ATOM      7  C   UNL     1      36.259 -20.800 -19.274  0.00  0.00    +0.031 C 
ENDROOT
BRANCH   1  11
ATOM      8  O   UNL     1      38.414 -24.301 -14.396  0.00  0.00    -0.347 OA
ATOM      9  C   UNL     1      36.148 -23.952 -13.549  0.00  0.00    +0.171 C 
ATOM     10  C   UNL     1      36.507 -24.743 -12.288  0.00  0.00    +0.169 C 
ATOM     11  C   UNL     1      37.398 -23.316 -14.176  0.00  0.00    +0.167 C 
ATOM     12  C   UNL     1      37.689 -25.678 -12.536  0.00  0.00    +0.169 C 
ATOM     13  C   UNL     1      38.851 -24.925 -13.188  0.00  0.00    +0.174 C 
BRANCH   9  14
ATOM     14  O   UNL     1      35.233 -22.913 -13.200  0.00  0.00    -0.379 OA
ATOM     15  H   UNL     1      34.371 -23.090 -13.609  0.00  0.00    +0.211 HD
ENDBRANCH   9  14
BRANCH  10  16
ATOM     16  O   UNL     1      35.390 -25.540 -11.892  0.00  0.00    -0.379 OA
ATOM     17  H   UNL     1      35.643 -26.105 -11.146  0.00  0.00    +0.211 HD
ENDBRANCH  10  16
BRANCH  12  18
ATOM     18  O   UNL     1      38.124 -26.228 -11.295  0.00  0.00    -0.379 OA
ATOM     19  H   UNL     1      37.941 -27.181 -11.283  0.00  0.00    +0.211 HD
ENDBRANCH  12  18
BRANCH  13  20
ATOM     20  C   UNL     1      40.001 -25.860 -13.546  0.00  0.00    +0.169 C 
BRANCH  20  21
ATOM     21  O   UNL     1      40.993 -25.113 -14.228  0.00  0.00    -0.379 OA
ATOM     22  H   UNL     1      40.676 -24.207 -14.370  0.00  0.00    +0.211 HD
ENDBRANCH  20  21
ENDBRANCH  13  20
ENDBRANCH   1  11
BRANCH   4  23
ATOM     23  C   UNL     1      34.361 -22.709 -18.113  0.00  0.00    +0.059 C 
BRANCH  23  25
ATOM     24  S   UNL     1      31.674 -22.311 -17.481  0.00  0.00    -0.091 S 
ATOM     25  C   UNL     1      33.207 -23.011 -17.179  0.00  0.00    +0.012 C 
ATOM     26  C   UNL     1      33.198 -23.812 -16.059  0.00  0.00    +0.003 C 
ATOM     27  C   UNL     1      30.994 -23.079 -16.110  0.00  0.00    +0.029 C 
ATOM     28  C   UNL     1      31.915 -23.851 -15.439  0.00  0.00    +0.007 C 
BRANCH  27  30
ATOM     29  F   UNL     1      25.616 -22.215 -14.928  0.00  0.00    -0.204 F 
ATOM     30  C   UNL     1      29.600 -22.855 -15.804  0.00  0.00    +0.006 C 
ATOM     31  C   UNL     1      29.219 -22.490 -14.512  0.00  0.00    +0.003 C 
ATOM     32  C   UNL     1      28.634 -23.003 -16.799  0.00  0.00    +0.003 C 
ATOM     33  C   UNL     1      27.874 -22.273 -14.216  0.00  0.00    +0.030 C 
ATOM     34  C   UNL     1      27.289 -22.787 -16.504  0.00  0.00    +0.030 C 
ATOM     35  C   UNL     1      26.908 -22.422 -15.212  0.00  0.00    +0.140 C 
ENDBRANCH  27  30
ENDBRANCH  23  25
ENDBRANCH   4  23
TORSDOF 9
ENDMDL
