MODEL 1
REMARK VINA RESULT:     -11.7      0.000      0.000
REMARK  Name = 5288527
REMARK  4 active torsions:
REMARK  status: ('A' for Active; 'I' for Inactive)
REMARK    1  A    between atoms: N_1  and  C_18
REMARK    2  A    between atoms: C_4  and  C_11
REMARK    3  A    between atoms: C_19  and  S_24
REMARK    4  A    between atoms: S_24  and  N_27
REMARK                            x       y       z     vdW  Elec       q    Type
REMARK                         _______ _______ _______ _____ _____    ______ ____
ROOT
ATOM      1  N   UNL     1      34.955 -25.085 -12.620  0.00  0.00    -0.247 N 
ATOM      2  N   UNL     1      34.059 -24.030 -14.514  0.00  0.00    -0.336 NA
ATOM      3  N   UNL     1      32.701 -24.437 -12.565  0.00  0.00    -0.170 NA
ATOM      4  C   UNL     1      32.981 -23.466 -15.095  0.00  0.00    +0.161 C 
ATOM      5  C   UNL     1      33.850 -24.488 -13.265  0.00  0.00    +0.149 C 
ATOM      6  C   UNL     1      31.749 -23.351 -14.491  0.00  0.00    +0.056 C 
ATOM      7  C   UNL     1      31.666 -23.859 -13.211  0.00  0.00    +0.114 C 
ATOM      8  H   UNL     1      34.757 -25.405 -11.710  0.00  0.00    +0.165 HD
ENDROOT
BRANCH   4  11
ATOM      9  N   UNL     1      34.423 -22.572 -16.928  0.00  0.00    -0.246 N 
ATOM     10  N   UNL     1      32.946 -22.318 -18.589  0.00  0.00    -0.227 NA
ATOM     11  C   UNL     1      33.209 -22.978 -16.435  0.00  0.00    +0.107 C 
ATOM     12  C   UNL     1      34.210 -22.178 -18.247  0.00  0.00    +0.139 C 
ATOM     13  C   UNL     1      32.322 -22.813 -17.472  0.00  0.00    +0.118 C 
ATOM     14  C   UNL     1      35.665 -22.530 -16.302  0.00  0.00    +0.071 C 
ATOM     15  C   UNL     1      35.345 -21.712 -18.973  0.00  0.00    +0.035 C 
ATOM     16  C   UNL     1      36.728 -22.089 -16.992  0.00  0.00    +0.017 C 
ATOM     17  C   UNL     1      36.550 -21.668 -18.373  0.00  0.00    +0.004 C 
ENDBRANCH   4  11
BRANCH   1  18
ATOM     18  C   UNL     1      36.284 -25.312 -13.022  0.00  0.00    +0.058 C 
ATOM     19  C   UNL     1      38.922 -25.764 -13.822  0.00  0.00    +0.122 C 
ATOM     20  C   UNL     1      37.338 -24.702 -12.338  0.00  0.00    +0.017 C 
ATOM     21  C   UNL     1      36.554 -26.149 -14.107  0.00  0.00    +0.017 C 
ATOM     22  C   UNL     1      38.655 -24.928 -12.738  0.00  0.00    +0.021 C 
ATOM     23  C   UNL     1      37.871 -26.375 -14.507  0.00  0.00    +0.021 C 
BRANCH  19  24
ATOM     24  S   UNL     1      40.570 -26.047 -14.323  0.00  0.00    +0.057 S 
ATOM     25  O   UNL     1      41.225 -24.757 -14.492  0.00  0.00    -0.153 OA
ATOM     26  O   UNL     1      41.157 -27.046 -13.442  0.00  0.00    -0.153 OA
BRANCH  24  27
ATOM     27  N   UNL     1      40.328 -26.748 -15.862  0.00  0.00    -0.203 NA
ATOM     28  H   UNL     1      40.921 -26.279 -16.546  0.00  0.00    +0.144 HD
ATOM     29  H   UNL     1      39.349 -26.645 -16.132  0.00  0.00    +0.144 HD
ENDBRANCH  24  27
ENDBRANCH  19  24
ENDBRANCH   1  18
TORSDOF 4
ENDMDL
MODEL 2
REMARK VINA RESULT:     -11.4      4.942      6.954
REMARK  Name = 5288527
REMARK  4 active torsions:
REMARK  status: ('A' for Active; 'I' for Inactive)
REMARK    1  A    between atoms: N_1  and  C_18
REMARK    2  A    between atoms: C_4  and  C_11
REMARK    3  A    between atoms: C_19  and  S_24
REMARK    4  A    between atoms: S_24  and  N_27
REMARK                            x       y       z     vdW  Elec       q    Type
REMARK                         _______ _______ _______ _____ _____    ______ ____
ROOT
ATOM      1  N   UNL     1      32.800 -24.682 -12.743  0.00  0.00    -0.247 N 
ATOM      2  N   UNL     1      34.536 -23.816 -14.061  0.00  0.00    -0.336 NA
ATOM      3  N   UNL     1      35.006 -24.968 -11.998  0.00  0.00    -0.170 NA
ATOM      4  C   UNL     1      35.864 -23.643 -14.218  0.00  0.00    +0.161 C 
ATOM      5  C   UNL     1      34.183 -24.479 -12.944  0.00  0.00    +0.149 C 
ATOM      6  C   UNL     1      36.812 -24.094 -13.327  0.00  0.00    +0.056 C 
ATOM      7  C   UNL     1      36.320 -24.758 -12.222  0.00  0.00    +0.114 C 
ATOM      8  H   UNL     1      32.588 -25.170 -11.914  0.00  0.00    +0.165 HD
ENDROOT
BRANCH   4  11
ATOM      9  N   UNL     1      35.417 -22.720 -16.495  0.00  0.00    -0.246 N 
ATOM     10  N   UNL     1      37.376 -21.760 -16.992  0.00  0.00    -0.227 NA
ATOM     11  C   UNL     1      36.239 -22.932 -15.417  0.00  0.00    +0.107 C 
ATOM     12  C   UNL     1      36.158 -22.000 -17.430  0.00  0.00    +0.139 C 
ATOM     13  C   UNL     1      37.432 -22.334 -15.747  0.00  0.00    +0.118 C 
ATOM     14  C   UNL     1      34.097 -23.111 -16.694  0.00  0.00    +0.071 C 
ATOM     15  C   UNL     1      35.502 -21.658 -18.649  0.00  0.00    +0.035 C 
ATOM     16  C   UNL     1      33.487 -22.786 -17.845  0.00  0.00    +0.017 C 
ATOM     17  C   UNL     1      34.224 -22.035 -18.849  0.00  0.00    +0.004 C 
ENDBRANCH   4  11
BRANCH   1  18
ATOM     18  C   UNL     1      31.665 -24.324 -13.495  0.00  0.00    +0.058 C 
ATOM     19  C   UNL     1      29.414 -23.613 -14.987  0.00  0.00    +0.122 C 
ATOM     20  C   UNL     1      30.744 -25.300 -13.881  0.00  0.00    +0.017 C 
ATOM     21  C   UNL     1      31.456 -22.991 -13.856  0.00  0.00    +0.017 C 
ATOM     22  C   UNL     1      29.621 -24.945 -14.626  0.00  0.00    +0.021 C 
ATOM     23  C   UNL     1      30.333 -22.636 -14.601  0.00  0.00    +0.021 C 
BRANCH  19  24
ATOM     24  S   UNL     1      28.008 -23.168 -15.920  0.00  0.00    +0.057 S 
ATOM     25  O   UNL     1      26.876 -23.042 -15.013  0.00  0.00    -0.153 OA
ATOM     26  O   UNL     1      28.362 -22.057 -16.792  0.00  0.00    -0.153 OA
BRANCH  24  27
ATOM     27  N   UNL     1      27.794 -24.568 -16.877  0.00  0.00    -0.203 NA
ATOM     28  H   UNL     1      28.627 -25.153 -16.813  0.00  0.00    +0.144 HD
ATOM     29  H   UNL     1      27.643 -24.296 -17.848  0.00  0.00    +0.144 HD
ENDBRANCH  24  27
ENDBRANCH  19  24
ENDBRANCH   1  18
TORSDOF 4
ENDMDL
MODEL 3
REMARK VINA RESULT:     -10.4      4.125      7.236
REMARK  Name = 5288527
REMARK  4 active torsions:
REMARK  status: ('A' for Active; 'I' for Inactive)
REMARK    1  A    between atoms: N_1  and  C_18
REMARK    2  A    between atoms: C_4  and  C_11
REMARK    3  A    between atoms: C_19  and  S_24
REMARK    4  A    between atoms: S_24  and  N_27
REMARK                            x       y       z     vdW  Elec       q    Type
REMARK                         _______ _______ _______ _____ _____    ______ ____
ROOT
ATOM      1  N   UNL     1      32.569 -22.483 -17.919  0.00  0.00    -0.247 N 
ATOM      2  N   UNL     1      33.996 -22.960 -16.119  0.00  0.00    -0.336 NA
ATOM      3  N   UNL     1      31.742 -23.810 -16.169  0.00  0.00    -0.170 NA
ATOM      4  C   UNL     1      34.159 -23.579 -14.933  0.00  0.00    +0.161 C 
ATOM      5  C   UNL     1      32.780 -23.116 -16.674  0.00  0.00    +0.149 C 
ATOM      6  C   UNL     1      33.180 -24.320 -14.308  0.00  0.00    +0.056 C 
ATOM      7  C   UNL     1      31.978 -24.402 -14.980  0.00  0.00    +0.114 C 
ATOM      8  H   UNL     1      31.666 -22.623 -18.287  0.00  0.00    +0.165 HD
ENDROOT
BRANCH   4  11
ATOM      9  N   UNL     1      35.789 -23.729 -13.047  0.00  0.00    -0.246 N 
ATOM     10  N   UNL     1      37.652 -22.923 -13.988  0.00  0.00    -0.227 NA
ATOM     11  C   UNL     1      35.464 -23.409 -14.341  0.00  0.00    +0.107 C 
ATOM     12  C   UNL     1      37.136 -23.414 -12.880  0.00  0.00    +0.139 C 
ATOM     13  C   UNL     1      36.623 -22.918 -14.895  0.00  0.00    +0.118 C 
ATOM     14  C   UNL     1      34.992 -24.264 -12.039  0.00  0.00    +0.071 C 
ATOM     15  C   UNL     1      37.704 -23.664 -11.597  0.00  0.00    +0.035 C 
ATOM     16  C   UNL     1      35.534 -24.496 -10.834  0.00  0.00    +0.017 C 
ATOM     17  C   UNL     1      36.938 -24.181 -10.617  0.00  0.00    +0.004 C 
ENDBRANCH   4  11
BRANCH   1  18
ATOM     18  C   UNL     1      33.396 -21.691 -18.737  0.00  0.00    +0.058 C 
ATOM     19  C   UNL     1      35.037 -20.120 -20.361  0.00  0.00    +0.122 C 
ATOM     20  C   UNL     1      34.785 -21.819 -18.662  0.00  0.00    +0.017 C 
ATOM     21  C   UNL     1      32.831 -20.776 -19.627  0.00  0.00    +0.017 C 
ATOM     22  C   UNL     1      35.604 -21.034 -19.473  0.00  0.00    +0.021 C 
ATOM     23  C   UNL     1      33.650 -19.991 -20.438  0.00  0.00    +0.021 C 
BRANCH  19  24
ATOM     24  S   UNL     1      36.062 -19.137 -21.377  0.00  0.00    +0.057 S 
ATOM     25  O   UNL     1      37.449 -19.395 -21.015  0.00  0.00    -0.153 OA
ATOM     26  O   UNL     1      35.633 -19.295 -22.759  0.00  0.00    -0.153 OA
BRANCH  24  27
ATOM     27  N   UNL     1      35.637 -17.568 -20.847  0.00  0.00    -0.203 NA
ATOM     28  H   UNL     1      36.410 -17.168 -20.317  0.00  0.00    +0.144 HD
ATOM     29  H   UNL     1      34.809 -17.623 -20.254  0.00  0.00    +0.144 HD
ENDBRANCH  24  27
ENDBRANCH  19  24
ENDBRANCH   1  18
TORSDOF 4
ENDMDL
MODEL 4
REMARK VINA RESULT:      -9.9      4.451      7.245
REMARK  Name = 5288527
REMARK  4 active torsions:
REMARK  status: ('A' for Active; 'I' for Inactive)
REMARK    1  A    between atoms: N_1  and  C_18
REMARK    2  A    between atoms: C_4  and  C_11
REMARK    3  A    between atoms: C_19  and  S_24
REMARK    4  A    between atoms: S_24  and  N_27
REMARK                            x       y       z     vdW  Elec       q    Type
REMARK                         _______ _______ _______ _____ _____    ______ ____
ROOT
ATOM      1  N   UNL     1      32.514 -22.236 -18.076  0.00  0.00    -0.247 N 
ATOM      2  N   UNL     1      34.079 -22.903 -16.461  0.00  0.00    -0.336 NA
ATOM      3  N   UNL     1      31.774 -23.589 -16.308  0.00  0.00    -0.170 NA
ATOM      4  C   UNL     1      34.316 -23.592 -15.327  0.00  0.00    +0.161 C 
ATOM      5  C   UNL     1      32.804 -22.944 -16.889  0.00  0.00    +0.149 C 
ATOM      6  C   UNL     1      33.354 -24.293 -14.634  0.00  0.00    +0.056 C 
ATOM      7  C   UNL     1      32.087 -24.256 -15.177  0.00  0.00    +0.114 C 
ATOM      8  H   UNL     1      31.570 -22.294 -18.351  0.00  0.00    +0.165 HD
ENDROOT
BRANCH   4  11
ATOM      9  N   UNL     1      36.485 -24.640 -14.667  0.00  0.00    -0.246 N 
ATOM     10  N   UNL     1      37.722 -22.848 -14.156  0.00  0.00    -0.227 NA
ATOM     11  C   UNL     1      35.685 -23.544 -14.870  0.00  0.00    +0.107 C 
ATOM     12  C   UNL     1      37.719 -24.163 -14.232  0.00  0.00    +0.139 C 
ATOM     13  C   UNL     1      36.467 -22.460 -14.550  0.00  0.00    +0.118 C 
ATOM     14  C   UNL     1      36.198 -25.991 -14.839  0.00  0.00    +0.071 C 
ATOM     15  C   UNL     1      38.725 -25.133 -13.953  0.00  0.00    +0.035 C 
ATOM     16  C   UNL     1      37.151 -26.899 -14.574  0.00  0.00    +0.017 C 
ATOM     17  C   UNL     1      38.454 -26.442 -14.116  0.00  0.00    +0.004 C 
ENDBRANCH   4  11
BRANCH   1  18
ATOM     18  C   UNL     1      33.310 -21.463 -18.942  0.00  0.00    +0.058 C 
ATOM     19  C   UNL     1      34.890 -19.932 -20.661  0.00  0.00    +0.122 C 
ATOM     20  C   UNL     1      32.712 -20.566 -19.830  0.00  0.00    +0.017 C 
ATOM     21  C   UNL     1      34.700 -21.592 -18.917  0.00  0.00    +0.017 C 
ATOM     22  C   UNL     1      33.501 -19.801 -20.688  0.00  0.00    +0.021 C 
ATOM     23  C   UNL     1      35.489 -20.827 -19.775  0.00  0.00    +0.021 C 
BRANCH  19  24
ATOM     24  S   UNL     1      35.878 -18.975 -21.736  0.00  0.00    +0.057 S 
ATOM     25  O   UNL     1      35.871 -19.605 -23.049  0.00  0.00    -0.153 OA
ATOM     26  O   UNL     1      35.490 -17.578 -21.603  0.00  0.00    -0.153 OA
BRANCH  24  27
ATOM     27  N   UNL     1      37.422 -19.183 -21.033  0.00  0.00    -0.203 NA
ATOM     28  H   UNL     1      38.136 -19.118 -21.757  0.00  0.00    +0.144 HD
ATOM     29  H   UNL     1      37.471 -20.100 -20.587  0.00  0.00    +0.144 HD
ENDBRANCH  24  27
ENDBRANCH  19  24
ENDBRANCH   1  18
TORSDOF 4
ENDMDL
MODEL 5
REMARK VINA RESULT:      -9.7      1.638      2.623
REMARK  Name = 5288527
REMARK  4 active torsions:
REMARK  status: ('A' for Active; 'I' for Inactive)
REMARK    1  A    between atoms: N_1  and  C_18
REMARK    2  A    between atoms: C_4  and  C_11
REMARK    3  A    between atoms: C_19  and  S_24
REMARK    4  A    between atoms: S_24  and  N_27
REMARK                            x       y       z     vdW  Elec       q    Type
REMARK                         _______ _______ _______ _____ _____    ______ ____
ROOT
ATOM      1  N   UNL     1      34.765 -25.028 -14.512  0.00  0.00    -0.247 N 
ATOM      2  N   UNL     1      34.728 -23.513 -16.304  0.00  0.00    -0.336 NA
ATOM      3  N   UNL     1      32.692 -24.161 -15.188  0.00  0.00    -0.170 NA
ATOM      4  C   UNL     1      33.987 -22.727 -17.110  0.00  0.00    +0.161 C 
ATOM      5  C   UNL     1      34.025 -24.193 -15.378  0.00  0.00    +0.149 C 
ATOM      6  C   UNL     1      32.618 -22.604 -17.022  0.00  0.00    +0.056 C 
ATOM      7  C   UNL     1      32.017 -23.352 -16.032  0.00  0.00    +0.114 C 
ATOM      8  H   UNL     1      34.211 -25.504 -13.852  0.00  0.00    +0.165 HD
ENDROOT
BRANCH   4  11
ATOM      9  N   UNL     1      34.201 -21.297 -19.146  0.00  0.00    -0.246 N 
ATOM     10  N   UNL     1      36.420 -21.076 -19.319  0.00  0.00    -0.227 NA
ATOM     11  C   UNL     1      34.744 -22.001 -18.102  0.00  0.00    +0.107 C 
ATOM     12  C   UNL     1      35.265 -20.751 -19.860  0.00  0.00    +0.139 C 
ATOM     13  C   UNL     1      36.105 -21.849 -18.231  0.00  0.00    +0.118 C 
ATOM     14  C   UNL     1      32.865 -21.115 -19.493  0.00  0.00    +0.071 C 
ATOM     15  C   UNL     1      34.939 -19.966 -21.005  0.00  0.00    +0.035 C 
ATOM     16  C   UNL     1      32.567 -20.375 -20.573  0.00  0.00    +0.017 C 
ATOM     17  C   UNL     1      33.649 -19.786 -21.347  0.00  0.00    +0.004 C 
ENDBRANCH   4  11
BRANCH   1  18
ATOM     18  C   UNL     1      36.139 -25.312 -14.408  0.00  0.00    +0.058 C 
ATOM     19  C   UNL     1      38.866 -25.878 -14.201  0.00  0.00    +0.122 C 
ATOM     20  C   UNL     1      36.998 -24.403 -13.787  0.00  0.00    +0.017 C 
ATOM     21  C   UNL     1      36.649 -26.505 -14.925  0.00  0.00    +0.017 C 
ATOM     22  C   UNL     1      38.360 -24.685 -13.684  0.00  0.00    +0.021 C 
ATOM     23  C   UNL     1      38.010 -26.788 -14.821  0.00  0.00    +0.021 C 
BRANCH  19  24
ATOM     24  S   UNL     1      40.571 -26.231 -14.072  0.00  0.00    +0.057 S 
ATOM     25  O   UNL     1      41.317 -25.060 -14.510  0.00  0.00    -0.153 OA
ATOM     26  O   UNL     1      40.828 -26.802 -12.758  0.00  0.00    -0.153 OA
BRANCH  24  27
ATOM     27  N   UNL     1      40.738 -27.462 -15.246  0.00  0.00    -0.203 NA
ATOM     28  H   UNL     1      41.584 -27.298 -15.791  0.00  0.00    +0.144 HD
ATOM     29  H   UNL     1      39.927 -27.454 -15.865  0.00  0.00    +0.144 HD
ENDBRANCH  24  27
ENDBRANCH  19  24
ENDBRANCH   1  18
TORSDOF 4
ENDMDL
MODEL 6
REMARK VINA RESULT:      -9.7      4.967      6.957
REMARK  Name = 5288527
REMARK  4 active torsions:
REMARK  status: ('A' for Active; 'I' for Inactive)
REMARK    1  A    between atoms: N_1  and  C_18
REMARK    2  A    between atoms: C_4  and  C_11
REMARK    3  A    between atoms: C_19  and  S_24
REMARK    4  A    between atoms: S_24  and  N_27
REMARK                            x       y       z     vdW  Elec       q    Type
REMARK                         _______ _______ _______ _____ _____    ______ ____
ROOT
ATOM      1  N   UNL     1      34.404 -23.666 -14.456  0.00  0.00    -0.247 N 
ATOM      2  N   UNL     1      35.380 -22.576 -16.290  0.00  0.00    -0.336 NA
ATOM      3  N   UNL     1      36.745 -23.630 -14.608  0.00  0.00    -0.170 NA
ATOM      4  C   UNL     1      36.513 -22.218 -16.926  0.00  0.00    +0.161 C 
ATOM      5  C   UNL     1      35.567 -23.271 -15.152  0.00  0.00    +0.149 C 
ATOM      6  C   UNL     1      37.779 -22.521 -16.477  0.00  0.00    +0.056 C 
ATOM      7  C   UNL     1      37.835 -23.237 -15.299  0.00  0.00    +0.114 C 
ATOM      8  H   UNL     1      34.588 -24.171 -13.631  0.00  0.00    +0.165 HD
ENDROOT
BRANCH   4  11
ATOM      9  N   UNL     1      35.098 -21.305 -18.770  0.00  0.00    -0.246 N 
ATOM     10  N   UNL     1      36.609 -20.211 -20.007  0.00  0.00    -0.227 NA
ATOM     11  C   UNL     1      36.308 -21.472 -18.144  0.00  0.00    +0.107 C 
ATOM     12  C   UNL     1      35.334 -20.528 -19.902  0.00  0.00    +0.139 C 
ATOM     13  C   UNL     1      37.215 -20.792 -18.922  0.00  0.00    +0.118 C 
ATOM     14  C   UNL     1      33.841 -21.782 -18.411  0.00  0.00    +0.071 C 
ATOM     15  C   UNL     1      34.209 -20.220 -20.721  0.00  0.00    +0.035 C 
ATOM     16  C   UNL     1      32.786 -21.488 -19.187  0.00  0.00    +0.017 C 
ATOM     17  C   UNL     1      32.989 -20.679 -20.380  0.00  0.00    +0.004 C 
ENDBRANCH   4  11
BRANCH   1  18
ATOM     18  C   UNL     1      33.032 -23.480 -14.710  0.00  0.00    +0.058 C 
ATOM     19  C   UNL     1      30.310 -23.110 -15.213  0.00  0.00    +0.122 C 
ATOM     20  C   UNL     1      32.544 -23.556 -16.017  0.00  0.00    +0.017 C 
ATOM     21  C   UNL     1      32.154 -23.217 -13.656  0.00  0.00    +0.017 C 
ATOM     22  C   UNL     1      31.186 -23.371 -16.268  0.00  0.00    +0.021 C 
ATOM     23  C   UNL     1      30.795 -23.033 -13.907  0.00  0.00    +0.021 C 
BRANCH  19  24
ATOM     24  S   UNL     1      28.609 -22.877 -15.527  0.00  0.00    +0.057 S 
ATOM     25  O   UNL     1      28.054 -22.054 -14.461  0.00  0.00    -0.153 OA
ATOM     26  O   UNL     1      28.445 -22.470 -16.915  0.00  0.00    -0.153 OA
BRANCH  24  27
ATOM     27  N   UNL     1      28.024 -24.474 -15.351  0.00  0.00    -0.203 NA
ATOM     28  H   UNL     1      28.758 -25.063 -14.961  0.00  0.00    +0.144 HD
ATOM     29  H   UNL     1      27.745 -24.836 -16.264  0.00  0.00    +0.144 HD
ENDBRANCH  24  27
ENDBRANCH  19  24
ENDBRANCH   1  18
TORSDOF 4
ENDMDL
MODEL 7
REMARK VINA RESULT:      -9.6      5.218      7.170
REMARK  Name = 5288527
REMARK  4 active torsions:
REMARK  status: ('A' for Active; 'I' for Inactive)
REMARK    1  A    between atoms: N_1  and  C_18
REMARK    2  A    between atoms: C_4  and  C_11
REMARK    3  A    between atoms: C_19  and  S_24
REMARK    4  A    between atoms: S_24  and  N_27
REMARK                            x       y       z     vdW  Elec       q    Type
REMARK                         _______ _______ _______ _____ _____    ______ ____
ROOT
ATOM      1  N   UNL     1      34.374 -23.333 -15.415  0.00  0.00    -0.247 N 
ATOM      2  N   UNL     1      34.702 -22.139 -17.407  0.00  0.00    -0.336 NA
ATOM      3  N   UNL     1      36.574 -22.833 -16.059  0.00  0.00    -0.170 NA
ATOM      4  C   UNL     1      35.580 -21.584 -18.267  0.00  0.00    +0.161 C 
ATOM      5  C   UNL     1      35.261 -22.739 -16.340  0.00  0.00    +0.149 C 
ATOM      6  C   UNL     1      36.947 -21.609 -18.098  0.00  0.00    +0.056 C 
ATOM      7  C   UNL     1      37.393 -22.255 -16.963  0.00  0.00    +0.114 C 
ATOM      8  H   UNL     1      34.826 -23.760 -14.651  0.00  0.00    +0.165 HD
ENDROOT
BRANCH   4  11
ATOM      9  N   UNL     1      35.633 -20.109 -20.281  0.00  0.00    -0.246 N 
ATOM     10  N   UNL     1      33.518 -20.238 -20.998  0.00  0.00    -0.227 NA
ATOM     11  C   UNL     1      34.977 -20.941 -19.410  0.00  0.00    +0.107 C 
ATOM     12  C   UNL     1      34.699 -19.706 -21.233  0.00  0.00    +0.139 C 
ATOM     13  C   UNL     1      33.684 -21.004 -19.872  0.00  0.00    +0.118 C 
ATOM     14  C   UNL     1      36.963 -19.699 -20.284  0.00  0.00    +0.071 C 
ATOM     15  C   UNL     1      35.158 -18.825 -22.256  0.00  0.00    +0.035 C 
ATOM     16  C   UNL     1      37.387 -18.869 -21.250  0.00  0.00    +0.017 C 
ATOM     17  C   UNL     1      36.444 -18.424 -22.264  0.00  0.00    +0.004 C 
ENDBRANCH   4  11
BRANCH   1  18
ATOM     18  C   UNL     1      32.971 -23.437 -15.372  0.00  0.00    +0.058 C 
ATOM     19  C   UNL     1      30.188 -23.642 -15.285  0.00  0.00    +0.122 C 
ATOM     20  C   UNL     1      32.203 -23.013 -16.459  0.00  0.00    +0.017 C 
ATOM     21  C   UNL     1      32.343 -23.964 -14.242  0.00  0.00    +0.017 C 
ATOM     22  C   UNL     1      30.814 -23.116 -16.415  0.00  0.00    +0.021 C 
ATOM     23  C   UNL     1      30.953 -24.066 -14.199  0.00  0.00    +0.021 C 
BRANCH  19  24
ATOM     24  S   UNL     1      28.447 -23.770 -15.230  0.00  0.00    +0.057 S 
ATOM     25  O   UNL     1      28.097 -24.891 -14.369  0.00  0.00    -0.153 OA
ATOM     26  O   UNL     1      27.894 -22.451 -14.961  0.00  0.00    -0.153 OA
BRANCH  24  27
ATOM     27  N   UNL     1      28.100 -24.190 -16.850  0.00  0.00    -0.203 NA
ATOM     28  H   UNL     1      27.457 -24.981 -16.865  0.00  0.00    +0.144 HD
ATOM     29  H   UNL     1      28.964 -24.444 -17.328  0.00  0.00    +0.144 HD
ENDBRANCH  24  27
ENDBRANCH  19  24
ENDBRANCH   1  18
TORSDOF 4
ENDMDL
MODEL 8
REMARK VINA RESULT:      -9.2      4.809      7.396
REMARK  Name = 5288527
REMARK  4 active torsions:
REMARK  status: ('A' for Active; 'I' for Inactive)
REMARK    1  A    between atoms: N_1  and  C_18
REMARK    2  A    between atoms: C_4  and  C_11
REMARK    3  A    between atoms: C_19  and  S_24
REMARK    4  A    between atoms: S_24  and  N_27
REMARK                            x       y       z     vdW  Elec       q    Type
REMARK                         _______ _______ _______ _____ _____    ______ ____
ROOT
ATOM      1  N   UNL     1      36.563 -22.221 -17.329  0.00  0.00    -0.247 N 
ATOM      2  N   UNL     1      34.409 -22.799 -16.603  0.00  0.00    -0.336 NA
ATOM      3  N   UNL     1      36.363 -23.647 -15.477  0.00  0.00    -0.170 NA
ATOM      4  C   UNL     1      33.654 -23.484 -15.721  0.00  0.00    +0.161 C 
ATOM      5  C   UNL     1      35.737 -22.924 -16.425  0.00  0.00    +0.149 C 
ATOM      6  C   UNL     1      34.167 -24.260 -14.705  0.00  0.00    +0.056 C 
ATOM      7  C   UNL     1      35.544 -24.305 -14.630  0.00  0.00    +0.114 C 
ATOM      8  H   UNL     1      37.526 -22.341 -17.162  0.00  0.00    +0.165 HD
ENDROOT
BRANCH   4  11
ATOM      9  N   UNL     1      31.270 -23.999 -15.184  0.00  0.00    -0.246 N 
ATOM     10  N   UNL     1      30.182 -22.737 -16.677  0.00  0.00    -0.227 NA
ATOM     11  C   UNL     1      32.230 -23.347 -15.916  0.00  0.00    +0.107 C 
ATOM     12  C   UNL     1      30.036 -23.593 -15.687  0.00  0.00    +0.139 C 
ATOM     13  C   UNL     1      31.537 -22.580 -16.822  0.00  0.00    +0.118 C 
ATOM     14  C   UNL     1      31.416 -24.901 -14.134  0.00  0.00    +0.071 C 
ATOM     15  C   UNL     1      28.875 -24.148 -15.074  0.00  0.00    +0.035 C 
ATOM     16  C   UNL     1      30.317 -25.419 -13.563  0.00  0.00    +0.017 C 
ATOM     17  C   UNL     1      29.008 -25.022 -14.058  0.00  0.00    +0.004 C 
ENDBRANCH   4  11
BRANCH   1  18
ATOM     18  C   UNL     1      36.280 -21.381 -18.423  0.00  0.00    +0.058 C 
ATOM     19  C   UNL     1      35.721 -19.714 -20.592  0.00  0.00    +0.122 C 
ATOM     20  C   UNL     1      35.036 -21.447 -19.054  0.00  0.00    +0.017 C 
ATOM     21  C   UNL     1      37.243 -20.479 -18.880  0.00  0.00    +0.017 C 
ATOM     22  C   UNL     1      34.757 -20.615 -20.137  0.00  0.00    +0.021 C 
ATOM     23  C   UNL     1      36.964 -19.647 -19.963  0.00  0.00    +0.021 C 
BRANCH  19  24
ATOM     24  S   UNL     1      35.371 -18.673 -21.949  0.00  0.00    +0.057 S 
ATOM     25  O   UNL     1      34.448 -19.367 -22.835  0.00  0.00    -0.153 OA
ATOM     26  O   UNL     1      35.032 -17.351 -21.443  0.00  0.00    -0.153 OA
BRANCH  24  27
ATOM     27  N   UNL     1      36.903 -18.594 -22.702  0.00  0.00    -0.203 NA
ATOM     28  H   UNL     1      37.624 -18.869 -22.036  0.00  0.00    +0.144 HD
ATOM     29  H   UNL     1      37.078 -17.639 -23.019  0.00  0.00    +0.144 HD
ENDBRANCH  24  27
ENDBRANCH  19  24
ENDBRANCH   1  18
TORSDOF 4
ENDMDL
MODEL 9
REMARK VINA RESULT:      -9.0      8.845     12.121
REMARK  Name = 5288527
REMARK  4 active torsions:
REMARK  status: ('A' for Active; 'I' for Inactive)
REMARK    1  A    between atoms: N_1  and  C_18
REMARK    2  A    between atoms: C_4  and  C_11
REMARK    3  A    between atoms: C_19  and  S_24
REMARK    4  A    between atoms: S_24  and  N_27
REMARK                            x       y       z     vdW  Elec       q    Type
REMARK                         _______ _______ _______ _____ _____    ______ ____
ROOT
ATOM      1  N   UNL     1      34.642 -16.912 -24.302  0.00  0.00    -0.247 N 
ATOM      2  N   UNL     1      33.735 -15.090 -23.136  0.00  0.00    -0.336 NA
ATOM      3  N   UNL     1      33.995 -15.021 -25.531  0.00  0.00    -0.170 NA
ATOM      4  C   UNL     1      33.218 -13.846 -23.198  0.00  0.00    +0.161 C 
ATOM      5  C   UNL     1      34.097 -15.610 -24.324  0.00  0.00    +0.149 C 
ATOM      6  C   UNL     1      33.060 -13.133 -24.366  0.00  0.00    +0.056 C 
ATOM      7  C   UNL     1      33.470 -13.778 -25.515  0.00  0.00    +0.114 C 
ATOM      8  H   UNL     1      34.893 -17.251 -25.192  0.00  0.00    +0.165 HD
ENDROOT
BRANCH   4  11
ATOM      9  N   UNL     1      32.438 -11.995 -21.715  0.00  0.00    -0.246 N 
ATOM     10  N   UNL     1      32.350 -13.011 -19.723  0.00  0.00    -0.227 NA
ATOM     11  C   UNL     1      32.832 -13.292 -21.922  0.00  0.00    +0.107 C 
ATOM     12  C   UNL     1      32.155 -11.873 -20.356  0.00  0.00    +0.139 C 
ATOM     13  C   UNL     1      32.768 -13.893 -20.687  0.00  0.00    +0.118 C 
ATOM     14  C   UNL     1      32.319 -10.948 -22.624  0.00  0.00    +0.071 C 
ATOM     15  C   UNL     1      31.720 -10.594 -19.900  0.00  0.00    +0.035 C 
ATOM     16  C   UNL     1      31.910  -9.747 -22.186  0.00  0.00    +0.017 C 
ATOM     17  C   UNL     1      31.603  -9.576 -20.775  0.00  0.00    +0.004 C 
ENDBRANCH   4  11
BRANCH   1  18
ATOM     18  C   UNL     1      34.897 -17.821 -23.258  0.00  0.00    +0.058 C 
ATOM     19  C   UNL     1      35.402 -19.625 -21.187  0.00  0.00    +0.122 C 
ATOM     20  C   UNL     1      35.808 -17.494 -22.251  0.00  0.00    +0.017 C 
ATOM     21  C   UNL     1      34.240 -19.053 -23.226  0.00  0.00    +0.017 C 
ATOM     22  C   UNL     1      36.060 -18.394 -21.217  0.00  0.00    +0.021 C 
ATOM     23  C   UNL     1      34.492 -19.953 -22.192  0.00  0.00    +0.021 C 
BRANCH  19  24
ATOM     24  S   UNL     1      35.718 -20.753 -19.893  0.00  0.00    +0.057 S 
ATOM     25  O   UNL     1      35.961 -22.065 -20.477  0.00  0.00    -0.153 OA
ATOM     26  O   UNL     1      36.704 -20.166 -18.997  0.00  0.00    -0.153 OA
BRANCH  24  27
ATOM     27  N   UNL     1      34.203 -20.774 -19.102  0.00  0.00    -0.203 NA
ATOM     28  H   UNL     1      34.082 -21.667 -18.625  0.00  0.00    +0.144 HD
ATOM     29  H   UNL     1      33.459 -20.651 -19.789  0.00  0.00    +0.144 HD
ENDBRANCH  24  27
ENDBRANCH  19  24
ENDBRANCH   1  18
TORSDOF 4
ENDMDL
