MODEL 1
REMARK VINA RESULT:     -10.8      0.000      0.000
REMARK  Name = 54713659
REMARK  4 active torsions:
REMARK  status: ('A' for Active; 'I' for Inactive)
REMARK    1  A    between atoms: C_14  and  O_30
REMARK    2  A    between atoms: C_15  and  C_19
REMARK    3  A    between atoms: N_18  and  C_21
REMARK    4  A    between atoms: C_21  and  C_24
REMARK                            x       y       z     vdW  Elec       q    Type
REMARK                         _______ _______ _______ _____ _____    ______ ____
ROOT
ATOM      1  O   UNL     1      33.004  -6.811 -23.110  0.00  0.00    -0.334 OA
ATOM      2  O   UNL     1      31.276  -9.491 -19.807  0.00  0.00    -0.268 OA
ATOM      3  O   UNL     1      32.822 -14.168 -21.211  0.00  0.00    -0.283 OA
ATOM      4  N   UNL     1      32.294  -8.233 -21.443  0.00  0.00    -0.251 N 
ATOM      5  N   UNL     1      32.752 -10.505 -22.955  0.00  0.00    -0.275 N 
ATOM      6  C   UNL     1      33.140  -8.146 -22.604  0.00  0.00    +0.215 C 
ATOM      7  C   UNL     1      31.856  -6.918 -21.048  0.00  0.00    +0.107 C 
ATOM      8  C   UNL     1      32.719  -9.193 -23.613  0.00  0.00    +0.147 C 
ATOM      9  C   UNL     1      31.939  -6.178 -22.372  0.00  0.00    +0.164 C 
ATOM     10  C   UNL     1      31.934  -9.421 -20.843  0.00  0.00    +0.268 C 
ATOM     11  C   UNL     1      32.374 -10.653 -21.607  0.00  0.00    +0.143 C 
ATOM     12  C   UNL     1      32.779  -6.325 -19.988  0.00  0.00    +0.024 C 
ATOM     13  C   UNL     1      33.105 -11.637 -23.674  0.00  0.00    +0.074 C 
ATOM     14  C   UNL     1      32.375 -11.846 -20.975  0.00  0.00    +0.191 C 
ATOM     15  C   UNL     1      33.148 -12.879 -23.175  0.00  0.00    +0.110 C 
ATOM     16  C   UNL     1      32.788 -13.062 -21.744  0.00  0.00    +0.236 C 
ENDROOT
BRANCH  15  19
ATOM     17  O   UNL     1      33.171 -14.013 -25.231  0.00  0.00    -0.270 OA
ATOM     18  N   UNL     1      34.354 -14.910 -23.434  0.00  0.00    -0.297 N 
ATOM     19  C   UNL     1      33.546 -13.974 -24.059  0.00  0.00    +0.251 C 
ATOM     20  H   UNL     1      34.585 -14.767 -22.487  0.00  0.00    +0.150 HD
BRANCH  18  21
ATOM     21  C   UNL     1      34.874 -16.084 -24.097  0.00  0.00    +0.119 C 
BRANCH  21  24
ATOM     22  F   UNL     1      33.938 -18.672 -24.753  0.00  0.00    -0.204 F 
ATOM     23  F   UNL     1      35.290 -20.470 -20.590  0.00  0.00    -0.204 F 
ATOM     24  C   UNL     1      34.984 -17.254 -23.163  0.00  0.00    +0.025 C 
ATOM     25  C   UNL     1      34.501 -18.505 -23.548  0.00  0.00    +0.140 C 
ATOM     26  C   UNL     1      35.571 -17.090 -21.907  0.00  0.00    +0.002 C 
ATOM     27  C   UNL     1      34.605 -19.591 -22.680  0.00  0.00    +0.059 C 
ATOM     28  C   UNL     1      35.673 -18.177 -21.038  0.00  0.00    +0.030 C 
ATOM     29  C   UNL     1      35.191 -19.427 -21.424  0.00  0.00    +0.142 C 
ENDBRANCH  21  24
ENDBRANCH  18  21
ENDBRANCH  15  19
BRANCH  14  30
ATOM     30  O   UNL     1      32.028 -12.017 -19.654  0.00  0.00    -0.502 OA
ATOM     31  H   UNL     1      32.646 -11.823 -18.977  0.00  0.00    +0.292 HD
ENDBRANCH  14  30
TORSDOF 4
ENDMDL
MODEL 2
REMARK VINA RESULT:     -10.7      2.811      4.964
REMARK  Name = 54713659
REMARK  4 active torsions:
REMARK  status: ('A' for Active; 'I' for Inactive)
REMARK    1  A    between atoms: C_14  and  O_30
REMARK    2  A    between atoms: C_15  and  C_19
REMARK    3  A    between atoms: N_18  and  C_21
REMARK    4  A    between atoms: C_21  and  C_24
REMARK                            x       y       z     vdW  Elec       q    Type
REMARK                         _______ _______ _______ _____ _____    ______ ____
ROOT
ATOM      1  O   UNL     1      32.226 -12.229 -19.518  0.00  0.00    -0.334 OA
ATOM      2  O   UNL     1      33.030 -12.069 -24.035  0.00  0.00    -0.268 OA
ATOM      3  O   UNL     1      34.714 -16.797 -25.059  0.00  0.00    -0.283 OA
ATOM      4  N   UNL     1      32.545 -12.301 -21.798  0.00  0.00    -0.251 N 
ATOM      5  N   UNL     1      33.998 -14.653 -21.689  0.00  0.00    -0.275 N 
ATOM      6  C   UNL     1      32.472 -13.118 -20.615  0.00  0.00    +0.215 C 
ATOM      7  C   UNL     1      32.073 -10.969 -21.511  0.00  0.00    +0.107 C 
ATOM      8  C   UNL     1      33.765 -13.890 -20.457  0.00  0.00    +0.147 C 
ATOM      9  C   UNL     1      32.349 -10.883 -20.020  0.00  0.00    +0.164 C 
ATOM     10  C   UNL     1      33.040 -12.743 -23.007  0.00  0.00    +0.268 C 
ATOM     11  C   UNL     1      33.659 -14.124 -22.949  0.00  0.00    +0.143 C 
ATOM     12  C   UNL     1      30.590 -10.827 -21.841  0.00  0.00    +0.024 C 
ATOM     13  C   UNL     1      34.614 -15.895 -21.635  0.00  0.00    +0.074 C 
ATOM     14  C   UNL     1      33.876 -14.789 -24.104  0.00  0.00    +0.191 C 
ATOM     15  C   UNL     1      34.888 -16.660 -22.698  0.00  0.00    +0.110 C 
ATOM     16  C   UNL     1      34.511 -16.144 -24.039  0.00  0.00    +0.236 C 
ENDROOT
BRANCH  15  19
ATOM     17  O   UNL     1      35.857 -18.673 -23.426  0.00  0.00    -0.270 OA
ATOM     18  N   UNL     1      35.733 -18.242 -21.139  0.00  0.00    -0.297 N 
ATOM     19  C   UNL     1      35.538 -17.953 -22.479  0.00  0.00    +0.251 C 
ATOM     20  H   UNL     1      35.434 -17.583 -20.471  0.00  0.00    +0.150 HD
BRANCH  18  21
ATOM     21  C   UNL     1      36.353 -19.460 -20.667  0.00  0.00    +0.119 C 
BRANCH  21  24
ATOM     22  F   UNL     1      37.129 -21.463 -18.826  0.00  0.00    -0.204 F 
ATOM     23  F   UNL     1      32.661 -22.839 -18.087  0.00  0.00    -0.204 F 
ATOM     24  C   UNL     1      35.370 -20.361 -19.978  0.00  0.00    +0.025 C 
ATOM     25  C   UNL     1      35.819 -21.330 -19.081  0.00  0.00    +0.140 C 
ATOM     26  C   UNL     1      34.005 -20.230 -20.237  0.00  0.00    +0.002 C 
ATOM     27  C   UNL     1      34.905 -22.167 -18.442  0.00  0.00    +0.059 C 
ATOM     28  C   UNL     1      33.091 -21.067 -19.598  0.00  0.00    +0.030 C 
ATOM     29  C   UNL     1      33.540 -22.035 -18.700  0.00  0.00    +0.142 C 
ENDBRANCH  21  24
ENDBRANCH  18  21
ENDBRANCH  15  19
BRANCH  14  30
ATOM     30  O   UNL     1      33.539 -14.304 -25.347  0.00  0.00    -0.502 OA
ATOM     31  H   UNL     1      32.922 -13.603 -25.425  0.00  0.00    +0.292 HD
ENDBRANCH  14  30
TORSDOF 4
ENDMDL
MODEL 3
REMARK VINA RESULT:     -10.1      5.353     10.532
REMARK  Name = 54713659
REMARK  4 active torsions:
REMARK  status: ('A' for Active; 'I' for Inactive)
REMARK    1  A    between atoms: C_14  and  O_30
REMARK    2  A    between atoms: C_15  and  C_19
REMARK    3  A    between atoms: N_18  and  C_21
REMARK    4  A    between atoms: C_21  and  C_24
REMARK                            x       y       z     vdW  Elec       q    Type
REMARK                         _______ _______ _______ _____ _____    ______ ____
ROOT
ATOM      1  O   UNL     1      31.998 -22.832 -17.526  0.00  0.00    -0.334 OA
ATOM      2  O   UNL     1      36.571 -22.433 -17.436  0.00  0.00    -0.268 OA
ATOM      3  O   UNL     1      37.456 -18.725 -20.857  0.00  0.00    -0.283 OA
ATOM      4  N   UNL     1      34.270 -22.458 -17.472  0.00  0.00    -0.251 N 
ATOM      5  N   UNL     1      34.254 -20.988 -19.815  0.00  0.00    -0.275 N 
ATOM      6  C   UNL     1      33.024 -21.930 -17.961  0.00  0.00    +0.215 C 
ATOM      7  C   UNL     1      34.023 -23.504 -16.510  0.00  0.00    +0.107 C 
ATOM      8  C   UNL     1      33.087 -21.809 -19.469  0.00  0.00    +0.147 C 
ATOM      9  C   UNL     1      32.652 -23.983 -16.955  0.00  0.00    +0.164 C 
ATOM     10  C   UNL     1      35.508 -22.037 -17.910  0.00  0.00    +0.268 C 
ATOM     11  C   UNL     1      35.450 -21.075 -19.078  0.00  0.00    +0.143 C 
ATOM     12  C   UNL     1      34.017 -22.954 -15.088  0.00  0.00    +0.024 C 
ATOM     13  C   UNL     1      34.213 -20.148 -20.919  0.00  0.00    +0.074 C 
ATOM     14  C   UNL     1      36.548 -20.350 -19.380  0.00  0.00    +0.191 C 
ATOM     15  C   UNL     1      35.225 -19.375 -21.330  0.00  0.00    +0.110 C 
ATOM     16  C   UNL     1      36.491 -19.419 -20.551  0.00  0.00    +0.236 C 
ENDROOT
BRANCH  15  19
ATOM     17  O   UNL     1      34.636 -19.018 -23.576  0.00  0.00    -0.270 OA
ATOM     18  N   UNL     1      35.327 -17.203 -22.287  0.00  0.00    -0.297 N 
ATOM     19  C   UNL     1      35.028 -18.536 -22.512  0.00  0.00    +0.251 C 
ATOM     20  H   UNL     1      35.634 -16.939 -21.389  0.00  0.00    +0.150 HD
BRANCH  18  21
ATOM     21  C   UNL     1      35.214 -16.178 -23.300  0.00  0.00    +0.119 C 
BRANCH  21  24
ATOM     22  F   UNL     1      33.680 -14.613 -25.089  0.00  0.00    -0.204 F 
ATOM     23  F   UNL     1      31.969 -11.897 -21.612  0.00  0.00    -0.204 F 
ATOM     24  C   UNL     1      34.349 -15.036 -22.851  0.00  0.00    +0.025 C 
ATOM     25  C   UNL     1      33.617 -14.304 -23.786  0.00  0.00    +0.140 C 
ATOM     26  C   UNL     1      34.276 -14.708 -21.497  0.00  0.00    +0.002 C 
ATOM     27  C   UNL     1      32.813 -13.244 -23.368  0.00  0.00    +0.059 C 
ATOM     28  C   UNL     1      33.473 -13.647 -21.079  0.00  0.00    +0.030 C 
ATOM     29  C   UNL     1      32.741 -12.915 -22.014  0.00  0.00    +0.142 C 
ENDBRANCH  21  24
ENDBRANCH  18  21
ENDBRANCH  15  19
BRANCH  14  30
ATOM     30  O   UNL     1      37.725 -20.402 -18.667  0.00  0.00    -0.502 OA
ATOM     31  H   UNL     1      38.472 -20.837 -19.026  0.00  0.00    +0.292 HD
ENDBRANCH  14  30
TORSDOF 4
ENDMDL
MODEL 4
REMARK VINA RESULT:     -10.1      7.949     11.611
REMARK  Name = 54713659
REMARK  4 active torsions:
REMARK  status: ('A' for Active; 'I' for Inactive)
REMARK    1  A    between atoms: C_14  and  O_30
REMARK    2  A    between atoms: C_15  and  C_19
REMARK    3  A    between atoms: N_18  and  C_21
REMARK    4  A    between atoms: C_21  and  C_24
REMARK                            x       y       z     vdW  Elec       q    Type
REMARK                         _______ _______ _______ _____ _____    ______ ____
ROOT
ATOM      1  O   UNL     1      37.937 -18.669 -20.693  0.00  0.00    -0.334 OA
ATOM      2  O   UNL     1      33.667 -19.973 -21.764  0.00  0.00    -0.268 OA
ATOM      3  O   UNL     1      32.237 -22.673 -17.653  0.00  0.00    -0.283 OA
ATOM      4  N   UNL     1      35.746 -19.272 -21.070  0.00  0.00    -0.251 N 
ATOM      5  N   UNL     1      35.733 -21.139 -19.027  0.00  0.00    -0.275 N 
ATOM      6  C   UNL     1      36.772 -19.218 -20.062  0.00  0.00    +0.215 C 
ATOM      7  C   UNL     1      36.148 -18.514 -22.228  0.00  0.00    +0.107 C 
ATOM      8  C   UNL     1      37.013 -20.609 -19.515  0.00  0.00    +0.147 C 
ATOM      9  C   UNL     1      37.660 -18.583 -22.105  0.00  0.00    +0.164 C 
ATOM     10  C   UNL     1      34.576 -19.990 -20.936  0.00  0.00    +0.268 C 
ATOM     11  C   UNL     1      34.526 -20.858 -19.697  0.00  0.00    +0.143 C 
ATOM     12  C   UNL     1      35.620 -17.085 -22.162  0.00  0.00    +0.024 C 
ATOM     13  C   UNL     1      35.700 -21.977 -17.922  0.00  0.00    +0.074 C 
ATOM     14  C   UNL     1      33.334 -21.343 -19.288  0.00  0.00    +0.191 C 
ATOM     15  C   UNL     1      34.592 -22.526 -17.411  0.00  0.00    +0.110 C 
ATOM     16  C   UNL     1      33.298 -22.220 -18.075  0.00  0.00    +0.236 C 
ENDROOT
BRANCH  15  19
ATOM     17  O   UNL     1      34.322 -24.553 -16.256  0.00  0.00    -0.270 OA
ATOM     18  N   UNL     1      35.306 -22.749 -15.156  0.00  0.00    -0.297 N 
ATOM     19  C   UNL     1      34.717 -23.387 -16.235  0.00  0.00    +0.251 C 
ATOM     20  H   UNL     1      35.581 -21.810 -15.263  0.00  0.00    +0.150 HD
BRANCH  18  21
ATOM     21  C   UNL     1      35.537 -23.388 -13.880  0.00  0.00    +0.119 C 
BRANCH  21  24
ATOM     22  F   UNL     1      36.135 -25.393 -11.975  0.00  0.00    -0.204 F 
ATOM     23  F   UNL     1      40.459 -26.121 -13.756  0.00  0.00    -0.204 F 
ATOM     24  C   UNL     1      36.849 -24.117 -13.846  0.00  0.00    +0.025 C 
ATOM     25  C   UNL     1      37.080 -25.096 -12.879  0.00  0.00    +0.140 C 
ATOM     26  C   UNL     1      37.838 -23.816 -14.783  0.00  0.00    +0.002 C 
ATOM     27  C   UNL     1      38.299 -25.773 -12.848  0.00  0.00    +0.059 C 
ATOM     28  C   UNL     1      39.057 -24.492 -14.752  0.00  0.00    +0.030 C 
ATOM     29  C   UNL     1      39.288 -25.471 -13.785  0.00  0.00    +0.142 C 
ENDBRANCH  21  24
ENDBRANCH  18  21
ENDBRANCH  15  19
BRANCH  14  30
ATOM     30  O   UNL     1      32.138 -21.071 -19.912  0.00  0.00    -0.502 OA
ATOM     31  H   UNL     1      31.339 -21.094 -19.425  0.00  0.00    +0.292 HD
ENDBRANCH  14  30
TORSDOF 4
ENDMDL
MODEL 5
REMARK VINA RESULT:     -10.0      1.592      2.078
REMARK  Name = 54713659
REMARK  4 active torsions:
REMARK  status: ('A' for Active; 'I' for Inactive)
REMARK    1  A    between atoms: C_14  and  O_30
REMARK    2  A    between atoms: C_15  and  C_19
REMARK    3  A    between atoms: N_18  and  C_21
REMARK    4  A    between atoms: C_21  and  C_24
REMARK                            x       y       z     vdW  Elec       q    Type
REMARK                         _______ _______ _______ _____ _____    ______ ____
ROOT
ATOM      1  O   UNL     1      32.979  -8.366 -24.018  0.00  0.00    -0.334 OA
ATOM      2  O   UNL     1      31.366 -10.614 -20.355  0.00  0.00    -0.268 OA
ATOM      3  O   UNL     1      33.617 -15.198 -20.751  0.00  0.00    -0.283 OA
ATOM      4  N   UNL     1      32.334  -9.545 -22.147  0.00  0.00    -0.251 N 
ATOM      5  N   UNL     1      33.203 -11.966 -23.168  0.00  0.00    -0.275 N 
ATOM      6  C   UNL     1      33.249  -9.552 -23.258  0.00  0.00    +0.215 C 
ATOM      7  C   UNL     1      31.698  -8.256 -22.035  0.00  0.00    +0.107 C 
ATOM      8  C   UNL     1      33.049 -10.816 -24.067  0.00  0.00    +0.147 C 
ATOM      9  C   UNL     1      31.786  -7.768 -23.471  0.00  0.00    +0.164 C 
ATOM     10  C   UNL     1      32.088 -10.642 -21.349  0.00  0.00    +0.268 C 
ATOM     11  C   UNL     1      32.744 -11.917 -21.838  0.00  0.00    +0.143 C 
ATOM     12  C   UNL     1      32.450  -7.353 -21.063  0.00  0.00    +0.024 C 
ATOM     13  C   UNL     1      33.756 -13.148 -23.637  0.00  0.00    +0.074 C 
ATOM     14  C   UNL     1      32.852 -12.961 -20.989  0.00  0.00    +0.191 C 
ATOM     15  C   UNL     1      33.923 -14.257 -22.907  0.00  0.00    +0.110 C 
ATOM     16  C   UNL     1      33.480 -14.226 -21.488  0.00  0.00    +0.236 C 
ENDROOT
BRANCH  15  19
ATOM     17  O   UNL     1      34.532 -15.556 -24.767  0.00  0.00    -0.270 OA
ATOM     18  N   UNL     1      35.066 -16.322 -22.631  0.00  0.00    -0.297 N 
ATOM     19  C   UNL     1      34.529 -15.428 -23.542  0.00  0.00    +0.251 C 
ATOM     20  H   UNL     1      35.001 -16.107 -21.672  0.00  0.00    +0.150 HD
BRANCH  18  21
ATOM     21  C   UNL     1      35.717 -17.555 -23.013  0.00  0.00    +0.119 C 
BRANCH  21  24
ATOM     22  F   UNL     1      38.015 -18.350 -21.566  0.00  0.00    -0.204 F 
ATOM     23  F   UNL     1      35.562 -21.385 -18.888  0.00  0.00    -0.204 F 
ATOM     24  C   UNL     1      35.677 -18.576 -21.913  0.00  0.00    +0.025 C 
ATOM     25  C   UNL     1      36.848 -18.924 -21.239  0.00  0.00    +0.140 C 
ATOM     26  C   UNL     1      34.467 -19.178 -21.565  0.00  0.00    +0.002 C 
ATOM     27  C   UNL     1      36.810 -19.872 -20.217  0.00  0.00    +0.059 C 
ATOM     28  C   UNL     1      34.430 -20.127 -20.544  0.00  0.00    +0.030 C 
ATOM     29  C   UNL     1      35.600 -20.474 -19.869  0.00  0.00    +0.142 C 
ENDBRANCH  21  24
ENDBRANCH  18  21
ENDBRANCH  15  19
BRANCH  14  30
ATOM     30  O   UNL     1      32.429 -12.935 -19.680  0.00  0.00    -0.502 OA
ATOM     31  H   UNL     1      32.422 -13.723 -19.173  0.00  0.00    +0.292 HD
ENDBRANCH  14  30
TORSDOF 4
ENDMDL
MODEL 6
REMARK VINA RESULT:     -10.0      6.726     11.770
REMARK  Name = 54713659
REMARK  4 active torsions:
REMARK  status: ('A' for Active; 'I' for Inactive)
REMARK    1  A    between atoms: C_14  and  O_30
REMARK    2  A    between atoms: C_15  and  C_19
REMARK    3  A    between atoms: N_18  and  C_21
REMARK    4  A    between atoms: C_21  and  C_24
REMARK                            x       y       z     vdW  Elec       q    Type
REMARK                         _______ _______ _______ _____ _____    ______ ____
ROOT
ATOM      1  O   UNL     1      31.548 -23.838 -14.700  0.00  0.00    -0.334 OA
ATOM      2  O   UNL     1      36.091 -23.907 -15.360  0.00  0.00    -0.268 OA
ATOM      3  O   UNL     1      36.713 -20.719 -19.321  0.00  0.00    -0.283 OA
ATOM      4  N   UNL     1      33.822 -23.698 -15.041  0.00  0.00    -0.251 N 
ATOM      5  N   UNL     1      33.545 -22.507 -17.523  0.00  0.00    -0.275 N 
ATOM      6  C   UNL     1      32.561 -23.102 -15.398  0.00  0.00    +0.215 C 
ATOM      7  C   UNL     1      33.648 -24.597 -13.927  0.00  0.00    +0.107 C 
ATOM      8  C   UNL     1      32.386 -23.158 -16.901  0.00  0.00    +0.147 C 
ATOM      9  C   UNL     1      32.188 -24.979 -14.093  0.00  0.00    +0.164 C 
ATOM     10  C   UNL     1      35.002 -23.458 -15.713  0.00  0.00    +0.268 C 
ATOM     11  C   UNL     1      34.835 -22.634 -16.972  0.00  0.00    +0.143 C 
ATOM     12  C   UNL     1      33.922 -23.892 -12.602  0.00  0.00    +0.024 C 
ATOM     13  C   UNL     1      33.395 -21.797 -18.705  0.00  0.00    +0.074 C 
ATOM     14  C   UNL     1      35.926 -22.064 -17.527  0.00  0.00    +0.191 C 
ATOM     15  C   UNL     1      34.388 -21.184 -19.361  0.00  0.00    +0.110 C 
ATOM     16  C   UNL     1      35.756 -21.271 -18.786  0.00  0.00    +0.236 C 
ENDROOT
BRANCH  15  19
ATOM     17  O   UNL     1      32.904 -20.244 -20.921  0.00  0.00    -0.270 OA
ATOM     18  N   UNL     1      35.197 -20.098 -21.313  0.00  0.00    -0.297 N 
ATOM     19  C   UNL     1      34.071 -20.468 -20.597  0.00  0.00    +0.251 C 
ATOM     20  H   UNL     1      36.080 -20.335 -20.949  0.00  0.00    +0.150 HD
BRANCH  18  21
ATOM     21  C   UNL     1      35.145 -19.382 -22.569  0.00  0.00    +0.119 C 
BRANCH  21  24
ATOM     22  F   UNL     1      34.650 -17.580 -24.692  0.00  0.00    -0.204 F 
ATOM     23  F   UNL     1      34.594 -13.831 -21.805  0.00  0.00    -0.204 F 
ATOM     24  C   UNL     1      34.998 -17.902 -22.366  0.00  0.00    +0.025 C 
ATOM     25  C   UNL     1      34.755 -17.068 -23.458  0.00  0.00    +0.140 C 
ATOM     26  C   UNL     1      35.104 -17.360 -21.085  0.00  0.00    +0.002 C 
ATOM     27  C   UNL     1      34.618 -15.693 -23.269  0.00  0.00    +0.059 C 
ATOM     28  C   UNL     1      34.968 -15.985 -20.896  0.00  0.00    +0.030 C 
ATOM     29  C   UNL     1      34.725 -15.151 -21.987  0.00  0.00    +0.142 C 
ENDBRANCH  21  24
ENDBRANCH  18  21
ENDBRANCH  15  19
BRANCH  14  30
ATOM     30  O   UNL     1      37.194 -22.157 -17.001  0.00  0.00    -0.502 OA
ATOM     31  H   UNL     1      37.439 -22.907 -16.497  0.00  0.00    +0.292 HD
ENDBRANCH  14  30
TORSDOF 4
ENDMDL
MODEL 7
REMARK VINA RESULT:      -9.5      9.390     13.140
REMARK  Name = 54713659
REMARK  4 active torsions:
REMARK  status: ('A' for Active; 'I' for Inactive)
REMARK    1  A    between atoms: C_14  and  O_30
REMARK    2  A    between atoms: C_15  and  C_19
REMARK    3  A    between atoms: N_18  and  C_21
REMARK    4  A    between atoms: C_21  and  C_24
REMARK                            x       y       z     vdW  Elec       q    Type
REMARK                         _______ _______ _______ _____ _____    ______ ____
ROOT
ATOM      1  O   UNL     1      30.224 -23.803 -15.605  0.00  0.00    -0.334 OA
ATOM      2  O   UNL     1      33.333 -25.105 -12.489  0.00  0.00    -0.268 OA
ATOM      3  O   UNL     1      37.575 -22.686 -14.037  0.00  0.00    -0.283 OA
ATOM      4  N   UNL     1      31.832 -24.288 -14.029  0.00  0.00    -0.251 N 
ATOM      5  N   UNL     1      33.904 -23.377 -15.620  0.00  0.00    -0.275 N 
ATOM      6  C   UNL     1      31.535 -23.439 -15.153  0.00  0.00    +0.215 C 
ATOM      7  C   UNL     1      30.639 -24.971 -13.594  0.00  0.00    +0.107 C 
ATOM      8  C   UNL     1      32.589 -23.631 -16.222  0.00  0.00    +0.147 C 
ATOM      9  C   UNL     1      29.832 -24.987 -14.880  0.00  0.00    +0.164 C 
ATOM     10  C   UNL     1      33.094 -24.440 -13.495  0.00  0.00    +0.268 C 
ATOM     11  C   UNL     1      34.185 -23.760 -14.295  0.00  0.00    +0.143 C 
ATOM     12  C   UNL     1      29.943 -24.204 -12.475  0.00  0.00    +0.024 C 
ATOM     13  C   UNL     1      34.916 -22.802 -16.374  0.00  0.00    +0.074 C 
ATOM     14  C   UNL     1      35.388 -23.559 -13.716  0.00  0.00    +0.191 C 
ATOM     15  C   UNL     1      36.152 -22.546 -15.928  0.00  0.00    +0.110 C 
ATOM     16  C   UNL     1      36.469 -22.907 -14.522  0.00  0.00    +0.236 C 
ENDROOT
BRANCH  15  19
ATOM     17  O   UNL     1      38.325 -22.017 -16.649  0.00  0.00    -0.270 OA
ATOM     18  N   UNL     1      36.506 -21.265 -17.898  0.00  0.00    -0.297 N 
ATOM     19  C   UNL     1      37.112 -21.928 -16.844  0.00  0.00    +0.251 C 
ATOM     20  H   UNL     1      35.522 -21.265 -17.945  0.00  0.00    +0.150 HD
BRANCH  18  21
ATOM     21  C   UNL     1      37.240 -20.574 -18.934  0.00  0.00    +0.119 C 
BRANCH  21  24
ATOM     22  F   UNL     1      38.048 -18.667 -20.862  0.00  0.00    -0.204 F 
ATOM     23  F   UNL     1      33.867 -18.794 -23.077  0.00  0.00    -0.204 F 
ATOM     24  C   UNL     1      36.342 -20.099 -20.039  0.00  0.00    +0.025 C 
ATOM     25  C   UNL     1      36.803 -19.155 -20.957  0.00  0.00    +0.140 C 
ATOM     26  C   UNL     1      35.045 -20.602 -20.147  0.00  0.00    +0.002 C 
ATOM     27  C   UNL     1      35.968 -18.715 -21.983  0.00  0.00    +0.059 C 
ATOM     28  C   UNL     1      34.210 -20.160 -21.172  0.00  0.00    +0.030 C 
ATOM     29  C   UNL     1      34.670 -19.217 -22.091  0.00  0.00    +0.142 C 
ENDBRANCH  21  24
ENDBRANCH  18  21
ENDBRANCH  15  19
BRANCH  14  30
ATOM     30  O   UNL     1      35.685 -23.906 -12.418  0.00  0.00    -0.502 OA
ATOM     31  H   UNL     1      35.717 -23.249 -11.751  0.00  0.00    +0.292 HD
ENDBRANCH  14  30
TORSDOF 4
ENDMDL
MODEL 8
REMARK VINA RESULT:      -9.5      3.091      5.668
REMARK  Name = 54713659
REMARK  4 active torsions:
REMARK  status: ('A' for Active; 'I' for Inactive)
REMARK    1  A    between atoms: C_14  and  O_30
REMARK    2  A    between atoms: C_15  and  C_19
REMARK    3  A    between atoms: N_18  and  C_21
REMARK    4  A    between atoms: C_21  and  C_24
REMARK                            x       y       z     vdW  Elec       q    Type
REMARK                         _______ _______ _______ _____ _____    ______ ____
ROOT
ATOM      1  O   UNL     1      30.483  -2.808 -23.862  0.00  0.00    -0.334 OA
ATOM      2  O   UNL     1      34.554  -4.562 -25.057  0.00  0.00    -0.268 OA
ATOM      3  O   UNL     1      34.258  -9.384 -23.355  0.00  0.00    -0.283 OA
ATOM      4  N   UNL     1      32.440  -3.828 -24.524  0.00  0.00    -0.251 N 
ATOM      5  N   UNL     1      32.061  -6.009 -22.865  0.00  0.00    -0.275 N 
ATOM      6  C   UNL     1      31.129  -4.082 -23.986  0.00  0.00    +0.215 C 
ATOM      7  C   UNL     1      32.525  -2.470 -25.002  0.00  0.00    +0.107 C 
ATOM      8  C   UNL     1      31.261  -4.795 -22.657  0.00  0.00    +0.147 C 
ATOM      9  C   UNL     1      31.472  -1.796 -24.139  0.00  0.00    +0.164 C 
ATOM     10  C   UNL     1      33.461  -4.754 -24.528  0.00  0.00    +0.268 C 
ATOM     11  C   UNL     1      33.141  -6.024 -23.767  0.00  0.00    +0.143 C 
ATOM     12  C   UNL     1      32.202  -2.388 -26.490  0.00  0.00    +0.024 C 
ATOM     13  C   UNL     1      31.796  -7.153 -22.126  0.00  0.00    +0.074 C 
ATOM     14  C   UNL     1      33.909  -7.115 -23.970  0.00  0.00    +0.191 C 
ATOM     15  C   UNL     1      32.476  -8.302 -22.225  0.00  0.00    +0.110 C 
ATOM     16  C   UNL     1      33.601  -8.360 -23.195  0.00  0.00    +0.236 C 
ENDROOT
BRANCH  15  19
ATOM     17  O   UNL     1      31.894  -9.281 -20.171  0.00  0.00    -0.270 OA
ATOM     18  N   UNL     1      31.933 -10.611 -22.085  0.00  0.00    -0.297 N 
ATOM     19  C   UNL     1      32.074  -9.427 -21.380  0.00  0.00    +0.251 C 
ATOM     20  H   UNL     1      32.106 -10.600 -23.054  0.00  0.00    +0.150 HD
BRANCH  18  21
ATOM     21  C   UNL     1      31.546 -11.862 -21.473  0.00  0.00    +0.119 C 
BRANCH  21  24
ATOM     22  F   UNL     1      32.449 -13.591 -19.424  0.00  0.00    -0.204 F 
ATOM     23  F   UNL     1      35.370 -15.903 -22.343  0.00  0.00    -0.204 F 
ATOM     24  C   UNL     1      32.566 -12.940 -21.703  0.00  0.00    +0.025 C 
ATOM     25  C   UNL     1      32.969 -13.759 -20.648  0.00  0.00    +0.140 C 
ATOM     26  C   UNL     1      33.111 -13.122 -22.975  0.00  0.00    +0.002 C 
ATOM     27  C   UNL     1      33.915 -14.760 -20.864  0.00  0.00    +0.059 C 
ATOM     28  C   UNL     1      34.059 -14.123 -23.190  0.00  0.00    +0.030 C 
ATOM     29  C   UNL     1      34.460 -14.942 -22.135  0.00  0.00    +0.142 C 
ENDBRANCH  21  24
ENDBRANCH  18  21
ENDBRANCH  15  19
BRANCH  14  30
ATOM     30  O   UNL     1      34.959  -7.164 -24.858  0.00  0.00    -0.502 OA
ATOM     31  H   UNL     1      34.987  -7.829 -25.516  0.00  0.00    +0.292 HD
ENDBRANCH  14  30
TORSDOF 4
ENDMDL
MODEL 9
REMARK VINA RESULT:      -9.4      8.878     12.512
REMARK  Name = 54713659
REMARK  4 active torsions:
REMARK  status: ('A' for Active; 'I' for Inactive)
REMARK    1  A    between atoms: C_14  and  O_30
REMARK    2  A    between atoms: C_15  and  C_19
REMARK    3  A    between atoms: N_18  and  C_21
REMARK    4  A    between atoms: C_21  and  C_24
REMARK                            x       y       z     vdW  Elec       q    Type
REMARK                         _______ _______ _______ _____ _____    ______ ____
ROOT
ATOM      1  O   UNL     1      30.228 -23.738 -15.538  0.00  0.00    -0.334 OA
ATOM      2  O   UNL     1      34.116 -24.549 -13.236  0.00  0.00    -0.268 OA
ATOM      3  O   UNL     1      37.633 -22.105 -16.047  0.00  0.00    -0.283 OA
ATOM      4  N   UNL     1      32.216 -23.975 -14.399  0.00  0.00    -0.251 N 
ATOM      5  N   UNL     1      33.742 -23.138 -16.550  0.00  0.00    -0.275 N 
ATOM      6  C   UNL     1      31.580 -23.265 -15.478  0.00  0.00    +0.215 C 
ATOM      7  C   UNL     1      31.228 -24.664 -13.608  0.00  0.00    +0.107 C 
ATOM      8  C   UNL     1      32.340 -23.518 -16.763  0.00  0.00    +0.147 C 
ATOM      9  C   UNL     1      30.123 -24.856 -14.633  0.00  0.00    +0.164 C 
ATOM     10  C   UNL     1      33.580 -24.008 -14.201  0.00  0.00    +0.268 C 
ATOM     11  C   UNL     1      34.378 -23.364 -15.315  0.00  0.00    +0.143 C 
ATOM     12  C   UNL     1      30.783 -23.818 -12.420  0.00  0.00    +0.024 C 
ATOM     13  C   UNL     1      34.483 -22.597 -17.591  0.00  0.00    +0.074 C 
ATOM     14  C   UNL     1      35.670 -23.044 -15.090  0.00  0.00    +0.191 C 
ATOM     15  C   UNL     1      35.769 -22.236 -17.507  0.00  0.00    +0.110 C 
ATOM     16  C   UNL     1      36.459 -22.430 -16.205  0.00  0.00    +0.236 C 
ENDROOT
BRANCH  15  19
ATOM     17  O   UNL     1      36.770 -22.394 -19.626  0.00  0.00    -0.270 OA
ATOM     18  N   UNL     1      36.568 -20.298 -18.627  0.00  0.00    -0.297 N 
ATOM     19  C   UNL     1      36.415 -21.673 -18.693  0.00  0.00    +0.251 C 
ATOM     20  H   UNL     1      36.242 -19.831 -17.823  0.00  0.00    +0.150 HD
BRANCH  18  21
ATOM     21  C   UNL     1      37.180 -19.512 -19.674  0.00  0.00    +0.119 C 
BRANCH  21  24
ATOM     22  F   UNL     1      38.003 -18.323 -22.105  0.00  0.00    -0.204 F 
ATOM     23  F   UNL     1      33.704 -18.748 -24.037  0.00  0.00    -0.204 F 
ATOM     24  C   UNL     1      36.254 -19.308 -20.838  0.00  0.00    +0.025 C 
ATOM     25  C   UNL     1      36.724 -18.713 -22.009  0.00  0.00    +0.140 C 
ATOM     26  C   UNL     1      34.922 -19.712 -20.748  0.00  0.00    +0.002 C 
ATOM     27  C   UNL     1      35.864 -18.525 -23.090  0.00  0.00    +0.059 C 
ATOM     28  C   UNL     1      34.061 -19.522 -21.828  0.00  0.00    +0.030 C 
ATOM     29  C   UNL     1      34.531 -18.929 -23.000  0.00  0.00    +0.142 C 
ENDBRANCH  21  24
ENDBRANCH  18  21
ENDBRANCH  15  19
BRANCH  14  30
ATOM     30  O   UNL     1      36.313 -23.237 -13.888  0.00  0.00    -0.502 OA
ATOM     31  H   UNL     1      36.659 -22.504 -13.418  0.00  0.00    +0.292 HD
ENDBRANCH  14  30
TORSDOF 4
ENDMDL
