MODEL 1
REMARK VINA RESULT:     -11.4      0.000      0.000
REMARK  Name = 42628063
REMARK  6 active torsions:
REMARK  status: ('A' for Active; 'I' for Inactive)
REMARK    1  A    between atoms: C_1  and  N_3
REMARK    2  A    between atoms: C_1  and  C_21
REMARK    3  A    between atoms: C_4  and  N_10
REMARK    4  A    between atoms: C_11  and  C_15
REMARK    5  A    between atoms: N_20  and  C_24
REMARK    6  A    between atoms: C_27  and  N_31
REMARK                            x       y       z     vdW  Elec       q    Type
REMARK                         _______ _______ _______ _____ _____    ______ ____
ROOT
ATOM      1  C   UNL     1      34.045 -17.650 -24.191  0.00  0.00    +0.010 C 
ENDROOT
BRANCH   1   3
ATOM      2  F   UNL     1      37.154 -18.360 -21.049  0.00  0.00    -0.238 F 
ATOM      3  N   UNL     1      34.930 -18.288 -23.229  0.00  0.00    +0.396 N 
ATOM      4  C   UNL     1      35.285 -19.724 -21.444  0.00  0.00    +0.082 C 
ATOM      5  C   UNL     1      35.794 -18.342 -21.045  0.00  0.00    +0.156 C 
ATOM      6  C   UNL     1      34.316 -19.452 -22.588  0.00  0.00    -0.054 C 
ATOM      7  C   UNL     1      35.301 -17.392 -22.128  0.00  0.00    -0.039 C 
ATOM      8  H   UNL     1      35.745 -18.554 -23.781  0.00  0.00    -0.079 HD
BRANCH   4  10
ATOM      9  O   UNL     1      36.555 -21.521 -19.601  0.00  0.00    -0.270 OA
ATOM     10  N   UNL     1      34.656 -20.425 -20.359  0.00  0.00    -0.302 N 
ATOM     11  C   UNL     1      35.354 -21.280 -19.513  0.00  0.00    +0.252 C 
ATOM     12  H   UNL     1      33.693 -20.294 -20.208  0.00  0.00    +0.150 HD
BRANCH  11  15
ATOM     13 CL   UNL     1      33.861 -23.865 -14.857  0.00  0.00    -0.075 Cl
ATOM     14  S   UNL     1      35.346 -22.519 -17.047  0.00  0.00    -0.071 S 
ATOM     15  C   UNL     1      34.554 -21.948 -18.454  0.00  0.00    +0.084 C 
ATOM     16  C   UNL     1      33.200 -22.194 -18.421  0.00  0.00    +0.012 C 
ATOM     17  C   UNL     1      32.805 -22.861 -17.225  0.00  0.00    +0.019 C 
ATOM     18  C   UNL     1      33.875 -23.098 -16.389  0.00  0.00    +0.087 C 
ENDBRANCH  11  15
ENDBRANCH   4  10
ENDBRANCH   1   3
BRANCH   1  21
ATOM     19  O   UNL     1      35.471 -15.863 -24.961  0.00  0.00    -0.277 OA
ATOM     20  N   UNL     1      33.511 -15.359 -23.772  0.00  0.00    -0.284 N 
ATOM     21  C   UNL     1      34.452 -16.196 -24.366  0.00  0.00    +0.205 C 
ATOM     22  H   UNL     1      32.746 -15.801 -23.339  0.00  0.00    +0.155 HD
BRANCH  20  24
ATOM     23  F   UNL     1      33.402 -13.810 -26.087  0.00  0.00    -0.203 F 
ATOM     24  C   UNL     1      33.528 -13.944 -23.718  0.00  0.00    +0.078 C 
ATOM     25  C   UNL     1      33.472 -13.198 -24.896  0.00  0.00    +0.155 C 
ATOM     26  C   UNL     1      33.601 -13.296 -22.485  0.00  0.00    +0.018 C 
ATOM     27  C   UNL     1      33.561 -11.157 -23.607  0.00  0.00    +0.061 C 
ATOM     28  C   UNL     1      33.488 -11.805 -24.840  0.00  0.00    +0.046 C 
ATOM     29  C   UNL     1      33.617 -11.902 -22.430  0.00  0.00    +0.017 C 
BRANCH  27  31
ATOM     30  O   UNL     1      31.404  -9.497 -22.627  0.00  0.00    -0.269 OA
ATOM     31  N   UNL     1      33.578  -9.708 -23.549  0.00  0.00    -0.233 N 
ATOM     32  C   UNL     1      32.436  -9.005 -23.083  0.00  0.00    +0.257 C 
ATOM     33  C   UNL     1      34.718  -8.997 -23.929  0.00  0.00    +0.072 C 
ATOM     34  C   UNL     1      32.521  -7.512 -23.099  0.00  0.00    +0.059 C 
ATOM     35  C   UNL     1      34.781  -7.661 -23.903  0.00  0.00    +0.017 C 
ATOM     36  C   UNL     1      33.644  -6.899 -23.482  0.00  0.00    +0.006 C 
ENDBRANCH  27  31
ENDBRANCH  20  24
ENDBRANCH   1  21
TORSDOF 6
ENDMDL
MODEL 2
REMARK VINA RESULT:     -11.4      1.176      1.672
REMARK  Name = 42628063
REMARK  6 active torsions:
REMARK  status: ('A' for Active; 'I' for Inactive)
REMARK    1  A    between atoms: C_1  and  N_3
REMARK    2  A    between atoms: C_1  and  C_21
REMARK    3  A    between atoms: C_4  and  N_10
REMARK    4  A    between atoms: C_11  and  C_15
REMARK    5  A    between atoms: N_20  and  C_24
REMARK    6  A    between atoms: C_27  and  N_31
REMARK                            x       y       z     vdW  Elec       q    Type
REMARK                         _______ _______ _______ _____ _____    ______ ____
ROOT
ATOM      1  C   UNL     1      34.003 -17.819 -24.174  0.00  0.00    +0.010 C 
ENDROOT
BRANCH   1   3
ATOM      2  F   UNL     1      37.108 -18.321 -20.989  0.00  0.00    -0.238 F 
ATOM      3  N   UNL     1      34.909 -18.396 -23.192  0.00  0.00    +0.396 N 
ATOM      4  C   UNL     1      35.315 -19.784 -21.381  0.00  0.00    +0.082 C 
ATOM      5  C   UNL     1      35.750 -18.372 -20.999  0.00  0.00    +0.156 C 
ATOM      6  C   UNL     1      34.347 -19.579 -22.539  0.00  0.00    -0.054 C 
ATOM      7  C   UNL     1      35.221 -17.465 -22.103  0.00  0.00    -0.039 C 
ATOM      8  H   UNL     1      35.742 -18.629 -23.732  0.00  0.00    -0.079 HD
BRANCH   4  10
ATOM      9  O   UNL     1      36.646 -21.521 -19.523  0.00  0.00    -0.270 OA
ATOM     10  N   UNL     1      34.711 -20.498 -20.292  0.00  0.00    -0.302 N 
ATOM     11  C   UNL     1      35.438 -21.321 -19.438  0.00  0.00    +0.252 C 
ATOM     12  H   UNL     1      33.743 -20.401 -20.142  0.00  0.00    +0.150 HD
BRANCH  11  15
ATOM     13 CL   UNL     1      34.019 -23.864 -14.736  0.00  0.00    -0.075 Cl
ATOM     14  S   UNL     1      35.458 -22.488 -16.937  0.00  0.00    -0.071 S 
ATOM     15  C   UNL     1      34.661 -22.010 -18.375  0.00  0.00    +0.084 C 
ATOM     16  C   UNL     1      33.325 -22.342 -18.360  0.00  0.00    +0.012 C 
ATOM     17  C   UNL     1      32.949 -22.999 -17.152  0.00  0.00    +0.019 C 
ATOM     18  C   UNL     1      34.015 -23.143 -16.290  0.00  0.00    +0.087 C 
ENDBRANCH  11  15
ENDBRANCH   4  10
ENDBRANCH   1   3
BRANCH   1  21
ATOM     19  O   UNL     1      35.346 -16.038 -25.093  0.00  0.00    -0.277 OA
ATOM     20  N   UNL     1      33.474 -15.523 -23.773  0.00  0.00    -0.284 N 
ATOM     21  C   UNL     1      34.378 -16.366 -24.415  0.00  0.00    +0.205 C 
ATOM     22  H   UNL     1      32.749 -15.962 -23.274  0.00  0.00    +0.155 HD
BRANCH  20  24
ATOM     23  F   UNL     1      33.575 -14.094 -21.382  0.00  0.00    -0.203 F 
ATOM     24  C   UNL     1      33.478 -14.108 -23.756  0.00  0.00    +0.078 C 
ATOM     25  C   UNL     1      33.529 -13.422 -22.541  0.00  0.00    +0.155 C 
ATOM     26  C   UNL     1      33.429 -13.397 -24.955  0.00  0.00    +0.018 C 
ATOM     27  C   UNL     1      33.484 -11.318 -23.727  0.00  0.00    +0.061 C 
ATOM     28  C   UNL     1      33.532 -12.028 -22.527  0.00  0.00    +0.046 C 
ATOM     29  C   UNL     1      33.433 -12.003 -24.941  0.00  0.00    +0.017 C 
BRANCH  27  31
ATOM     30  O   UNL     1      35.682  -9.642 -24.581  0.00  0.00    -0.269 OA
ATOM     31  N   UNL     1      33.488  -9.868 -23.712  0.00  0.00    -0.233 N 
ATOM     32  C   UNL     1      34.647  -9.159 -24.121  0.00  0.00    +0.257 C 
ATOM     33  C   UNL     1      32.350  -9.160 -23.319  0.00  0.00    +0.072 C 
ATOM     34  C   UNL     1      34.583  -7.668 -24.031  0.00  0.00    +0.059 C 
ATOM     35  C   UNL     1      32.305  -7.824 -23.278  0.00  0.00    +0.017 C 
ATOM     36  C   UNL     1      33.460  -7.059 -23.639  0.00  0.00    +0.006 C 
ENDBRANCH  27  31
ENDBRANCH  20  24
ENDBRANCH   1  21
TORSDOF 6
ENDMDL
MODEL 3
REMARK VINA RESULT:     -11.0      5.612     11.873
REMARK  Name = 42628063
REMARK  6 active torsions:
REMARK  status: ('A' for Active; 'I' for Inactive)
REMARK    1  A    between atoms: C_1  and  N_3
REMARK    2  A    between atoms: C_1  and  C_21
REMARK    3  A    between atoms: C_4  and  N_10
REMARK    4  A    between atoms: C_11  and  C_15
REMARK    5  A    between atoms: N_20  and  C_24
REMARK    6  A    between atoms: C_27  and  N_31
REMARK                            x       y       z     vdW  Elec       q    Type
REMARK                         _______ _______ _______ _____ _____    ______ ____
ROOT
ATOM      1  C   UNL     1      33.415 -13.099 -24.997  0.00  0.00    +0.010 C 
ENDROOT
BRANCH   1   3
ATOM      2  F   UNL     1      36.300  -9.678 -25.138  0.00  0.00    -0.238 F 
ATOM      3  N   UNL     1      34.194 -11.920 -24.649  0.00  0.00    +0.396 N 
ATOM      4  C   UNL     1      34.335  -9.746 -23.858  0.00  0.00    +0.082 C 
ATOM      5  C   UNL     1      34.949  -9.779 -25.254  0.00  0.00    +0.156 C 
ATOM      6  C   UNL     1      33.447 -10.984 -23.808  0.00  0.00    -0.054 C 
ATOM      7  C   UNL     1      34.595 -11.145 -25.828  0.00  0.00    -0.039 C 
ATOM      8  H   UNL     1      35.005 -12.296 -24.159  0.00  0.00    -0.079 HD
BRANCH   4  10
ATOM      9  O   UNL     1      35.353  -7.328 -22.694  0.00  0.00    -0.270 OA
ATOM     10  N   UNL     1      33.596  -8.541 -23.599  0.00  0.00    -0.302 N 
ATOM     11  C   UNL     1      34.175  -7.413 -23.029  0.00  0.00    +0.252 C 
ATOM     12  H   UNL     1      32.641  -8.513 -23.836  0.00  0.00    +0.150 HD
BRANCH  11  15
ATOM     13 CL   UNL     1      31.278  -2.754 -23.730  0.00  0.00    -0.075 Cl
ATOM     14  S   UNL     1      33.062  -5.104 -24.053  0.00  0.00    -0.071 S 
ATOM     15  C   UNL     1      33.270  -6.256 -22.804  0.00  0.00    +0.084 C 
ATOM     16  C   UNL     1      32.528  -5.946 -21.686  0.00  0.00    +0.012 C 
ATOM     17  C   UNL     1      31.778  -4.746 -21.857  0.00  0.00    +0.019 C 
ATOM     18  C   UNL     1      31.976  -4.185 -23.100  0.00  0.00    +0.087 C 
ENDBRANCH  11  15
ENDBRANCH   4  10
ENDBRANCH   1   3
BRANCH   1  21
ATOM     19  O   UNL     1      32.686 -13.901 -22.842  0.00  0.00    -0.277 OA
ATOM     20  N   UNL     1      34.299 -15.106 -24.048  0.00  0.00    -0.284 N 
ATOM     21  C   UNL     1      33.405 -14.062 -23.823  0.00  0.00    +0.205 C 
ATOM     22  H   UNL     1      34.793 -15.079 -24.899  0.00  0.00    +0.155 HD
BRANCH  20  24
ATOM     23  F   UNL     1      34.193 -17.734 -24.971  0.00  0.00    -0.203 F 
ATOM     24  C   UNL     1      34.579 -16.201 -23.197  0.00  0.00    +0.078 C 
ATOM     25  C   UNL     1      34.517 -17.506 -23.690  0.00  0.00    +0.155 C 
ATOM     26  C   UNL     1      34.916 -15.977 -21.863  0.00  0.00    +0.018 C 
ATOM     27  C   UNL     1      35.131 -18.358 -21.516  0.00  0.00    +0.061 C 
ATOM     28  C   UNL     1      34.793 -18.583 -22.850  0.00  0.00    +0.046 C 
ATOM     29  C   UNL     1      35.193 -17.055 -21.022  0.00  0.00    +0.017 C 
BRANCH  27  31
ATOM     30  O   UNL     1      37.731 -19.006 -20.427  0.00  0.00    -0.269 OA
ATOM     31  N   UNL     1      35.419 -19.479 -20.641  0.00  0.00    -0.233 N 
ATOM     32  C   UNL     1      36.749 -19.713 -20.205  0.00  0.00    +0.257 C 
ATOM     33  C   UNL     1      34.392 -20.319 -20.205  0.00  0.00    +0.072 C 
ATOM     34  C   UNL     1      36.965 -20.916 -19.344  0.00  0.00    +0.059 C 
ATOM     35  C   UNL     1      34.606 -21.370 -19.407  0.00  0.00    +0.017 C 
ATOM     36  C   UNL     1      35.935 -21.679 -18.971  0.00  0.00    +0.006 C 
ENDBRANCH  27  31
ENDBRANCH  20  24
ENDBRANCH   1  21
TORSDOF 6
ENDMDL
MODEL 4
REMARK VINA RESULT:     -10.6      4.861     11.682
REMARK  Name = 42628063
REMARK  6 active torsions:
REMARK  status: ('A' for Active; 'I' for Inactive)
REMARK    1  A    between atoms: C_1  and  N_3
REMARK    2  A    between atoms: C_1  and  C_21
REMARK    3  A    between atoms: C_4  and  N_10
REMARK    4  A    between atoms: C_11  and  C_15
REMARK    5  A    between atoms: N_20  and  C_24
REMARK    6  A    between atoms: C_27  and  N_31
REMARK                            x       y       z     vdW  Elec       q    Type
REMARK                         _______ _______ _______ _____ _____    ______ ____
ROOT
ATOM      1  C   UNL     1      35.030 -17.692 -23.669  0.00  0.00    +0.010 C 
ENDROOT
BRANCH   1   3
ATOM      2  F   UNL     1      33.318 -14.616 -20.903  0.00  0.00    -0.238 F 
ATOM      3  N   UNL     1      34.312 -16.542 -23.139  0.00  0.00    +0.396 N 
ATOM      4  C   UNL     1      33.796 -14.283 -23.176  0.00  0.00    +0.082 C 
ATOM      5  C   UNL     1      34.346 -14.618 -21.793  0.00  0.00    +0.156 C 
ATOM      6  C   UNL     1      34.305 -15.410 -24.066  0.00  0.00    -0.054 C 
ATOM      7  C   UNL     1      34.913 -16.027 -21.904  0.00  0.00    -0.039 C 
ATOM      8  H   UNL     1      33.369 -16.895 -22.974  0.00  0.00    -0.079 HD
BRANCH   4  10
ATOM      9  O   UNL     1      32.595 -11.755 -22.536  0.00  0.00    -0.270 OA
ATOM     10  N   UNL     1      34.212 -12.992 -23.648  0.00  0.00    -0.302 N 
ATOM     11  C   UNL     1      33.568 -11.815 -23.284  0.00  0.00    +0.252 C 
ATOM     12  H   UNL     1      34.986 -12.938 -24.254  0.00  0.00    +0.150 HD
BRANCH  11  15
ATOM     13 CL   UNL     1      34.729  -6.492 -24.238  0.00  0.00    -0.075 Cl
ATOM     14  S   UNL     1      33.712  -9.062 -23.154  0.00  0.00    -0.071 S 
ATOM     15  C   UNL     1      34.106 -10.563 -23.877  0.00  0.00    +0.084 C 
ATOM     16  C   UNL     1      34.919 -10.410 -24.977  0.00  0.00    +0.012 C 
ATOM     17  C   UNL     1      35.223  -9.041 -25.232  0.00  0.00    +0.019 C 
ATOM     18  C   UNL     1      34.630  -8.201 -24.315  0.00  0.00    +0.087 C 
ENDBRANCH  11  15
ENDBRANCH   4  10
ENDBRANCH   1   3
BRANCH   1  21
ATOM     19  O   UNL     1      36.791 -18.582 -22.281  0.00  0.00    -0.277 OA
ATOM     20  N   UNL     1      34.555 -19.128 -21.818  0.00  0.00    -0.284 N 
ATOM     21  C   UNL     1      35.590 -18.512 -22.518  0.00  0.00    +0.205 C 
ATOM     22  H   UNL     1      33.644 -18.956 -22.148  0.00  0.00    +0.155 HD
BRANCH  20  24
ATOM     23  F   UNL     1      32.301 -20.235 -20.608  0.00  0.00    -0.203 F 
ATOM     24  C   UNL     1      34.662 -19.971 -20.687  0.00  0.00    +0.078 C 
ATOM     25  C   UNL     1      33.514 -20.510 -20.104  0.00  0.00    +0.155 C 
ATOM     26  C   UNL     1      35.917 -20.265 -20.154  0.00  0.00    +0.018 C 
ATOM     27  C   UNL     1      34.877 -21.635 -18.458  0.00  0.00    +0.061 C 
ATOM     28  C   UNL     1      33.621 -21.341 -18.990  0.00  0.00    +0.046 C 
ATOM     29  C   UNL     1      36.024 -21.096 -19.040  0.00  0.00    +0.017 C 
BRANCH  27  31
ATOM     30  O   UNL     1      32.859 -23.504 -17.565  0.00  0.00    -0.269 OA
ATOM     31  N   UNL     1      34.989 -22.499 -17.299  0.00  0.00    -0.233 N 
ATOM     32  C   UNL     1      33.908 -23.347 -16.941  0.00  0.00    +0.257 C 
ATOM     33  C   UNL     1      36.162 -22.522 -16.542  0.00  0.00    +0.072 C 
ATOM     34  C   UNL     1      34.088 -24.171 -15.706  0.00  0.00    +0.059 C 
ATOM     35  C   UNL     1      36.312 -23.293 -15.460  0.00  0.00    +0.017 C 
ATOM     36  C   UNL     1      35.238 -24.136 -15.028  0.00  0.00    +0.006 C 
ENDBRANCH  27  31
ENDBRANCH  20  24
ENDBRANCH   1  21
TORSDOF 6
ENDMDL
MODEL 5
REMARK VINA RESULT:     -10.6      3.575      5.231
REMARK  Name = 42628063
REMARK  6 active torsions:
REMARK  status: ('A' for Active; 'I' for Inactive)
REMARK    1  A    between atoms: C_1  and  N_3
REMARK    2  A    between atoms: C_1  and  C_21
REMARK    3  A    between atoms: C_4  and  N_10
REMARK    4  A    between atoms: C_11  and  C_15
REMARK    5  A    between atoms: N_20  and  C_24
REMARK    6  A    between atoms: C_27  and  N_31
REMARK                            x       y       z     vdW  Elec       q    Type
REMARK                         _______ _______ _______ _____ _____    ______ ____
ROOT
ATOM      1  C   UNL     1      36.227 -20.552 -20.183  0.00  0.00    +0.010 C 
ENDROOT
BRANCH   1   3
ATOM      2  F   UNL     1      33.603 -22.435 -17.082  0.00  0.00    -0.238 F 
ATOM      3  N   UNL     1      35.681 -21.011 -18.914  0.00  0.00    +0.396 N 
ATOM      4  C   UNL     1      35.917 -22.098 -16.882  0.00  0.00    +0.082 C 
ATOM      5  C   UNL     1      34.789 -22.779 -17.651  0.00  0.00    +0.156 C 
ATOM      6  C   UNL     1      36.723 -21.377 -17.955  0.00  0.00    -0.054 C 
ATOM      7  C   UNL     1      34.853 -22.213 -19.064  0.00  0.00    -0.039 C 
ATOM      8  H   UNL     1      35.130 -20.220 -18.583  0.00  0.00    -0.079 HD
BRANCH   4  10
ATOM      9  O   UNL     1      35.465 -22.967 -14.183  0.00  0.00    -0.270 OA
ATOM     10  N   UNL     1      36.722 -23.022 -16.132  0.00  0.00    -0.302 N 
ATOM     11  C   UNL     1      36.425 -23.387 -14.823  0.00  0.00    +0.252 C 
ATOM     12  H   UNL     1      37.515 -23.414 -16.562  0.00  0.00    +0.150 HD
BRANCH  11  15
ATOM     13 CL   UNL     1      40.864 -26.498 -13.722  0.00  0.00    -0.075 Cl
ATOM     14  S   UNL     1      38.886 -24.633 -14.915  0.00  0.00    -0.071 S 
ATOM     15  C   UNL     1      37.370 -24.335 -14.177  0.00  0.00    +0.084 C 
ATOM     16  C   UNL     1      37.212 -25.050 -13.011  0.00  0.00    +0.012 C 
ATOM     17  C   UNL     1      38.351 -25.856 -12.719  0.00  0.00    +0.019 C 
ATOM     18  C   UNL     1      39.336 -25.724 -13.674  0.00  0.00    +0.087 C 
ENDBRANCH  11  15
ENDBRANCH   4  10
ENDBRANCH   1   3
BRANCH   1  21
ATOM     19  O   UNL     1      34.253 -19.787 -21.339  0.00  0.00    -0.277 OA
ATOM     20  N   UNL     1      35.837 -18.228 -20.582  0.00  0.00    -0.284 N 
ATOM     21  C   UNL     1      35.306 -19.501 -20.779  0.00  0.00    +0.205 C 
ATOM     22  H   UNL     1      36.697 -18.184 -20.105  0.00  0.00    +0.155 HD
BRANCH  20  24
ATOM     23  F   UNL     1      35.573 -17.562 -23.276  0.00  0.00    -0.203 F 
ATOM     24  C   UNL     1      35.284 -16.991 -20.987  0.00  0.00    +0.078 C 
ATOM     25  C   UNL     1      35.165 -16.687 -22.344  0.00  0.00    +0.155 C 
ATOM     26  C   UNL     1      34.857 -16.072 -20.028  0.00  0.00    +0.018 C 
ATOM     27  C   UNL     1      34.192 -14.549 -21.782  0.00  0.00    +0.061 C 
ATOM     28  C   UNL     1      34.620 -15.467 -22.741  0.00  0.00    +0.046 C 
ATOM     29  C   UNL     1      34.311 -14.852 -20.426  0.00  0.00    +0.017 C 
BRANCH  27  31
ATOM     30  O   UNL     1      32.035 -13.167 -20.441  0.00  0.00    -0.269 OA
ATOM     31  N   UNL     1      33.624 -13.280 -22.195  0.00  0.00    -0.233 N 
ATOM     32  C   UNL     1      32.537 -12.723 -21.473  0.00  0.00    +0.257 C 
ATOM     33  C   UNL     1      34.153 -12.589 -23.287  0.00  0.00    +0.072 C 
ATOM     34  C   UNL     1      31.982 -11.436 -21.993  0.00  0.00    +0.059 C 
ATOM     35  C   UNL     1      33.660 -11.421 -23.713  0.00  0.00    +0.017 C 
ATOM     36  C   UNL     1      32.536 -10.834 -23.048  0.00  0.00    +0.006 C 
ENDBRANCH  27  31
ENDBRANCH  20  24
ENDBRANCH   1  21
TORSDOF 6
ENDMDL
MODEL 6
REMARK VINA RESULT:     -10.5      4.452     11.264
REMARK  Name = 42628063
REMARK  6 active torsions:
REMARK  status: ('A' for Active; 'I' for Inactive)
REMARK    1  A    between atoms: C_1  and  N_3
REMARK    2  A    between atoms: C_1  and  C_21
REMARK    3  A    between atoms: C_4  and  N_10
REMARK    4  A    between atoms: C_11  and  C_15
REMARK    5  A    between atoms: N_20  and  C_24
REMARK    6  A    between atoms: C_27  and  N_31
REMARK                            x       y       z     vdW  Elec       q    Type
REMARK                         _______ _______ _______ _____ _____    ______ ____
ROOT
ATOM      1  C   UNL     1      36.655 -19.040 -22.112  0.00  0.00    +0.010 C 
ENDROOT
BRANCH   1   3
ATOM      2  F   UNL     1      33.864 -17.235 -25.112  0.00  0.00    -0.238 F 
ATOM      3  N   UNL     1      35.969 -18.099 -22.985  0.00  0.00    +0.396 N 
ATOM      4  C   UNL     1      34.871 -16.087 -23.330  0.00  0.00    +0.082 C 
ATOM      5  C   UNL     1      33.934 -17.214 -23.754  0.00  0.00    +0.156 C 
ATOM      6  C   UNL     1      35.872 -16.761 -22.400  0.00  0.00    -0.054 C 
ATOM      7  C   UNL     1      34.586 -18.500 -23.263  0.00  0.00    -0.039 C 
ATOM      8  H   UNL     1      36.532 -18.094 -23.834  0.00  0.00    -0.079 HD
BRANCH   4  10
ATOM      9  O   UNL     1      33.418 -13.977 -24.625  0.00  0.00    -0.270 OA
ATOM     10  N   UNL     1      34.186 -14.999 -22.689  0.00  0.00    -0.302 N 
ATOM     11  C   UNL     1      33.505 -14.017 -23.401  0.00  0.00    +0.252 C 
ATOM     12  H   UNL     1      34.198 -14.947 -21.707  0.00  0.00    +0.150 HD
BRANCH  11  15
ATOM     13 CL   UNL     1      31.760  -9.090 -21.593  0.00  0.00    -0.075 Cl
ATOM     14  S   UNL     1      32.993 -11.320 -23.116  0.00  0.00    -0.071 S 
ATOM     15  C   UNL     1      32.869 -12.946 -22.592  0.00  0.00    +0.084 C 
ATOM     16  C   UNL     1      32.152 -13.059 -21.421  0.00  0.00    +0.012 C 
ATOM     17  C   UNL     1      31.699 -11.793 -20.947  0.00  0.00    +0.019 C 
ATOM     18  C   UNL     1      32.086 -10.762 -21.775  0.00  0.00    +0.087 C 
ENDBRANCH  11  15
ENDBRANCH   4  10
ENDBRANCH   1   3
BRANCH   1  21
ATOM     19  O   UNL     1      35.326 -18.336 -20.226  0.00  0.00    -0.277 OA
ATOM     20  N   UNL     1      35.740 -20.621 -20.571  0.00  0.00    -0.284 N 
ATOM     21  C   UNL     1      35.828 -19.260 -20.857  0.00  0.00    +0.205 C 
ATOM     22  H   UNL     1      36.204 -21.227 -21.192  0.00  0.00    +0.155 HD
BRANCH  20  24
ATOM     23  F   UNL     1      32.956 -20.731 -20.474  0.00  0.00    -0.203 F 
ATOM     24  C   UNL     1      35.061 -21.233 -19.491  0.00  0.00    +0.078 C 
ATOM     25  C   UNL     1      33.666 -21.272 -19.472  0.00  0.00    +0.155 C 
ATOM     26  C   UNL     1      35.788 -21.798 -18.443  0.00  0.00    +0.018 C 
ATOM     27  C   UNL     1      33.726 -22.442 -17.360  0.00  0.00    +0.061 C 
ATOM     28  C   UNL     1      32.999 -21.876 -18.408  0.00  0.00    +0.046 C 
ATOM     29  C   UNL     1      35.120 -22.403 -17.378  0.00  0.00    +0.017 C 
BRANCH  27  31
ATOM     30  O   UNL     1      30.860 -22.455 -16.974  0.00  0.00    -0.269 OA
ATOM     31  N   UNL     1      33.033 -23.070 -16.252  0.00  0.00    -0.233 N 
ATOM     32  C   UNL     1      31.620 -22.972 -16.155  0.00  0.00    +0.257 C 
ATOM     33  C   UNL     1      33.741 -23.792 -15.290  0.00  0.00    +0.072 C 
ATOM     34  C   UNL     1      30.989 -23.608 -14.957  0.00  0.00    +0.059 C 
ATOM     35  C   UNL     1      33.151 -24.381 -14.245  0.00  0.00    +0.017 C 
ATOM     36  C   UNL     1      31.733 -24.278 -14.073  0.00  0.00    +0.006 C 
ENDBRANCH  27  31
ENDBRANCH  20  24
ENDBRANCH   1  21
TORSDOF 6
ENDMDL
MODEL 7
REMARK VINA RESULT:     -10.5      3.593      5.869
REMARK  Name = 42628063
REMARK  6 active torsions:
REMARK  status: ('A' for Active; 'I' for Inactive)
REMARK    1  A    between atoms: C_1  and  N_3
REMARK    2  A    between atoms: C_1  and  C_21
REMARK    3  A    between atoms: C_4  and  N_10
REMARK    4  A    between atoms: C_11  and  C_15
REMARK    5  A    between atoms: N_20  and  C_24
REMARK    6  A    between atoms: C_27  and  N_31
REMARK                            x       y       z     vdW  Elec       q    Type
REMARK                         _______ _______ _______ _____ _____    ______ ____
ROOT
ATOM      1  C   UNL     1      35.694 -21.275 -19.947  0.00  0.00    +0.010 C 
ENDROOT
BRANCH   1   3
ATOM      2  F   UNL     1      33.439 -22.556 -16.297  0.00  0.00    -0.238 F 
ATOM      3  N   UNL     1      35.310 -21.531 -18.567  0.00  0.00    +0.396 N 
ATOM      4  C   UNL     1      35.773 -22.375 -16.459  0.00  0.00    +0.082 C 
ATOM      5  C   UNL     1      34.508 -23.057 -16.972  0.00  0.00    +0.156 C 
ATOM      6  C   UNL     1      36.456 -21.855 -17.718  0.00  0.00    -0.054 C 
ATOM      7  C   UNL     1      34.401 -22.676 -18.442  0.00  0.00    -0.039 C 
ATOM      8  H   UNL     1      34.860 -20.665 -18.271  0.00  0.00    -0.079 HD
BRANCH   4  10
ATOM      9  O   UNL     1      35.424 -23.177 -13.725  0.00  0.00    -0.270 OA
ATOM     10  N   UNL     1      36.622 -23.259 -15.709  0.00  0.00    -0.302 N 
ATOM     11  C   UNL     1      36.374 -23.593 -14.382  0.00  0.00    +0.252 C 
ATOM     12  H   UNL     1      37.412 -23.644 -16.153  0.00  0.00    +0.150 HD
BRANCH  11  15
ATOM     13 CL   UNL     1      40.857 -26.679 -13.398  0.00  0.00    -0.075 Cl
ATOM     14  S   UNL     1      38.805 -24.886 -14.575  0.00  0.00    -0.071 S 
ATOM     15  C   UNL     1      37.361 -24.500 -13.740  0.00  0.00    +0.084 C 
ATOM     16  C   UNL     1      37.295 -25.112 -12.508  0.00  0.00    +0.012 C 
ATOM     17  C   UNL     1      38.446 -25.911 -12.246  0.00  0.00    +0.019 C 
ATOM     18  C   UNL     1      39.347 -25.877 -13.288  0.00  0.00    +0.087 C 
ENDBRANCH  11  15
ENDBRANCH   4  10
ENDBRANCH   1   3
BRANCH   1  21
ATOM     19  O   UNL     1      33.636 -20.111 -20.429  0.00  0.00    -0.277 OA
ATOM     20  N   UNL     1      35.687 -19.160 -21.061  0.00  0.00    -0.284 N 
ATOM     21  C   UNL     1      34.860 -20.130 -20.499  0.00  0.00    +0.205 C 
ATOM     22  H   UNL     1      36.654 -19.339 -21.025  0.00  0.00    +0.155 HD
BRANCH  20  24
ATOM     23  F   UNL     1      35.067 -19.036 -23.776  0.00  0.00    -0.203 F 
ATOM     24  C   UNL     1      35.299 -17.947 -21.676  0.00  0.00    +0.078 C 
ATOM     25  C   UNL     1      34.994 -17.918 -23.038  0.00  0.00    +0.155 C 
ATOM     26  C   UNL     1      35.220 -16.777 -20.920  0.00  0.00    +0.018 C 
ATOM     27  C   UNL     1      34.532 -15.552 -22.885  0.00  0.00    +0.061 C 
ATOM     28  C   UNL     1      34.612 -16.721 -23.642  0.00  0.00    +0.046 C 
ATOM     29  C   UNL     1      34.836 -15.580 -21.524  0.00  0.00    +0.017 C 
BRANCH  27  31
ATOM     30  O   UNL     1      33.736 -15.254 -25.649  0.00  0.00    -0.269 OA
ATOM     31  N   UNL     1      34.134 -14.307 -23.513  0.00  0.00    -0.233 N 
ATOM     32  C   UNL     1      33.803 -14.286 -24.893  0.00  0.00    +0.257 C 
ATOM     33  C   UNL     1      34.052 -13.130 -22.766  0.00  0.00    +0.072 C 
ATOM     34  C   UNL     1      33.448 -12.953 -25.472  0.00  0.00    +0.059 C 
ATOM     35  C   UNL     1      33.700 -11.956 -23.300  0.00  0.00    +0.017 C 
ATOM     36  C   UNL     1      33.396 -11.867 -24.696  0.00  0.00    +0.006 C 
ENDBRANCH  27  31
ENDBRANCH  20  24
ENDBRANCH   1  21
TORSDOF 6
ENDMDL
MODEL 8
REMARK VINA RESULT:     -10.3      2.470      3.478
REMARK  Name = 42628063
REMARK  6 active torsions:
REMARK  status: ('A' for Active; 'I' for Inactive)
REMARK    1  A    between atoms: C_1  and  N_3
REMARK    2  A    between atoms: C_1  and  C_21
REMARK    3  A    between atoms: C_4  and  N_10
REMARK    4  A    between atoms: C_11  and  C_15
REMARK    5  A    between atoms: N_20  and  C_24
REMARK    6  A    between atoms: C_27  and  N_31
REMARK                            x       y       z     vdW  Elec       q    Type
REMARK                         _______ _______ _______ _____ _____    ______ ____
ROOT
ATOM      1  C   UNL     1      33.865 -14.854 -24.450  0.00  0.00    +0.010 C 
ENDROOT
BRANCH   1   3
ATOM      2  F   UNL     1      35.092 -14.200 -20.195  0.00  0.00    -0.238 F 
ATOM      3  N   UNL     1      34.544 -14.951 -23.167  0.00  0.00    +0.396 N 
ATOM      4  C   UNL     1      35.347 -16.203 -21.390  0.00  0.00    +0.082 C 
ATOM      5  C   UNL     1      34.377 -15.165 -20.834  0.00  0.00    +0.156 C 
ATOM      6  C   UNL     1      34.973 -16.317 -22.863  0.00  0.00    -0.054 C 
ATOM      7  C   UNL     1      33.684 -14.557 -22.047  0.00  0.00    -0.039 C 
ATOM      8  H   UNL     1      35.342 -14.323 -23.263  0.00  0.00    -0.079 HD
BRANCH   4  10
ATOM      9  O   UNL     1      36.951 -18.530 -21.897  0.00  0.00    -0.270 OA
ATOM     10  N   UNL     1      35.263 -17.468 -20.712  0.00  0.00    -0.302 N 
ATOM     11  C   UNL     1      36.085 -18.545 -21.027  0.00  0.00    +0.252 C 
ATOM     12  H   UNL     1      34.597 -17.576 -19.996  0.00  0.00    +0.150 HD
BRANCH  11  15
ATOM     13 CL   UNL     1      33.685 -22.918 -18.637  0.00  0.00    -0.075 Cl
ATOM     14  S   UNL     1      34.271 -20.432 -20.150  0.00  0.00    -0.071 S 
ATOM     15  C   UNL     1      35.856 -19.791 -20.250  0.00  0.00    +0.084 C 
ATOM     16  C   UNL     1      36.769 -20.558 -19.561  0.00  0.00    +0.012 C 
ATOM     17  C   UNL     1      36.160 -21.687 -18.941  0.00  0.00    +0.019 C 
ATOM     18  C   UNL     1      34.804 -21.740 -19.181  0.00  0.00    +0.087 C 
ENDBRANCH  11  15
ENDBRANCH   4  10
ENDBRANCH   1   3
BRANCH   1  21
ATOM     19  O   UNL     1      33.062 -13.016 -25.790  0.00  0.00    -0.277 OA
ATOM     20  N   UNL     1      33.594 -12.665 -23.530  0.00  0.00    -0.284 N 
ATOM     21  C   UNL     1      33.456 -13.412 -24.698  0.00  0.00    +0.205 C 
ATOM     22  H   UNL     1      33.921 -13.151 -22.740  0.00  0.00    +0.155 HD
BRANCH  20  24
ATOM     23  F   UNL     1      31.458 -11.803 -21.960  0.00  0.00    -0.203 F 
ATOM     24  C   UNL     1      33.317 -11.290 -23.349  0.00  0.00    +0.078 C 
ATOM     25  C   UNL     1      32.240 -10.890 -22.556  0.00  0.00    +0.155 C 
ATOM     26  C   UNL     1      34.122 -10.331 -23.964  0.00  0.00    +0.018 C 
ATOM     27  C   UNL     1      32.774  -8.576 -22.993  0.00  0.00    +0.061 C 
ATOM     28  C   UNL     1      31.969  -9.535 -22.378  0.00  0.00    +0.046 C 
ATOM     29  C   UNL     1      33.851  -8.974 -23.785  0.00  0.00    +0.017 C 
BRANCH  27  31
ATOM     30  O   UNL     1      33.094  -7.118 -20.516  0.00  0.00    -0.269 OA
ATOM     31  N   UNL     1      32.493  -7.166 -22.808  0.00  0.00    -0.233 N 
ATOM     32  C   UNL     1      32.653  -6.574 -21.528  0.00  0.00    +0.257 C 
ATOM     33  C   UNL     1      32.085  -6.377 -23.886  0.00  0.00    +0.072 C 
ATOM     34  C   UNL     1      32.296  -5.126 -21.414  0.00  0.00    +0.059 C 
ATOM     35  C   UNL     1      31.804  -5.075 -23.766  0.00  0.00    +0.017 C 
ATOM     36  C   UNL     1      31.907  -4.436 -22.489  0.00  0.00    +0.006 C 
ENDBRANCH  27  31
ENDBRANCH  20  24
ENDBRANCH   1  21
TORSDOF 6
ENDMDL
MODEL 9
REMARK VINA RESULT:     -10.3      3.374      5.486
REMARK  Name = 42628063
REMARK  6 active torsions:
REMARK  status: ('A' for Active; 'I' for Inactive)
REMARK    1  A    between atoms: C_1  and  N_3
REMARK    2  A    between atoms: C_1  and  C_21
REMARK    3  A    between atoms: C_4  and  N_10
REMARK    4  A    between atoms: C_11  and  C_15
REMARK    5  A    between atoms: N_20  and  C_24
REMARK    6  A    between atoms: C_27  and  N_31
REMARK                            x       y       z     vdW  Elec       q    Type
REMARK                         _______ _______ _______ _____ _____    ______ ____
ROOT
ATOM      1  C   UNL     1      35.923 -20.757 -20.282  0.00  0.00    +0.010 C 
ENDROOT
BRANCH   1   3
ATOM      2  F   UNL     1      33.295 -22.394 -17.048  0.00  0.00    -0.238 F 
ATOM      3  N   UNL     1      35.398 -21.160 -18.986  0.00  0.00    +0.396 N 
ATOM      4  C   UNL     1      35.635 -22.249 -16.954  0.00  0.00    +0.082 C 
ATOM      5  C   UNL     1      34.421 -22.840 -17.666  0.00  0.00    +0.156 C 
ATOM      6  C   UNL     1      36.449 -21.605 -18.070  0.00  0.00    -0.054 C 
ATOM      7  C   UNL     1      34.468 -22.290 -19.085  0.00  0.00    -0.039 C 
ATOM      8  H   UNL     1      34.930 -20.324 -18.638  0.00  0.00    -0.079 HD
BRANCH   4  10
ATOM      9  O   UNL     1      35.532 -22.757 -14.130  0.00  0.00    -0.270 OA
ATOM     10  N   UNL     1      36.394 -23.232 -16.231  0.00  0.00    -0.302 N 
ATOM     11  C   UNL     1      36.278 -23.408 -14.856  0.00  0.00    +0.252 C 
ATOM     12  H   UNL     1      37.020 -23.805 -16.729  0.00  0.00    +0.150 HD
BRANCH  11  15
ATOM     13 CL   UNL     1      40.670 -26.475 -13.478  0.00  0.00    -0.075 Cl
ATOM     14  S   UNL     1      38.822 -24.453 -14.622  0.00  0.00    -0.071 S 
ATOM     15  C   UNL     1      37.150 -24.450 -14.254  0.00  0.00    +0.084 C 
ATOM     16  C   UNL     1      36.807 -25.471 -13.396  0.00  0.00    +0.012 C 
ATOM     17  C   UNL     1      37.933 -26.268 -13.036  0.00  0.00    +0.019 C 
ATOM     18  C   UNL     1      39.093 -25.824 -13.632  0.00  0.00    +0.087 C 
ENDBRANCH  11  15
ENDBRANCH   4  10
ENDBRANCH   1   3
BRANCH   1  21
ATOM     19  O   UNL     1      33.821 -19.762 -20.924  0.00  0.00    -0.277 OA
ATOM     20  N   UNL     1      35.824 -18.595 -21.293  0.00  0.00    -0.284 N 
ATOM     21  C   UNL     1      35.043 -19.665 -20.866  0.00  0.00    +0.205 C 
ATOM     22  H   UNL     1      36.795 -18.685 -21.164  0.00  0.00    +0.155 HD
BRANCH  20  24
ATOM     23  F   UNL     1      35.112 -16.380 -19.757  0.00  0.00    -0.203 F 
ATOM     24  C   UNL     1      35.383 -17.390 -21.891  0.00  0.00    +0.078 C 
ATOM     25  C   UNL     1      35.034 -16.299 -21.094  0.00  0.00    +0.155 C 
ATOM     26  C   UNL     1      35.298 -17.293 -23.280  0.00  0.00    +0.018 C 
ATOM     27  C   UNL     1      34.516 -15.016 -23.073  0.00  0.00    +0.061 C 
ATOM     28  C   UNL     1      34.600 -15.113 -21.685  0.00  0.00    +0.046 C 
ATOM     29  C   UNL     1      34.864 -16.106 -23.871  0.00  0.00    +0.017 C 
BRANCH  27  31
ATOM     30  O   UNL     1      33.599 -14.747 -25.803  0.00  0.00    -0.269 OA
ATOM     31  N   UNL     1      34.065 -13.783 -23.688  0.00  0.00    -0.233 N 
ATOM     32  C   UNL     1      33.676 -13.774 -25.053  0.00  0.00    +0.257 C 
ATOM     33  C   UNL     1      33.988 -12.605 -22.942  0.00  0.00    +0.072 C 
ATOM     34  C   UNL     1      33.268 -12.452 -25.621  0.00  0.00    +0.059 C 
ATOM     35  C   UNL     1      33.589 -11.441 -23.464  0.00  0.00    +0.017 C 
ATOM     36  C   UNL     1      33.225 -11.365 -24.847  0.00  0.00    +0.006 C 
ENDBRANCH  27  31
ENDBRANCH  20  24
ENDBRANCH   1  21
TORSDOF 6
ENDMDL
