MODEL 1
REMARK VINA RESULT:     -12.6      0.000      0.000
REMARK  Name = 22479942
REMARK  4 active torsions:
REMARK  status: ('A' for Active; 'I' for Inactive)
REMARK    1  A    between atoms: C_4  and  C_17
REMARK    2  A    between atoms: C_7  and  C_14
REMARK    3  A    between atoms: C_20  and  N_24
REMARK    4  A    between atoms: C_25  and  C_28
REMARK                            x       y       z     vdW  Elec       q    Type
REMARK                         _______ _______ _______ _____ _____    ______ ____
ROOT
ATOM      1  N   UNL     1      31.144 -23.105 -16.778  0.00  0.00    -0.276 N 
ATOM      2  N   UNL     1      31.928 -22.540 -17.712  0.00  0.00    -0.173 NA
ATOM      3  C   UNL     1      33.152 -23.223 -15.904  0.00  0.00    +0.036 A 
ATOM      4  C   UNL     1      33.148 -22.614 -17.177  0.00  0.00    +0.102 A 
ATOM      5  C   UNL     1      31.819 -23.536 -15.667  0.00  0.00    +0.075 A 
ATOM      6  C   UNL     1      34.118 -23.542 -14.934  0.00  0.00    +0.006 C 
ATOM      7  C   UNL     1      33.697 -24.170 -13.754  0.00  0.00    +0.033 C 
ATOM      8  C   UNL     1      31.379 -24.161 -14.498  0.00  0.00    +0.019 C 
ATOM      9  C   UNL     1      32.351 -24.473 -13.542  0.00  0.00    +0.004 C 
ATOM     10  H   UNL     1      30.171 -23.202 -16.884  0.00  0.00    +0.189 HD
ENDROOT
BRANCH   7  14
ATOM     11  N   UNL     1      35.668 -25.409 -12.945  0.00  0.00    -0.218 N 
ATOM     12  N   UNL     1      34.753 -24.023 -11.526  0.00  0.00    -0.206 NA
ATOM     13  N   UNL     1      36.435 -25.540 -11.852  0.00  0.00    -0.157 NA
ATOM     14  C   UNL     1      34.672 -24.506 -12.744  0.00  0.00    +0.149 C 
ATOM     15  C   UNL     1      35.839 -24.680 -11.022  0.00  0.00    +0.218 C 
ATOM     16  H   UNL     1      35.810 -25.904 -13.785  0.00  0.00    +0.176 HD
ENDBRANCH   7  14
BRANCH   4  17
ATOM     17  C   UNL     1      34.285 -22.101 -17.899  0.00  0.00    +0.021 C 
ATOM     18  C   UNL     1      34.095 -21.368 -19.071  0.00  0.00    +0.016 C 
ATOM     19  C   UNL     1      35.575 -22.336 -17.425  0.00  0.00    +0.002 C 
ATOM     20  C   UNL     1      35.195 -20.871 -19.768  0.00  0.00    +0.051 C 
ATOM     21  C   UNL     1      36.676 -21.839 -18.123  0.00  0.00    +0.001 C 
ATOM     22  C   UNL     1      36.487 -21.106 -19.295  0.00  0.00    +0.015 C 
BRANCH  20  24
ATOM     23  O   UNL     1      35.752 -18.015 -20.333  0.00  0.00    -0.266 OA
ATOM     24  N   UNL     1      35.007 -20.137 -20.940  0.00  0.00    -0.278 N 
ATOM     25  C   UNL     1      35.283 -18.776 -21.177  0.00  0.00    +0.284 C 
ATOM     26  H   UNL     1      34.633 -20.638 -21.702  0.00  0.00    +0.155 HD
BRANCH  25  28
ATOM     27  O   UNL     1      35.231 -17.003 -22.832  0.00  0.00    -0.446 OA
ATOM     28  C   UNL     1      34.929 -18.291 -22.521  0.00  0.00    +0.199 C 
ATOM     29  C   UNL     1      34.320 -18.914 -23.586  0.00  0.00    +0.045 C 
ATOM     30  C   UNL     1      34.243 -17.947 -24.617  0.00  0.00    +0.044 C 
ATOM     31  C   UNL     1      34.812 -16.802 -24.109  0.00  0.00    +0.180 C 
ENDBRANCH  25  28
ENDBRANCH  20  24
ENDBRANCH   4  17
TORSDOF 4
ENDMDL
MODEL 2
REMARK VINA RESULT:     -11.6      4.708      8.686
REMARK  Name = 22479942
REMARK  4 active torsions:
REMARK  status: ('A' for Active; 'I' for Inactive)
REMARK    1  A    between atoms: C_4  and  C_17
REMARK    2  A    between atoms: C_7  and  C_14
REMARK    3  A    between atoms: C_20  and  N_24
REMARK    4  A    between atoms: C_25  and  C_28
REMARK                            x       y       z     vdW  Elec       q    Type
REMARK                         _______ _______ _______ _____ _____    ______ ____
ROOT
ATOM      1  N   UNL     1      32.112 -24.538 -13.076  0.00  0.00    -0.276 N 
ATOM      2  N   UNL     1      33.260 -24.807 -12.431  0.00  0.00    -0.173 NA
ATOM      3  C   UNL     1      33.661 -23.880 -14.484  0.00  0.00    +0.036 A 
ATOM      4  C   UNL     1      34.199 -24.405 -13.289  0.00  0.00    +0.102 A 
ATOM      5  C   UNL     1      32.285 -23.980 -14.315  0.00  0.00    +0.075 A 
ATOM      6  C   UNL     1      34.171 -23.337 -15.675  0.00  0.00    +0.006 C 
ATOM      7  C   UNL     1      33.267 -22.912 -16.657  0.00  0.00    +0.033 C 
ATOM      8  C   UNL     1      31.366 -23.563 -15.281  0.00  0.00    +0.019 C 
ATOM      9  C   UNL     1      31.889 -23.025 -16.461  0.00  0.00    +0.004 C 
ATOM     10  H   UNL     1      31.226 -24.725 -12.693  0.00  0.00    +0.189 HD
ENDROOT
BRANCH   7  14
ATOM     11  N   UNL     1      33.005 -21.607 -18.731  0.00  0.00    -0.218 N 
ATOM     12  N   UNL     1      34.983 -22.467 -18.378  0.00  0.00    -0.206 NA
ATOM     13  N   UNL     1      33.708 -21.209 -19.803  0.00  0.00    -0.157 NA
ATOM     14  C   UNL     1      33.769 -22.353 -17.889  0.00  0.00    +0.149 C 
ATOM     15  C   UNL     1      34.898 -21.755 -19.540  0.00  0.00    +0.218 C 
ATOM     16  H   UNL     1      32.058 -21.386 -18.575  0.00  0.00    +0.176 HD
ENDBRANCH   7  14
BRANCH   4  17
ATOM     17  C   UNL     1      35.593 -24.532 -12.947  0.00  0.00    +0.021 C 
ATOM     18  C   UNL     1      36.386 -25.481 -13.592  0.00  0.00    +0.016 C 
ATOM     19  C   UNL     1      36.149 -23.706 -11.971  0.00  0.00    +0.002 C 
ATOM     20  C   UNL     1      37.735 -25.603 -13.261  0.00  0.00    +0.051 C 
ATOM     21  C   UNL     1      37.498 -23.828 -11.640  0.00  0.00    +0.001 C 
ATOM     22  C   UNL     1      38.292 -24.776 -12.284  0.00  0.00    +0.015 C 
BRANCH  20  24
ATOM     23  O   UNL     1      40.146 -25.233 -14.944  0.00  0.00    -0.266 OA
ATOM     24  N   UNL     1      38.531 -26.551 -13.906  0.00  0.00    -0.278 N 
ATOM     25  C   UNL     1      39.675 -26.342 -14.702  0.00  0.00    +0.284 C 
ATOM     26  H   UNL     1      38.256 -27.490 -13.789  0.00  0.00    +0.155 HD
BRANCH  25  28
ATOM     27  O   UNL     1      41.359 -28.087 -14.663  0.00  0.00    -0.446 OA
ATOM     28  C   UNL     1      40.268 -27.560 -15.278  0.00  0.00    +0.199 C 
ATOM     29  C   UNL     1      39.919 -28.315 -16.373  0.00  0.00    +0.045 C 
ATOM     30  C   UNL     1      40.856 -29.374 -16.437  0.00  0.00    +0.044 C 
ATOM     31  C   UNL     1      41.711 -29.191 -15.374  0.00  0.00    +0.180 C 
ENDBRANCH  25  28
ENDBRANCH  20  24
ENDBRANCH   4  17
TORSDOF 4
ENDMDL
MODEL 3
REMARK VINA RESULT:     -11.6      2.274      3.547
REMARK  Name = 22479942
REMARK  4 active torsions:
REMARK  status: ('A' for Active; 'I' for Inactive)
REMARK    1  A    between atoms: C_4  and  C_17
REMARK    2  A    between atoms: C_7  and  C_14
REMARK    3  A    between atoms: C_20  and  N_24
REMARK    4  A    between atoms: C_25  and  C_28
REMARK                            x       y       z     vdW  Elec       q    Type
REMARK                         _______ _______ _______ _____ _____    ______ ____
ROOT
ATOM      1  N   UNL     1      32.286 -21.893 -19.038  0.00  0.00    -0.276 N 
ATOM      2  N   UNL     1      32.829 -21.028 -19.912  0.00  0.00    -0.173 NA
ATOM      3  C   UNL     1      34.380 -21.760 -18.398  0.00  0.00    +0.036 A 
ATOM      4  C   UNL     1      34.101 -20.950 -19.520  0.00  0.00    +0.102 A 
ATOM      5  C   UNL     1      33.166 -22.369 -18.102  0.00  0.00    +0.075 A 
ATOM      6  C   UNL     1      35.505 -22.046 -17.606  0.00  0.00    +0.006 C 
ATOM      7  C   UNL     1      35.360 -22.942 -16.539  0.00  0.00    +0.033 C 
ATOM      8  C   UNL     1      33.000 -23.264 -17.043  0.00  0.00    +0.019 C 
ATOM      9  C   UNL     1      34.128 -23.539 -16.264  0.00  0.00    +0.004 C 
ATOM     10  H   UNL     1      31.340 -22.161 -19.068  0.00  0.00    +0.189 HD
ENDROOT
BRANCH   7  14
ATOM     11  N   UNL     1      37.767 -22.853 -16.015  0.00  0.00    -0.218 N 
ATOM     12  N   UNL     1      36.510 -23.928 -14.587  0.00  0.00    -0.206 NA
ATOM     13  N   UNL     1      38.643 -23.267 -15.087  0.00  0.00    -0.157 NA
ATOM     14  C   UNL     1      36.502 -23.249 -15.711  0.00  0.00    +0.149 C 
ATOM     15  C   UNL     1      37.832 -23.913 -14.245  0.00  0.00    +0.218 C 
ATOM     16  H   UNL     1      38.010 -22.329 -16.813  0.00  0.00    +0.176 HD
ENDBRANCH   7  14
BRANCH   4  17
ATOM     17  C   UNL     1      35.026 -20.102 -20.230  0.00  0.00    +0.021 C 
ATOM     18  C   UNL     1      34.559 -18.974 -20.905  0.00  0.00    +0.016 C 
ATOM     19  C   UNL     1      36.385 -20.409 -20.242  0.00  0.00    +0.002 C 
ATOM     20  C   UNL     1      35.453 -18.153 -21.592  0.00  0.00    +0.051 C 
ATOM     21  C   UNL     1      37.280 -19.589 -20.929  0.00  0.00    +0.001 C 
ATOM     22  C   UNL     1      36.814 -18.460 -21.604  0.00  0.00    +0.015 C 
BRANCH  20  24
ATOM     23  O   UNL     1      34.560 -17.851 -24.402  0.00  0.00    -0.266 OA
ATOM     24  N   UNL     1      34.988 -17.024 -22.267  0.00  0.00    -0.278 N 
ATOM     25  C   UNL     1      34.570 -16.913 -23.608  0.00  0.00    +0.284 C 
ATOM     26  H   UNL     1      34.947 -16.196 -21.735  0.00  0.00    +0.155 HD
BRANCH  25  28
ATOM     27  O   UNL     1      33.813 -15.377 -25.326  0.00  0.00    -0.446 OA
ATOM     28  C   UNL     1      34.171 -15.559 -24.028  0.00  0.00    +0.199 C 
ATOM     29  C   UNL     1      34.083 -14.376 -23.333  0.00  0.00    +0.045 C 
ATOM     30  C   UNL     1      33.642 -13.404 -24.263  0.00  0.00    +0.044 C 
ATOM     31  C   UNL     1      33.492 -14.064 -25.461  0.00  0.00    +0.180 C 
ENDBRANCH  25  28
ENDBRANCH  20  24
ENDBRANCH   4  17
TORSDOF 4
ENDMDL
MODEL 4
REMARK VINA RESULT:     -10.9      3.379      6.826
REMARK  Name = 22479942
REMARK  4 active torsions:
REMARK  status: ('A' for Active; 'I' for Inactive)
REMARK    1  A    between atoms: C_4  and  C_17
REMARK    2  A    between atoms: C_7  and  C_14
REMARK    3  A    between atoms: C_20  and  N_24
REMARK    4  A    between atoms: C_25  and  C_28
REMARK                            x       y       z     vdW  Elec       q    Type
REMARK                         _______ _______ _______ _____ _____    ______ ____
ROOT
ATOM      1  N   UNL     1      38.026 -19.042 -20.862  0.00  0.00    -0.276 N 
ATOM      2  N   UNL     1      37.436 -18.446 -21.912  0.00  0.00    -0.173 NA
ATOM      3  C   UNL     1      35.944 -19.720 -20.735  0.00  0.00    +0.036 A 
ATOM      4  C   UNL     1      36.170 -18.861 -21.831  0.00  0.00    +0.102 A 
ATOM      5  C   UNL     1      37.184 -19.821 -20.114  0.00  0.00    +0.075 A 
ATOM      6  C   UNL     1      34.847 -20.417 -20.200  0.00  0.00    +0.006 C 
ATOM      7  C   UNL     1      35.045 -21.194 -19.050  0.00  0.00    +0.033 C 
ATOM      8  C   UNL     1      37.403 -20.590 -18.969  0.00  0.00    +0.019 C 
ATOM      9  C   UNL     1      36.302 -21.277 -18.448  0.00  0.00    +0.004 C 
ATOM     10  H   UNL     1      38.979 -18.927 -20.648  0.00  0.00    +0.189 HD
ENDROOT
BRANCH   7  14
ATOM     11  N   UNL     1      32.650 -21.473 -18.542  0.00  0.00    -0.218 N 
ATOM     12  N   UNL     1      33.973 -23.069 -17.851  0.00  0.00    -0.206 NA
ATOM     13  N   UNL     1      31.809 -22.330 -17.942  0.00  0.00    -0.157 NA
ATOM     14  C   UNL     1      33.933 -21.919 -18.485  0.00  0.00    +0.149 C 
ATOM     15  C   UNL     1      32.660 -23.278 -17.541  0.00  0.00    +0.218 C 
ATOM     16  H   UNL     1      32.372 -20.631 -18.970  0.00  0.00    +0.176 HD
ENDBRANCH   7  14
BRANCH   4  17
ATOM     17  C   UNL     1      35.203 -18.424 -22.806  0.00  0.00    +0.021 C 
ATOM     18  C   UNL     1      35.060 -17.064 -23.085  0.00  0.00    +0.016 C 
ATOM     19  C   UNL     1      34.411 -19.359 -23.470  0.00  0.00    +0.002 C 
ATOM     20  C   UNL     1      34.124 -16.641 -24.028  0.00  0.00    +0.051 C 
ATOM     21  C   UNL     1      33.474 -18.936 -24.414  0.00  0.00    +0.001 C 
ATOM     22  C   UNL     1      33.331 -17.577 -24.694  0.00  0.00    +0.015 C 
BRANCH  20  24
ATOM     23  O   UNL     1      33.661 -14.359 -22.194  0.00  0.00    -0.266 OA
ATOM     24  N   UNL     1      33.980 -15.282 -24.309  0.00  0.00    -0.278 N 
ATOM     25  C   UNL     1      33.760 -14.219 -23.411  0.00  0.00    +0.284 C 
ATOM     26  H   UNL     1      34.041 -15.034 -25.260  0.00  0.00    +0.155 HD
BRANCH  25  28
ATOM     27  O   UNL     1      33.451 -12.840 -25.383  0.00  0.00    -0.446 OA
ATOM     28  C   UNL     1      33.611 -12.893 -24.035  0.00  0.00    +0.199 C 
ATOM     29  C   UNL     1      33.601 -11.627 -23.497  0.00  0.00    +0.045 C 
ATOM     30  C   UNL     1      33.422 -10.739 -24.585  0.00  0.00    +0.044 C 
ATOM     31  C   UNL     1      33.336 -11.526 -25.710  0.00  0.00    +0.180 C 
ENDBRANCH  25  28
ENDBRANCH  20  24
ENDBRANCH   4  17
TORSDOF 4
ENDMDL
MODEL 5
REMARK VINA RESULT:     -10.5      9.095     15.209
REMARK  Name = 22479942
REMARK  4 active torsions:
REMARK  status: ('A' for Active; 'I' for Inactive)
REMARK    1  A    between atoms: C_4  and  C_17
REMARK    2  A    between atoms: C_7  and  C_14
REMARK    3  A    between atoms: C_20  and  N_24
REMARK    4  A    between atoms: C_25  and  C_28
REMARK                            x       y       z     vdW  Elec       q    Type
REMARK                         _______ _______ _______ _____ _____    ______ ____
ROOT
ATOM      1  N   UNL     1      35.324  -8.688 -24.954  0.00  0.00    -0.276 N 
ATOM      2  N   UNL     1      34.970  -9.916 -24.538  0.00  0.00    -0.173 NA
ATOM      3  C   UNL     1      33.649  -8.305 -23.591  0.00  0.00    +0.036 A 
ATOM      4  C   UNL     1      33.951  -9.679 -23.709  0.00  0.00    +0.102 A 
ATOM      5  C   UNL     1      34.570  -7.677 -24.422  0.00  0.00    +0.075 A 
ATOM      6  C   UNL     1      32.715  -7.528 -22.885  0.00  0.00    +0.006 C 
ATOM      7  C   UNL     1      32.746  -6.136 -23.047  0.00  0.00    +0.033 C 
ATOM      8  C   UNL     1      34.617  -6.292 -24.597  0.00  0.00    +0.019 C 
ATOM      9  C   UNL     1      33.682  -5.532 -23.889  0.00  0.00    +0.004 C 
ATOM     10  H   UNL     1      36.061  -8.530 -25.587  0.00  0.00    +0.189 HD
ENDROOT
BRANCH   7  14
ATOM     11  N   UNL     1      31.320  -4.140 -22.814  0.00  0.00    -0.218 N 
ATOM     12  N   UNL     1      31.264  -5.561 -21.156  0.00  0.00    -0.206 NA
ATOM     13  N   UNL     1      30.454  -3.577 -21.957  0.00  0.00    -0.157 NA
ATOM     14  C   UNL     1      31.797  -5.318 -22.332  0.00  0.00    +0.149 C 
ATOM     15  C   UNL     1      30.456  -4.477 -20.970  0.00  0.00    +0.218 C 
ATOM     16  H   UNL     1      31.576  -3.749 -23.682  0.00  0.00    +0.176 HD
ENDBRANCH   7  14
BRANCH   4  17
ATOM     17  C   UNL     1      33.287 -10.774 -23.049  0.00  0.00    +0.021 C 
ATOM     18  C   UNL     1      33.709 -12.085 -23.276  0.00  0.00    +0.016 C 
ATOM     19  C   UNL     1      32.223 -10.524 -22.184  0.00  0.00    +0.002 C 
ATOM     20  C   UNL     1      33.066 -13.144 -22.637  0.00  0.00    +0.051 C 
ATOM     21  C   UNL     1      31.580 -11.585 -21.545  0.00  0.00    +0.001 C 
ATOM     22  C   UNL     1      32.001 -12.895 -21.771  0.00  0.00    +0.015 C 
BRANCH  20  24
ATOM     23  O   UNL     1      33.464 -14.602 -25.187  0.00  0.00    -0.266 OA
ATOM     24  N   UNL     1      33.488 -14.456 -22.862  0.00  0.00    -0.278 N 
ATOM     25  C   UNL     1      33.668 -15.121 -24.092  0.00  0.00    +0.284 C 
ATOM     26  H   UNL     1      33.687 -14.984 -22.056  0.00  0.00    +0.155 HD
BRANCH  25  28
ATOM     27  O   UNL     1      33.470 -17.437 -24.785  0.00  0.00    -0.446 OA
ATOM     28  C   UNL     1      34.087 -16.528 -23.986  0.00  0.00    +0.199 C 
ATOM     29  C   UNL     1      35.031 -17.142 -23.196  0.00  0.00    +0.045 C 
ATOM     30  C   UNL     1      34.992 -18.517 -23.532  0.00  0.00    +0.044 C 
ATOM     31  C   UNL     1      34.027 -18.644 -24.504  0.00  0.00    +0.180 C 
ENDBRANCH  25  28
ENDBRANCH  20  24
ENDBRANCH   4  17
TORSDOF 4
ENDMDL
MODEL 6
REMARK VINA RESULT:     -10.3      8.789     15.010
REMARK  Name = 22479942
REMARK  4 active torsions:
REMARK  status: ('A' for Active; 'I' for Inactive)
REMARK    1  A    between atoms: C_4  and  C_17
REMARK    2  A    between atoms: C_7  and  C_14
REMARK    3  A    between atoms: C_20  and  N_24
REMARK    4  A    between atoms: C_25  and  C_28
REMARK                            x       y       z     vdW  Elec       q    Type
REMARK                         _______ _______ _______ _____ _____    ______ ____
ROOT
ATOM      1  N   UNL     1      31.800  -9.362 -20.513  0.00  0.00    -0.276 N 
ATOM      2  N   UNL     1      32.063 -10.510 -21.161  0.00  0.00    -0.173 NA
ATOM      3  C   UNL     1      32.660  -8.693 -22.416  0.00  0.00    +0.036 A 
ATOM      4  C   UNL     1      32.586 -10.098 -22.317  0.00  0.00    +0.102 A 
ATOM      5  C   UNL     1      32.135  -8.234 -21.214  0.00  0.00    +0.075 A 
ATOM      6  C   UNL     1      33.104  -7.764 -23.372  0.00  0.00    +0.006 C 
ATOM      7  C   UNL     1      33.002  -6.398 -23.075  0.00  0.00    +0.033 C 
ATOM      8  C   UNL     1      32.024  -6.878 -20.898  0.00  0.00    +0.019 C 
ATOM      9  C   UNL     1      32.470  -5.966 -21.859  0.00  0.00    +0.004 C 
ATOM     10  H   UNL     1      31.402  -9.335 -19.614  0.00  0.00    +0.189 HD
ENDROOT
BRANCH   7  14
ATOM     11  N   UNL     1      34.604  -5.563 -24.752  0.00  0.00    -0.218 N 
ATOM     12  N   UNL     1      32.855  -4.307 -24.382  0.00  0.00    -0.206 NA
ATOM     13  N   UNL     1      34.791  -4.525 -25.581  0.00  0.00    -0.157 NA
ATOM     14  C   UNL     1      33.451  -5.427 -24.043  0.00  0.00    +0.149 C 
ATOM     15  C   UNL     1      33.705  -3.793 -25.319  0.00  0.00    +0.218 C 
ATOM     16  H   UNL     1      35.221  -6.326 -24.668  0.00  0.00    +0.176 HD
ENDBRANCH   7  14
BRANCH   4  17
ATOM     17  C   UNL     1      33.006 -11.062 -23.303  0.00  0.00    +0.021 C 
ATOM     18  C   UNL     1      33.394 -12.342 -22.906  0.00  0.00    +0.016 C 
ATOM     19  C   UNL     1      33.024 -10.715 -24.653  0.00  0.00    +0.002 C 
ATOM     20  C   UNL     1      33.800 -13.274 -23.861  0.00  0.00    +0.051 C 
ATOM     21  C   UNL     1      33.431 -11.648 -25.608  0.00  0.00    +0.001 C 
ATOM     22  C   UNL     1      33.818 -12.927 -25.212  0.00  0.00    +0.015 C 
BRANCH  20  24
ATOM     23  O   UNL     1      33.863 -15.802 -25.407  0.00  0.00    -0.266 OA
ATOM     24  N   UNL     1      34.187 -14.556 -23.466  0.00  0.00    -0.278 N 
ATOM     25  C   UNL     1      34.205 -15.741 -24.228  0.00  0.00    +0.284 C 
ATOM     26  H   UNL     1      34.487 -14.642 -22.532  0.00  0.00    +0.155 HD
BRANCH  25  28
ATOM     27  O   UNL     1      35.334 -16.778 -22.348  0.00  0.00    -0.446 OA
ATOM     28  C   UNL     1      34.632 -16.947 -23.499  0.00  0.00    +0.199 C 
ATOM     29  C   UNL     1      34.454 -18.285 -23.763  0.00  0.00    +0.045 C 
ATOM     30  C   UNL     1      35.086 -18.983 -22.707  0.00  0.00    +0.044 C 
ATOM     31  C   UNL     1      35.606 -18.021 -21.871  0.00  0.00    +0.180 C 
ENDBRANCH  25  28
ENDBRANCH  20  24
ENDBRANCH   4  17
TORSDOF 4
ENDMDL
MODEL 7
REMARK VINA RESULT:     -10.2      8.762     14.840
REMARK  Name = 22479942
REMARK  4 active torsions:
REMARK  status: ('A' for Active; 'I' for Inactive)
REMARK    1  A    between atoms: C_4  and  C_17
REMARK    2  A    between atoms: C_7  and  C_14
REMARK    3  A    between atoms: C_20  and  N_24
REMARK    4  A    between atoms: C_25  and  C_28
REMARK                            x       y       z     vdW  Elec       q    Type
REMARK                         _______ _______ _______ _____ _____    ______ ____
ROOT
ATOM      1  N   UNL     1      35.342  -9.110 -25.021  0.00  0.00    -0.276 N 
ATOM      2  N   UNL     1      35.013 -10.333 -24.571  0.00  0.00    -0.173 NA
ATOM      3  C   UNL     1      33.761  -8.710 -23.555  0.00  0.00    +0.036 A 
ATOM      4  C   UNL     1      34.052 -10.085 -23.680  0.00  0.00    +0.102 A 
ATOM      5  C   UNL     1      34.626  -8.092 -24.450  0.00  0.00    +0.075 A 
ATOM      6  C   UNL     1      32.876  -7.923 -22.798  0.00  0.00    +0.006 C 
ATOM      7  C   UNL     1      32.899  -6.533 -22.975  0.00  0.00    +0.033 C 
ATOM      8  C   UNL     1      34.665  -6.709 -24.642  0.00  0.00    +0.019 C 
ATOM      9  C   UNL     1      33.779  -5.939 -23.882  0.00  0.00    +0.004 C 
ATOM     10  H   UNL     1      36.036  -8.960 -25.702  0.00  0.00    +0.189 HD
ENDROOT
BRANCH   7  14
ATOM     11  N   UNL     1      31.266  -4.701 -22.754  0.00  0.00    -0.218 N 
ATOM     12  N   UNL     1      31.756  -5.780 -20.918  0.00  0.00    -0.206 NA
ATOM     13  N   UNL     1      30.514  -4.087 -21.827  0.00  0.00    -0.157 NA
ATOM     14  C   UNL     1      32.000  -5.706 -22.207  0.00  0.00    +0.149 C 
ATOM     15  C   UNL     1      30.848  -4.778 -20.734  0.00  0.00    +0.218 C 
ATOM     16  H   UNL     1      31.282  -4.455 -23.708  0.00  0.00    +0.176 HD
ENDBRANCH   7  14
BRANCH   4  17
ATOM     17  C   UNL     1      33.429 -11.173 -22.967  0.00  0.00    +0.021 C 
ATOM     18  C   UNL     1      34.022 -12.436 -22.967  0.00  0.00    +0.016 C 
ATOM     19  C   UNL     1      32.236 -10.962 -22.278  0.00  0.00    +0.002 C 
ATOM     20  C   UNL     1      33.420 -13.488 -22.277  0.00  0.00    +0.051 C 
ATOM     21  C   UNL     1      31.634 -12.014 -21.588  0.00  0.00    +0.001 C 
ATOM     22  C   UNL     1      32.225 -13.277 -21.587  0.00  0.00    +0.015 C 
BRANCH  20  24
ATOM     23  O   UNL     1      34.705 -14.981 -20.063  0.00  0.00    -0.266 OA
ATOM     24  N   UNL     1      34.011 -14.752 -22.275  0.00  0.00    -0.278 N 
ATOM     25  C   UNL     1      34.616 -15.436 -21.201  0.00  0.00    +0.284 C 
ATOM     26  H   UNL     1      34.005 -15.228 -23.137  0.00  0.00    +0.155 HD
BRANCH  25  28
ATOM     27  O   UNL     1      35.744 -17.478 -20.537  0.00  0.00    -0.446 OA
ATOM     28  C   UNL     1      35.188 -16.750 -21.540  0.00  0.00    +0.199 C 
ATOM     29  C   UNL     1      35.278 -17.426 -22.734  0.00  0.00    +0.045 C 
ATOM     30  C   UNL     1      35.931 -18.648 -22.447  0.00  0.00    +0.044 C 
ATOM     31  C   UNL     1      36.193 -18.632 -21.096  0.00  0.00    +0.180 C 
ENDBRANCH  25  28
ENDBRANCH  20  24
ENDBRANCH   4  17
TORSDOF 4
ENDMDL
MODEL 8
REMARK VINA RESULT:     -10.0      5.194      8.693
REMARK  Name = 22479942
REMARK  4 active torsions:
REMARK  status: ('A' for Active; 'I' for Inactive)
REMARK    1  A    between atoms: C_4  and  C_17
REMARK    2  A    between atoms: C_7  and  C_14
REMARK    3  A    between atoms: C_20  and  N_24
REMARK    4  A    between atoms: C_25  and  C_28
REMARK                            x       y       z     vdW  Elec       q    Type
REMARK                         _______ _______ _______ _____ _____    ______ ____
ROOT
ATOM      1  N   UNL     1      35.355 -22.302 -17.249  0.00  0.00    -0.276 N 
ATOM      2  N   UNL     1      36.333 -22.801 -16.475  0.00  0.00    -0.173 NA
ATOM      3  C   UNL     1      34.275 -23.506 -15.768  0.00  0.00    +0.036 A 
ATOM      4  C   UNL     1      35.672 -23.533 -15.576  0.00  0.00    +0.102 A 
ATOM      5  C   UNL     1      34.095 -22.687 -16.876  0.00  0.00    +0.075 A 
ATOM      6  C   UNL     1      33.152 -24.072 -15.140  0.00  0.00    +0.006 C 
ATOM      7  C   UNL     1      31.882 -23.789 -15.660  0.00  0.00    +0.033 C 
ATOM      8  C   UNL     1      32.838 -22.391 -17.410  0.00  0.00    +0.019 C 
ATOM      9  C   UNL     1      31.731 -22.962 -16.775  0.00  0.00    +0.004 C 
ATOM     10  H   UNL     1      35.529 -21.711 -18.016  0.00  0.00    +0.189 HD
ENDROOT
BRANCH   7  14
ATOM     11  N   UNL     1      29.445 -23.993 -15.351  0.00  0.00    -0.218 N 
ATOM     12  N   UNL     1      30.686 -25.276 -14.091  0.00  0.00    -0.206 NA
ATOM     13  N   UNL     1      28.545 -24.669 -14.622  0.00  0.00    -0.157 NA
ATOM     14  C   UNL     1      30.715 -24.359 -15.030  0.00  0.00    +0.149 C 
ATOM     15  C   UNL     1      29.347 -25.432 -13.875  0.00  0.00    +0.218 C 
ATOM     16  H   UNL     1      29.216 -23.319 -16.032  0.00  0.00    +0.176 HD
ENDBRANCH   7  14
BRANCH   4  17
ATOM     17  C   UNL     1      36.395 -24.246 -14.552  0.00  0.00    +0.021 C 
ATOM     18  C   UNL     1      37.316 -25.232 -14.907  0.00  0.00    +0.016 C 
ATOM     19  C   UNL     1      36.175 -23.948 -13.209  0.00  0.00    +0.002 C 
ATOM     20  C   UNL     1      38.015 -25.921 -13.916  0.00  0.00    +0.051 C 
ATOM     21  C   UNL     1      36.874 -24.638 -12.217  0.00  0.00    +0.001 C 
ATOM     22  C   UNL     1      37.795 -25.624 -12.571  0.00  0.00    +0.015 C 
BRANCH  20  24
ATOM     23  O   UNL     1      40.581 -25.688 -15.381  0.00  0.00    -0.266 OA
ATOM     24  N   UNL     1      38.937 -26.908 -14.269  0.00  0.00    -0.278 N 
ATOM     25  C   UNL     1      40.152 -26.763 -14.968  0.00  0.00    +0.284 C 
ATOM     26  H   UNL     1      38.708 -27.824 -13.993  0.00  0.00    +0.155 HD
BRANCH  25  28
ATOM     27  O   UNL     1      41.703 -28.482 -14.241  0.00  0.00    -0.446 OA
ATOM     28  C   UNL     1      40.882 -28.017 -15.219  0.00  0.00    +0.199 C 
ATOM     29  C   UNL     1      40.901 -28.860 -16.306  0.00  0.00    +0.045 C 
ATOM     30  C   UNL     1      41.790 -29.910 -15.974  0.00  0.00    +0.044 C 
ATOM     31  C   UNL     1      42.251 -29.634 -14.708  0.00  0.00    +0.180 C 
ENDBRANCH  25  28
ENDBRANCH  20  24
ENDBRANCH   4  17
TORSDOF 4
ENDMDL
MODEL 9
REMARK VINA RESULT:      -9.7      7.169     11.463
REMARK  Name = 22479942
REMARK  4 active torsions:
REMARK  status: ('A' for Active; 'I' for Inactive)
REMARK    1  A    between atoms: C_4  and  C_17
REMARK    2  A    between atoms: C_7  and  C_14
REMARK    3  A    between atoms: C_20  and  N_24
REMARK    4  A    between atoms: C_25  and  C_28
REMARK                            x       y       z     vdW  Elec       q    Type
REMARK                         _______ _______ _______ _____ _____    ______ ____
ROOT
ATOM      1  N   UNL     1      33.161 -14.376 -25.215  0.00  0.00    -0.276 N 
ATOM      2  N   UNL     1      32.648 -13.404 -24.442  0.00  0.00    -0.173 NA
ATOM      3  C   UNL     1      33.870 -14.891 -23.204  0.00  0.00    +0.036 A 
ATOM      4  C   UNL     1      33.081 -13.721 -23.220  0.00  0.00    +0.102 A 
ATOM      5  C   UNL     1      33.904 -15.302 -24.532  0.00  0.00    +0.075 A 
ATOM      6  C   UNL     1      34.550 -15.645 -22.233  0.00  0.00    +0.006 C 
ATOM      7  C   UNL     1      35.245 -16.790 -22.641  0.00  0.00    +0.033 C 
ATOM      8  C   UNL     1      34.591 -16.440 -24.960  0.00  0.00    +0.019 C 
ATOM      9  C   UNL     1      35.264 -17.179 -23.982  0.00  0.00    +0.004 C 
ATOM     10  H   UNL     1      33.015 -14.419 -26.187  0.00  0.00    +0.189 HD
ENDROOT
BRANCH   7  14
ATOM     11  N   UNL     1      37.041 -18.335 -21.960  0.00  0.00    -0.218 N 
ATOM     12  N   UNL     1      35.671 -17.695 -20.382  0.00  0.00    -0.206 NA
ATOM     13  N   UNL     1      37.506 -18.970 -20.873  0.00  0.00    -0.157 NA
ATOM     14  C   UNL     1      35.950 -17.579 -21.660  0.00  0.00    +0.149 C 
ATOM     15  C   UNL     1      36.643 -18.549 -19.945  0.00  0.00    +0.218 C 
ATOM     16  H   UNL     1      37.438 -18.407 -22.858  0.00  0.00    +0.176 HD
ENDBRANCH   7  14
BRANCH   4  17
ATOM     17  C   UNL     1      32.732 -12.893 -22.093  0.00  0.00    +0.021 C 
ATOM     18  C   UNL     1      32.504 -11.529 -22.274  0.00  0.00    +0.016 C 
ATOM     19  C   UNL     1      32.622 -13.456 -20.822  0.00  0.00    +0.002 C 
ATOM     20  C   UNL     1      32.167 -10.728 -21.183  0.00  0.00    +0.051 C 
ATOM     21  C   UNL     1      32.285 -12.655 -19.731  0.00  0.00    +0.001 C 
ATOM     22  C   UNL     1      32.056 -11.291 -19.911  0.00  0.00    +0.015 C 
BRANCH  20  24
ATOM     23  O   UNL     1      32.755  -8.449 -19.381  0.00  0.00    -0.266 OA
ATOM     24  N   UNL     1      31.937  -9.363 -21.362  0.00  0.00    -0.278 N 
ATOM     25  C   UNL     1      32.230  -8.301 -20.483  0.00  0.00    +0.284 C 
ATOM     26  H   UNL     1      31.516  -9.110 -22.215  0.00  0.00    +0.155 HD
BRANCH  25  28
ATOM     27  O   UNL     1      31.181  -6.886 -22.151  0.00  0.00    -0.446 OA
ATOM     28  C   UNL     1      31.822  -6.968 -20.955  0.00  0.00    +0.199 C 
ATOM     29  C   UNL     1      31.967  -5.718 -20.399  0.00  0.00    +0.045 C 
ATOM     30  C   UNL     1      31.377  -4.810 -21.310  0.00  0.00    +0.044 C 
ATOM     31  C   UNL     1      30.913  -5.570 -22.360  0.00  0.00    +0.180 C 
ENDBRANCH  25  28
ENDBRANCH  20  24
ENDBRANCH   4  17
TORSDOF 4
ENDMDL
