MODEL 1
REMARK VINA RESULT:     -13.3      0.000      0.000
REMARK  Name = 4887
REMARK  9 active torsions:
REMARK  status: ('A' for Active; 'I' for Inactive)
REMARK    1  A    between atoms: N_2  and  C_8
REMARK    2  A    between atoms: C_3  and  C_23
REMARK    3  A    between atoms: C_14  and  C_20
REMARK    4  A    between atoms: C_22  and  O_28
REMARK    5  A    between atoms: O_28  and  C_29
REMARK    6  A    between atoms: C_29  and  C_30
REMARK    7  A    between atoms: C_30  and  C_31
REMARK    8  A    between atoms: C_31  and  C_32
REMARK    9  A    between atoms: C_32  and  C_33
REMARK                            x       y       z     vdW  Elec       q    Type
REMARK                         _______ _______ _______ _____ _____    ______ ____
ROOT
ATOM      1  O   UNL     1      33.466 -23.882 -18.330  0.00  0.00    -0.270 OA
ATOM      2  N   UNL     1      32.190 -22.209 -17.282  0.00  0.00    -0.278 N 
ATOM      3  C   UNL     1      33.112 -22.714 -18.206  0.00  0.00    +0.250 C 
ATOM      4  H   UNL     1      32.023 -21.240 -17.324  0.00  0.00    +0.155 HD
ENDROOT
BRANCH   2   8
ATOM      5  O   UNL     1      33.499 -23.411 -15.193  0.00  0.00    -0.442 OA
ATOM      6  O   UNL     1      31.538 -25.486 -12.290  0.00  0.00    -0.286 OA
ATOM      7  C   UNL     1      32.133 -23.528 -15.240  0.00  0.00    +0.163 C 
ATOM      8  C   UNL     1      31.477 -22.913 -16.307  0.00  0.00    +0.086 C 
ATOM      9  C   UNL     1      31.399 -24.223 -14.281  0.00  0.00    +0.075 C 
ATOM     10  C   UNL     1      30.089 -22.997 -16.410  0.00  0.00    +0.018 C 
ATOM     11  C   UNL     1      30.009 -24.310 -14.380  0.00  0.00    +0.006 C 
ATOM     12  C   UNL     1      32.116 -24.861 -13.168  0.00  0.00    +0.202 C 
ATOM     13  C   UNL     1      29.356 -23.694 -15.448  0.00  0.00    +0.002 C 
ATOM     14  C   UNL     1      34.187 -24.013 -14.145  0.00  0.00    +0.213 C 
ATOM     15  C   UNL     1      33.584 -24.707 -13.165  0.00  0.00    +0.090 C 
BRANCH  14  20
ATOM     16  N   UNL     1      36.415 -24.169 -15.230  0.00  0.00    -0.107 NA
ATOM     17  N   UNL     1      36.262 -23.202 -13.188  0.00  0.00    -0.084 NA
ATOM     18  N   UNL     1      37.586 -23.737 -14.741  0.00  0.00    -0.140 N 
ATOM     19  N   UNL     1      37.542 -23.157 -13.534  0.00  0.00    -0.022 NA
ATOM     20  C   UNL     1      35.615 -23.812 -14.222  0.00  0.00    +0.109 C 
ATOM     21  H   UNL     1      38.428 -23.839 -15.240  0.00  0.00    +0.197 HD
ENDBRANCH  14  20
ENDBRANCH   2   8
BRANCH   3  23
ATOM     22  C   UNL     1      34.892 -19.808 -20.788  0.00  0.00    +0.139 C 
ATOM     23  C   UNL     1      33.731 -21.704 -19.104  0.00  0.00    +0.054 C 
ATOM     24  C   UNL     1      35.698 -20.606 -19.976  0.00  0.00    +0.037 C 
ATOM     25  C   UNL     1      33.506 -19.958 -20.758  0.00  0.00    +0.037 C 
ATOM     26  C   UNL     1      35.117 -21.554 -19.133  0.00  0.00    +0.008 C 
ATOM     27  C   UNL     1      32.925 -20.906 -19.916  0.00  0.00    +0.008 C 
BRANCH  22  28
ATOM     28  O   UNL     1      35.459 -18.884 -21.611  0.00  0.00    -0.475 OA
BRANCH  28  29
ATOM     29  C   UNL     1      35.202 -19.016 -23.009  0.00  0.00    +0.205 C 
BRANCH  29  30
ATOM     30  C   UNL     1      34.802 -17.656 -23.564  0.00  0.00    +0.048 C 
BRANCH  30  31
ATOM     31  C   UNL     1      35.154 -16.527 -22.597  0.00  0.00    +0.009 C 
BRANCH  31  32
ATOM     32  C   UNL     1      34.836 -15.158 -23.204  0.00  0.00    +0.026 C 
BRANCH  32  33
ATOM     33  C   UNL     1      33.917 -14.356 -22.319  0.00  0.00    -0.022 C 
ATOM     34  C   UNL     1      33.927 -14.558 -20.939  0.00  0.00    -0.004 C 
ATOM     35  C   UNL     1      33.055 -13.414 -22.879  0.00  0.00    -0.004 C 
ATOM     36  C   UNL     1      33.076 -13.817 -20.119  0.00  0.00    -0.000 C 
ATOM     37  C   UNL     1      32.204 -12.672 -22.060  0.00  0.00    -0.000 C 
ATOM     38  C   UNL     1      32.214 -12.874 -20.680  0.00  0.00    -0.000 C 
ENDBRANCH  32  33
ENDBRANCH  31  32
ENDBRANCH  30  31
ENDBRANCH  29  30
ENDBRANCH  28  29
ENDBRANCH  22  28
ENDBRANCH   3  23
TORSDOF 9
ENDMDL
MODEL 2
REMARK VINA RESULT:     -13.1      1.742      3.975
REMARK  Name = 4887
REMARK  9 active torsions:
REMARK  status: ('A' for Active; 'I' for Inactive)
REMARK    1  A    between atoms: N_2  and  C_8
REMARK    2  A    between atoms: C_3  and  C_23
REMARK    3  A    between atoms: C_14  and  C_20
REMARK    4  A    between atoms: C_22  and  O_28
REMARK    5  A    between atoms: O_28  and  C_29
REMARK    6  A    between atoms: C_29  and  C_30
REMARK    7  A    between atoms: C_30  and  C_31
REMARK    8  A    between atoms: C_31  and  C_32
REMARK    9  A    between atoms: C_32  and  C_33
REMARK                            x       y       z     vdW  Elec       q    Type
REMARK                         _______ _______ _______ _____ _____    ______ ____
ROOT
ATOM      1  O   UNL     1      33.509 -24.144 -18.171  0.00  0.00    -0.270 OA
ATOM      2  N   UNL     1      33.782 -22.535 -16.479  0.00  0.00    -0.278 N 
ATOM      3  C   UNL     1      33.703 -22.992 -17.801  0.00  0.00    +0.250 C 
ATOM      4  H   UNL     1      33.942 -21.571 -16.364  0.00  0.00    +0.155 HD
ENDROOT
BRANCH   2   8
ATOM      5  O   UNL     1      31.314 -23.288 -15.550  0.00  0.00    -0.442 OA
ATOM      6  O   UNL     1      30.833 -25.468 -12.144  0.00  0.00    -0.286 OA
ATOM      7  C   UNL     1      32.412 -23.671 -14.822  0.00  0.00    +0.163 C 
ATOM      8  C   UNL     1      33.663 -23.283 -15.304  0.00  0.00    +0.086 C 
ATOM      9  C   UNL     1      32.320 -24.417 -13.649  0.00  0.00    +0.075 C 
ATOM     10  C   UNL     1      34.817 -23.642 -14.608  0.00  0.00    +0.018 C 
ATOM     11  C   UNL     1      33.473 -24.779 -12.949  0.00  0.00    +0.006 C 
ATOM     12  C   UNL     1      30.990 -24.812 -13.165  0.00  0.00    +0.202 C 
ATOM     13  C   UNL     1      34.722 -24.389 -13.433  0.00  0.00    +0.002 C 
ATOM     14  C   UNL     1      30.051 -23.656 -15.100  0.00  0.00    +0.213 C 
ATOM     15  C   UNL     1      29.842 -24.374 -13.984  0.00  0.00    +0.090 C 
BRANCH  14  20
ATOM     16  N   UNL     1      28.600 -23.732 -17.114  0.00  0.00    -0.107 NA
ATOM     17  N   UNL     1      28.283 -22.075 -15.602  0.00  0.00    -0.084 NA
ATOM     18  N   UNL     1      27.613 -22.882 -17.433  0.00  0.00    -0.140 N 
ATOM     19  N   UNL     1      27.390 -21.885 -16.566  0.00  0.00    -0.022 NA
ATOM     20  C   UNL     1      28.989 -23.186 -15.959  0.00  0.00    +0.109 C 
ATOM     21  H   UNL     1      27.083 -22.985 -18.256  0.00  0.00    +0.197 HD
ENDBRANCH  14  20
ENDBRANCH   2   8
BRANCH   3  23
ATOM     22  C   UNL     1      34.271 -20.001 -20.803  0.00  0.00    +0.139 C 
ATOM     23  C   UNL     1      33.900 -21.952 -18.845  0.00  0.00    +0.054 C 
ATOM     24  C   UNL     1      35.376 -20.607 -20.205  0.00  0.00    +0.037 C 
ATOM     25  C   UNL     1      32.981 -20.370 -20.422  0.00  0.00    +0.037 C 
ATOM     26  C   UNL     1      35.190 -21.583 -19.225  0.00  0.00    +0.008 C 
ATOM     27  C   UNL     1      32.795 -21.345 -19.443  0.00  0.00    +0.008 C 
BRANCH  22  28
ATOM     28  O   UNL     1      34.452 -19.051 -21.760  0.00  0.00    -0.475 OA
BRANCH  28  29
ATOM     29  C   UNL     1      35.327 -19.375 -22.840  0.00  0.00    +0.205 C 
BRANCH  29  30
ATOM     30  C   UNL     1      34.539 -19.335 -24.141  0.00  0.00    +0.048 C 
BRANCH  30  31
ATOM     31  C   UNL     1      33.827 -17.996 -24.327  0.00  0.00    +0.009 C 
BRANCH  31  32
ATOM     32  C   UNL     1      34.829 -16.843 -24.414  0.00  0.00    +0.026 C 
BRANCH  32  33
ATOM     33  C   UNL     1      34.364 -15.642 -23.630  0.00  0.00    -0.022 C 
ATOM     34  C   UNL     1      34.761 -15.479 -22.302  0.00  0.00    -0.004 C 
ATOM     35  C   UNL     1      33.538 -14.694 -24.231  0.00  0.00    -0.004 C 
ATOM     36  C   UNL     1      34.331 -14.369 -21.576  0.00  0.00    -0.000 C 
ATOM     37  C   UNL     1      33.108 -13.582 -23.506  0.00  0.00    -0.000 C 
ATOM     38  C   UNL     1      33.504 -13.420 -22.179  0.00  0.00    -0.000 C 
ENDBRANCH  32  33
ENDBRANCH  31  32
ENDBRANCH  30  31
ENDBRANCH  29  30
ENDBRANCH  28  29
ENDBRANCH  22  28
ENDBRANCH   3  23
TORSDOF 9
ENDMDL
MODEL 3
REMARK VINA RESULT:     -12.5      1.592      3.793
REMARK  Name = 4887
REMARK  9 active torsions:
REMARK  status: ('A' for Active; 'I' for Inactive)
REMARK    1  A    between atoms: N_2  and  C_8
REMARK    2  A    between atoms: C_3  and  C_23
REMARK    3  A    between atoms: C_14  and  C_20
REMARK    4  A    between atoms: C_22  and  O_28
REMARK    5  A    between atoms: O_28  and  C_29
REMARK    6  A    between atoms: C_29  and  C_30
REMARK    7  A    between atoms: C_30  and  C_31
REMARK    8  A    between atoms: C_31  and  C_32
REMARK    9  A    between atoms: C_32  and  C_33
REMARK                            x       y       z     vdW  Elec       q    Type
REMARK                         _______ _______ _______ _____ _____    ______ ____
ROOT
ATOM      1  O   UNL     1      34.222 -23.499 -17.989  0.00  0.00    -0.270 OA
ATOM      2  N   UNL     1      35.633 -22.064 -16.773  0.00  0.00    -0.278 N 
ATOM      3  C   UNL     1      34.852 -22.454 -17.868  0.00  0.00    +0.250 C 
ATOM      4  H   UNL     1      36.071 -21.186 -16.845  0.00  0.00    +0.155 HD
ENDROOT
BRANCH   2   8
ATOM      5  O   UNL     1      33.539 -22.971 -15.251  0.00  0.00    -0.442 OA
ATOM      6  O   UNL     1      34.091 -25.044 -11.790  0.00  0.00    -0.286 OA
ATOM      7  C   UNL     1      34.810 -23.238 -14.808  0.00  0.00    +0.163 C 
ATOM      8  C   UNL     1      35.868 -22.772 -15.591  0.00  0.00    +0.086 C 
ATOM      9  C   UNL     1      35.071 -23.941 -13.635  0.00  0.00    +0.075 C 
ATOM     10  C   UNL     1      37.183 -23.011 -15.193  0.00  0.00    +0.018 C 
ATOM     11  C   UNL     1      36.386 -24.184 -13.233  0.00  0.00    +0.006 C 
ATOM     12  C   UNL     1      33.938 -24.420 -12.831  0.00  0.00    +0.202 C 
ATOM     13  C   UNL     1      37.442 -23.716 -14.017  0.00  0.00    +0.002 C 
ATOM     14  C   UNL     1      32.460 -23.418 -14.497  0.00  0.00    +0.213 C 
ATOM     15  C   UNL     1      32.592 -24.105 -13.350  0.00  0.00    +0.090 C 
BRANCH  14  20
ATOM     16  N   UNL     1      30.027 -22.926 -14.426  0.00  0.00    -0.107 NA
ATOM     17  N   UNL     1      31.099 -22.846 -16.420  0.00  0.00    -0.084 NA
ATOM     18  N   UNL     1      29.235 -22.606 -15.460  0.00  0.00    -0.140 N 
ATOM     19  N   UNL     1      29.828 -22.547 -16.660  0.00  0.00    -0.022 NA
ATOM     20  C   UNL     1      31.185 -23.067 -15.077  0.00  0.00    +0.109 C 
ATOM     21  H   UNL     1      28.275 -22.425 -15.344  0.00  0.00    +0.197 HD
ENDBRANCH  14  20
ENDBRANCH   2   8
BRANCH   3  23
ATOM     22  C   UNL     1      34.753 -19.683 -21.123  0.00  0.00    +0.139 C 
ATOM     23  C   UNL     1      34.818 -21.490 -18.999  0.00  0.00    +0.054 C 
ATOM     24  C   UNL     1      33.563 -20.205 -20.615  0.00  0.00    +0.037 C 
ATOM     25  C   UNL     1      35.975 -20.064 -20.569  0.00  0.00    +0.037 C 
ATOM     26  C   UNL     1      33.596 -21.110 -19.554  0.00  0.00    +0.008 C 
ATOM     27  C   UNL     1      36.008 -20.968 -19.507  0.00  0.00    +0.008 C 
BRANCH  22  28
ATOM     28  O   UNL     1      34.721 -18.799 -22.157  0.00  0.00    -0.475 OA
BRANCH  28  29
ATOM     29  C   UNL     1      34.343 -19.308 -23.435  0.00  0.00    +0.205 C 
BRANCH  29  30
ATOM     30  C   UNL     1      33.964 -18.142 -24.337  0.00  0.00    +0.048 C 
BRANCH  30  31
ATOM     31  C   UNL     1      34.921 -16.963 -24.163  0.00  0.00    +0.009 C 
BRANCH  31  32
ATOM     32  C   UNL     1      34.214 -15.632 -24.434  0.00  0.00    +0.026 C 
BRANCH  32  33
ATOM     33  C   UNL     1      33.932 -14.883 -23.156  0.00  0.00    -0.022 C 
ATOM     34  C   UNL     1      34.574 -15.252 -21.975  0.00  0.00    -0.004 C 
ATOM     35  C   UNL     1      33.028 -13.821 -23.156  0.00  0.00    -0.004 C 
ATOM     36  C   UNL     1      34.313 -14.560 -20.793  0.00  0.00    -0.000 C 
ATOM     37  C   UNL     1      32.767 -13.128 -21.974  0.00  0.00    -0.000 C 
ATOM     38  C   UNL     1      33.409 -13.497 -20.793  0.00  0.00    -0.000 C 
ENDBRANCH  32  33
ENDBRANCH  31  32
ENDBRANCH  30  31
ENDBRANCH  29  30
ENDBRANCH  28  29
ENDBRANCH  22  28
ENDBRANCH   3  23
TORSDOF 9
ENDMDL
MODEL 4
REMARK VINA RESULT:     -12.0      1.592      3.789
REMARK  Name = 4887
REMARK  9 active torsions:
REMARK  status: ('A' for Active; 'I' for Inactive)
REMARK    1  A    between atoms: N_2  and  C_8
REMARK    2  A    between atoms: C_3  and  C_23
REMARK    3  A    between atoms: C_14  and  C_20
REMARK    4  A    between atoms: C_22  and  O_28
REMARK    5  A    between atoms: O_28  and  C_29
REMARK    6  A    between atoms: C_29  and  C_30
REMARK    7  A    between atoms: C_30  and  C_31
REMARK    8  A    between atoms: C_31  and  C_32
REMARK    9  A    between atoms: C_32  and  C_33
REMARK                            x       y       z     vdW  Elec       q    Type
REMARK                         _______ _______ _______ _____ _____    ______ ____
ROOT
ATOM      1  O   UNL     1      34.222 -23.512 -18.017  0.00  0.00    -0.270 OA
ATOM      2  N   UNL     1      35.600 -22.054 -16.793  0.00  0.00    -0.278 N 
ATOM      3  C   UNL     1      34.828 -22.454 -17.890  0.00  0.00    +0.250 C 
ATOM      4  H   UNL     1      36.018 -21.165 -16.859  0.00  0.00    +0.155 HD
ENDROOT
BRANCH   2   8
ATOM      5  O   UNL     1      33.526 -22.958 -15.242  0.00  0.00    -0.442 OA
ATOM      6  O   UNL     1      34.123 -25.037 -11.792  0.00  0.00    -0.286 OA
ATOM      7  C   UNL     1      34.802 -23.228 -14.818  0.00  0.00    +0.163 C 
ATOM      8  C   UNL     1      35.850 -22.763 -15.614  0.00  0.00    +0.086 C 
ATOM      9  C   UNL     1      35.079 -23.933 -13.649  0.00  0.00    +0.075 C 
ATOM     10  C   UNL     1      37.170 -23.005 -15.236  0.00  0.00    +0.018 C 
ATOM     11  C   UNL     1      36.399 -24.179 -13.266  0.00  0.00    +0.006 C 
ATOM     12  C   UNL     1      33.956 -24.411 -12.830  0.00  0.00    +0.202 C 
ATOM     13  C   UNL     1      37.445 -23.712 -14.064  0.00  0.00    +0.002 C 
ATOM     14  C   UNL     1      32.457 -23.405 -14.473  0.00  0.00    +0.213 C 
ATOM     15  C   UNL     1      32.604 -24.094 -13.329  0.00  0.00    +0.090 C 
BRANCH  14  20
ATOM     16  N   UNL     1      30.032 -22.880 -14.364  0.00  0.00    -0.107 NA
ATOM     17  N   UNL     1      31.063 -22.859 -16.381  0.00  0.00    -0.084 NA
ATOM     18  N   UNL     1      29.223 -22.573 -15.388  0.00  0.00    -0.140 N 
ATOM     19  N   UNL     1      29.791 -22.549 -16.601  0.00  0.00    -0.022 NA
ATOM     20  C   UNL     1      31.175 -23.050 -15.035  0.00  0.00    +0.109 C 
ATOM     21  H   UNL     1      28.268 -22.377 -15.257  0.00  0.00    +0.197 HD
ENDBRANCH  14  20
ENDBRANCH   2   8
BRANCH   3  23
ATOM     22  C   UNL     1      34.671 -19.664 -21.127  0.00  0.00    +0.139 C 
ATOM     23  C   UNL     1      34.773 -21.484 -19.015  0.00  0.00    +0.054 C 
ATOM     24  C   UNL     1      35.902 -20.038 -20.587  0.00  0.00    +0.037 C 
ATOM     25  C   UNL     1      33.491 -20.200 -20.611  0.00  0.00    +0.037 C 
ATOM     26  C   UNL     1      35.953 -20.947 -19.531  0.00  0.00    +0.008 C 
ATOM     27  C   UNL     1      33.541 -21.110 -19.555  0.00  0.00    +0.008 C 
BRANCH  22  28
ATOM     28  O   UNL     1      34.621 -18.778 -22.158  0.00  0.00    -0.475 OA
BRANCH  28  29
ATOM     29  C   UNL     1      34.222 -19.285 -23.431  0.00  0.00    +0.205 C 
BRANCH  29  30
ATOM     30  C   UNL     1      34.667 -18.308 -24.510  0.00  0.00    +0.048 C 
BRANCH  30  31
ATOM     31  C   UNL     1      34.034 -16.931 -24.319  0.00  0.00    +0.009 C 
BRANCH  31  32
ATOM     32  C   UNL     1      34.993 -15.975 -23.605  0.00  0.00    +0.026 C 
BRANCH  32  33
ATOM     33  C   UNL     1      34.251 -14.978 -22.751  0.00  0.00    -0.022 C 
ATOM     34  C   UNL     1      33.376 -14.068 -23.344  0.00  0.00    -0.004 C 
ATOM     35  C   UNL     1      34.441 -14.964 -21.371  0.00  0.00    -0.004 C 
ATOM     36  C   UNL     1      32.690 -13.145 -22.556  0.00  0.00    -0.000 C 
ATOM     37  C   UNL     1      33.755 -14.041 -20.581  0.00  0.00    -0.000 C 
ATOM     38  C   UNL     1      32.880 -13.131 -21.173  0.00  0.00    -0.000 C 
ENDBRANCH  32  33
ENDBRANCH  31  32
ENDBRANCH  30  31
ENDBRANCH  29  30
ENDBRANCH  28  29
ENDBRANCH  22  28
ENDBRANCH   3  23
TORSDOF 9
ENDMDL
MODEL 5
REMARK VINA RESULT:     -11.6      1.810      3.942
REMARK  Name = 4887
REMARK  9 active torsions:
REMARK  status: ('A' for Active; 'I' for Inactive)
REMARK    1  A    between atoms: N_2  and  C_8
REMARK    2  A    between atoms: C_3  and  C_23
REMARK    3  A    between atoms: C_14  and  C_20
REMARK    4  A    between atoms: C_22  and  O_28
REMARK    5  A    between atoms: O_28  and  C_29
REMARK    6  A    between atoms: C_29  and  C_30
REMARK    7  A    between atoms: C_30  and  C_31
REMARK    8  A    between atoms: C_31  and  C_32
REMARK    9  A    between atoms: C_32  and  C_33
REMARK                            x       y       z     vdW  Elec       q    Type
REMARK                         _______ _______ _______ _____ _____    ______ ____
ROOT
ATOM      1  O   UNL     1      34.567 -23.219 -18.363  0.00  0.00    -0.270 OA
ATOM      2  N   UNL     1      36.081 -21.823 -17.230  0.00  0.00    -0.278 N 
ATOM      3  C   UNL     1      35.213 -22.181 -18.269  0.00  0.00    +0.250 C 
ATOM      4  H   UNL     1      36.520 -20.946 -17.316  0.00  0.00    +0.155 HD
ENDROOT
BRANCH   2   8
ATOM      5  O   UNL     1      34.102 -22.832 -15.621  0.00  0.00    -0.442 OA
ATOM      6  O   UNL     1      34.905 -24.995 -12.265  0.00  0.00    -0.286 OA
ATOM      7  C   UNL     1      35.403 -23.078 -15.260  0.00  0.00    +0.163 C 
ATOM      8  C   UNL     1      36.401 -22.560 -16.086  0.00  0.00    +0.086 C 
ATOM      9  C   UNL     1      35.749 -23.809 -14.126  0.00  0.00    +0.075 C 
ATOM     10  C   UNL     1      37.743 -22.776 -15.772  0.00  0.00    +0.018 C 
ATOM     11  C   UNL     1      37.091 -24.029 -13.808  0.00  0.00    +0.006 C 
ATOM     12  C   UNL     1      34.676 -24.343 -13.275  0.00  0.00    +0.202 C 
ATOM     13  C   UNL     1      38.087 -23.510 -14.636  0.00  0.00    +0.002 C 
ATOM     14  C   UNL     1      33.080 -23.331 -14.821  0.00  0.00    +0.213 C 
ATOM     15  C   UNL     1      33.295 -24.049 -13.706  0.00  0.00    +0.090 C 
BRANCH  14  20
ATOM     16  N   UNL     1      30.657 -22.841 -14.587  0.00  0.00    -0.107 NA
ATOM     17  N   UNL     1      31.581 -22.807 -16.654  0.00  0.00    -0.084 NA
ATOM     18  N   UNL     1      29.791 -22.548 -15.568  0.00  0.00    -0.140 N 
ATOM     19  N   UNL     1      30.296 -22.517 -16.809  0.00  0.00    -0.022 NA
ATOM     20  C   UNL     1      31.765 -22.995 -15.315  0.00  0.00    +0.109 C 
ATOM     21  H   UNL     1      28.841 -22.366 -15.387  0.00  0.00    +0.197 HD
ENDBRANCH  14  20
ENDBRANCH   2   8
BRANCH   3  23
ATOM     22  C   UNL     1      34.887 -19.332 -21.440  0.00  0.00    +0.139 C 
ATOM     23  C   UNL     1      35.099 -21.191 -19.371  0.00  0.00    +0.054 C 
ATOM     24  C   UNL     1      36.137 -19.633 -20.898  0.00  0.00    +0.037 C 
ATOM     25  C   UNL     1      33.744 -19.960 -20.947  0.00  0.00    +0.037 C 
ATOM     26  C   UNL     1      36.243 -20.562 -19.864  0.00  0.00    +0.008 C 
ATOM     27  C   UNL     1      33.849 -20.890 -19.913  0.00  0.00    +0.008 C 
BRANCH  22  28
ATOM     28  O   UNL     1      34.784 -18.427 -22.451  0.00  0.00    -0.475 OA
BRANCH  28  29
ATOM     29  C   UNL     1      35.057 -17.064 -22.132  0.00  0.00    +0.205 C 
BRANCH  29  30
ATOM     30  C   UNL     1      35.110 -16.258 -23.423  0.00  0.00    +0.048 C 
BRANCH  30  31
ATOM     31  C   UNL     1      34.190 -15.039 -23.364  0.00  0.00    +0.009 C 
BRANCH  31  32
ATOM     32  C   UNL     1      34.070 -14.505 -21.935  0.00  0.00    +0.026 C 
BRANCH  32  33
ATOM     33  C   UNL     1      33.268 -13.229 -21.884  0.00  0.00    -0.022 C 
ATOM     34  C   UNL     1      33.429 -12.264 -22.877  0.00  0.00    -0.004 C 
ATOM     35  C   UNL     1      32.365 -13.014 -20.844  0.00  0.00    -0.004 C 
ATOM     36  C   UNL     1      32.689 -11.083 -22.831  0.00  0.00    -0.000 C 
ATOM     37  C   UNL     1      31.623 -11.834 -20.796  0.00  0.00    -0.000 C 
ATOM     38  C   UNL     1      31.785 -10.868 -21.789  0.00  0.00    -0.000 C 
ENDBRANCH  32  33
ENDBRANCH  31  32
ENDBRANCH  30  31
ENDBRANCH  29  30
ENDBRANCH  28  29
ENDBRANCH  22  28
ENDBRANCH   3  23
TORSDOF 9
ENDMDL
MODEL 6
REMARK VINA RESULT:     -11.2      1.288      1.847
REMARK  Name = 4887
REMARK  9 active torsions:
REMARK  status: ('A' for Active; 'I' for Inactive)
REMARK    1  A    between atoms: N_2  and  C_8
REMARK    2  A    between atoms: C_3  and  C_23
REMARK    3  A    between atoms: C_14  and  C_20
REMARK    4  A    between atoms: C_22  and  O_28
REMARK    5  A    between atoms: O_28  and  C_29
REMARK    6  A    between atoms: C_29  and  C_30
REMARK    7  A    between atoms: C_30  and  C_31
REMARK    8  A    between atoms: C_31  and  C_32
REMARK    9  A    between atoms: C_32  and  C_33
REMARK                            x       y       z     vdW  Elec       q    Type
REMARK                         _______ _______ _______ _____ _____    ______ ____
ROOT
ATOM      1  O   UNL     1      33.293 -24.084 -17.808  0.00  0.00    -0.270 OA
ATOM      2  N   UNL     1      33.101 -22.297 -16.293  0.00  0.00    -0.278 N 
ATOM      3  C   UNL     1      33.314 -22.887 -17.546  0.00  0.00    +0.250 C 
ATOM      4  H   UNL     1      33.154 -21.315 -16.264  0.00  0.00    +0.155 HD
ENDROOT
BRANCH   2   8
ATOM      5  O   UNL     1      35.124 -23.388 -14.797  0.00  0.00    -0.442 OA
ATOM      6  O   UNL     1      34.448 -25.264 -11.247  0.00  0.00    -0.286 OA
ATOM      7  C   UNL     1      33.846 -23.492 -14.311  0.00  0.00    +0.163 C 
ATOM      8  C   UNL     1      32.824 -22.933 -15.080  0.00  0.00    +0.086 C 
ATOM      9  C   UNL     1      33.543 -24.120 -13.105  0.00  0.00    +0.075 C 
ATOM     10  C   UNL     1      31.503 -23.007 -14.639  0.00  0.00    +0.018 C 
ATOM     11  C   UNL     1      32.222 -24.196 -12.658  0.00  0.00    +0.006 C 
ATOM     12  C   UNL     1      34.638 -24.699 -12.315  0.00  0.00    +0.202 C 
ATOM     13  C   UNL     1      31.202 -23.636 -13.430  0.00  0.00    +0.002 C 
ATOM     14  C   UNL     1      36.168 -23.935 -14.058  0.00  0.00    +0.213 C 
ATOM     15  C   UNL     1      35.994 -24.562 -12.883  0.00  0.00    +0.090 C 
BRANCH  14  20
ATOM     16  N   UNL     1      37.744 -22.912 -15.682  0.00  0.00    -0.107 NA
ATOM     17  N   UNL     1      38.517 -24.499 -14.263  0.00  0.00    -0.084 NA
ATOM     18  N   UNL     1      39.047 -23.191 -15.832  0.00  0.00    -0.140 N 
ATOM     19  N   UNL     1      39.547 -24.126 -15.012  0.00  0.00    -0.022 NA
ATOM     20  C   UNL     1      37.455 -23.756 -14.687  0.00  0.00    +0.109 C 
ATOM     21  H   UNL     1      39.603 -22.737 -16.504  0.00  0.00    +0.197 HD
ENDBRANCH  14  20
ENDBRANCH   2   8
BRANCH   3  23
ATOM     22  C   UNL     1      34.184 -20.164 -20.725  0.00  0.00    +0.139 C 
ATOM     23  C   UNL     1      33.617 -21.940 -18.651  0.00  0.00    +0.054 C 
ATOM     24  C   UNL     1      32.859 -20.460 -20.404  0.00  0.00    +0.037 C 
ATOM     25  C   UNL     1      35.225 -20.755 -20.009  0.00  0.00    +0.037 C 
ATOM     26  C   UNL     1      32.575 -21.349 -19.367  0.00  0.00    +0.008 C 
ATOM     27  C   UNL     1      34.942 -21.643 -18.972  0.00  0.00    +0.008 C 
BRANCH  22  28
ATOM     28  O   UNL     1      34.460 -19.295 -21.735  0.00  0.00    -0.475 OA
BRANCH  28  29
ATOM     29  C   UNL     1      35.829 -19.154 -22.114  0.00  0.00    +0.205 C 
BRANCH  29  30
ATOM     30  C   UNL     1      36.045 -17.750 -22.661  0.00  0.00    +0.048 C 
BRANCH  30  31
ATOM     31  C   UNL     1      35.176 -16.723 -21.938  0.00  0.00    +0.009 C 
BRANCH  31  32
ATOM     32  C   UNL     1      34.891 -15.512 -22.829  0.00  0.00    +0.026 C 
BRANCH  32  33
ATOM     33  C   UNL     1      33.946 -14.542 -22.165  0.00  0.00    -0.022 C 
ATOM     34  C   UNL     1      33.766 -14.581 -20.782  0.00  0.00    -0.004 C 
ATOM     35  C   UNL     1      33.252 -13.608 -22.932  0.00  0.00    -0.004 C 
ATOM     36  C   UNL     1      32.891 -13.685 -20.168  0.00  0.00    -0.000 C 
ATOM     37  C   UNL     1      32.378 -12.711 -22.318  0.00  0.00    -0.000 C 
ATOM     38  C   UNL     1      32.197 -12.750 -20.936  0.00  0.00    -0.000 C 
ENDBRANCH  32  33
ENDBRANCH  31  32
ENDBRANCH  30  31
ENDBRANCH  29  30
ENDBRANCH  28  29
ENDBRANCH  22  28
ENDBRANCH   3  23
TORSDOF 9
ENDMDL
MODEL 7
REMARK VINA RESULT:     -10.4      6.978     13.686
REMARK  Name = 4887
REMARK  9 active torsions:
REMARK  status: ('A' for Active; 'I' for Inactive)
REMARK    1  A    between atoms: N_2  and  C_8
REMARK    2  A    between atoms: C_3  and  C_23
REMARK    3  A    between atoms: C_14  and  C_20
REMARK    4  A    between atoms: C_22  and  O_28
REMARK    5  A    between atoms: O_28  and  C_29
REMARK    6  A    between atoms: C_29  and  C_30
REMARK    7  A    between atoms: C_30  and  C_31
REMARK    8  A    between atoms: C_31  and  C_32
REMARK    9  A    between atoms: C_32  and  C_33
REMARK                            x       y       z     vdW  Elec       q    Type
REMARK                         _______ _______ _______ _____ _____    ______ ____
ROOT
ATOM      1  O   UNL     1      32.759 -11.131 -25.374  0.00  0.00    -0.270 OA
ATOM      2  N   UNL     1      34.437 -10.390 -23.903  0.00  0.00    -0.278 N 
ATOM      3  C   UNL     1      33.637 -11.344 -24.545  0.00  0.00    +0.250 C 
ATOM      4  H   UNL     1      35.096 -10.740 -23.262  0.00  0.00    +0.155 HD
ENDROOT
BRANCH   2   8
ATOM      5  O   UNL     1      33.231  -8.794 -22.026  0.00  0.00    -0.442 OA
ATOM      6  O   UNL     1      33.094  -4.739 -22.370  0.00  0.00    -0.286 OA
ATOM      7  C   UNL     1      33.801  -8.180 -23.112  0.00  0.00    +0.163 C 
ATOM      8  C   UNL     1      34.411  -9.002 -24.061  0.00  0.00    +0.086 C 
ATOM      9  C   UNL     1      33.790  -6.799 -23.293  0.00  0.00    +0.075 C 
ATOM     10  C   UNL     1      35.008  -8.436 -25.188  0.00  0.00    +0.018 C 
ATOM     11  C   UNL     1      34.387  -6.228 -24.419  0.00  0.00    +0.006 C 
ATOM     12  C   UNL     1      33.141  -5.958 -22.278  0.00  0.00    +0.202 C 
ATOM     13  C   UNL     1      34.997  -7.052 -25.367  0.00  0.00    +0.002 C 
ATOM     14  C   UNL     1      32.612  -8.008 -21.061  0.00  0.00    +0.213 C 
ATOM     15  C   UNL     1      32.542  -6.668 -21.130  0.00  0.00    +0.090 C 
BRANCH  14  20
ATOM     16  N   UNL     1      31.951  -8.406 -18.700  0.00  0.00    -0.107 NA
ATOM     17  N   UNL     1      31.573 -10.035 -20.229  0.00  0.00    -0.084 NA
ATOM     18  N   UNL     1      31.375  -9.506 -18.195  0.00  0.00    -0.140 N 
ATOM     19  N   UNL     1      31.133 -10.497 -19.065  0.00  0.00    -0.022 NA
ATOM     20  C   UNL     1      32.055  -8.783 -19.978  0.00  0.00    +0.109 C 
ATOM     21  H   UNL     1      31.144  -9.583 -17.242  0.00  0.00    +0.197 HD
ENDBRANCH  14  20
ENDBRANCH   2   8
BRANCH   3  23
ATOM     22  C   UNL     1      34.344 -15.400 -23.390  0.00  0.00    +0.139 C 
ATOM     23  C   UNL     1      33.883 -12.754 -24.143  0.00  0.00    +0.054 C 
ATOM     24  C   UNL     1      33.963 -15.103 -24.699  0.00  0.00    +0.037 C 
ATOM     25  C   UNL     1      34.494 -14.373 -22.458  0.00  0.00    +0.037 C 
ATOM     26  C   UNL     1      33.732 -13.780 -25.076  0.00  0.00    +0.008 C 
ATOM     27  C   UNL     1      34.264 -13.050 -22.834  0.00  0.00    +0.008 C 
BRANCH  22  28
ATOM     28  O   UNL     1      34.572 -16.690 -23.024  0.00  0.00    -0.475 OA
BRANCH  28  29
ATOM     29  C   UNL     1      34.568 -17.670 -24.061  0.00  0.00    +0.205 C 
BRANCH  29  30
ATOM     30  C   UNL     1      34.165 -19.013 -23.468  0.00  0.00    +0.048 C 
BRANCH  30  31
ATOM     31  C   UNL     1      35.307 -19.642 -22.671  0.00  0.00    +0.009 C 
BRANCH  31  32
ATOM     32  C   UNL     1      35.306 -19.151 -21.222  0.00  0.00    +0.026 C 
BRANCH  32  33
ATOM     33  C   UNL     1      34.871 -20.235 -20.268  0.00  0.00    -0.022 C 
ATOM     34  C   UNL     1      35.827 -20.995 -19.593  0.00  0.00    -0.004 C 
ATOM     35  C   UNL     1      33.514 -20.479 -20.060  0.00  0.00    -0.004 C 
ATOM     36  C   UNL     1      35.425 -21.998 -18.712  0.00  0.00    -0.000 C 
ATOM     37  C   UNL     1      33.112 -21.482 -19.178  0.00  0.00    -0.000 C 
ATOM     38  C   UNL     1      34.067 -22.241 -18.504  0.00  0.00    -0.000 C 
ENDBRANCH  32  33
ENDBRANCH  31  32
ENDBRANCH  30  31
ENDBRANCH  29  30
ENDBRANCH  28  29
ENDBRANCH  22  28
ENDBRANCH   3  23
TORSDOF 9
ENDMDL
