MODEL 1
REMARK VINA RESULT:     -11.8      0.000      0.000
REMARK  Name = 447735
REMARK  4 active torsions:
REMARK  status: ('A' for Active; 'I' for Inactive)
REMARK    1  A    between atoms: N_2  and  C_13
REMARK    2  A    between atoms: C_3  and  C_18
REMARK    3  A    between atoms: C_7  and  C_15
REMARK    4  A    between atoms: C_26  and  C_30
REMARK                            x       y       z     vdW  Elec       q    Type
REMARK                         _______ _______ _______ _____ _____    ______ ____
ROOT
ATOM      1  O   UNL     1      33.793 -23.974 -17.516  0.00  0.00    -0.270 OA
ATOM      2  N   UNL     1      35.212 -22.507 -16.347  0.00  0.00    -0.280 N 
ATOM      3  C   UNL     1      34.402 -22.914 -17.416  0.00  0.00    +0.249 C 
ATOM      4  H   UNL     1      35.626 -21.619 -16.434  0.00  0.00    +0.155 HD
ENDROOT
BRANCH   2  13
ATOM      5  N   UNL     1      38.699 -25.676 -12.492  0.00  0.00    -0.274 NA
ATOM      6  C   UNL     1      37.009 -24.558 -13.864  0.00  0.00    +0.010 C 
ATOM      7  C   UNL     1      38.280 -25.298 -13.654  0.00  0.00    +0.053 C 
ATOM      8  C   UNL     1      36.076 -24.597 -12.819  0.00  0.00    -0.019 C 
ATOM      9  C   UNL     1      36.407 -25.382 -11.586  0.00  0.00    +0.053 C 
ATOM     10  C   UNL     1      37.904 -25.293 -11.320  0.00  0.00    +0.130 C 
ATOM     11  C   UNL     1      36.727 -23.859 -15.040  0.00  0.00    +0.016 C 
ATOM     12  C   UNL     1      34.844 -23.953 -12.971  0.00  0.00    -0.003 C 
ATOM     13  C   UNL     1      35.501 -23.207 -15.175  0.00  0.00    +0.051 C 
ATOM     14  C   UNL     1      34.561 -23.257 -14.145  0.00  0.00    +0.014 C 
BRANCH   7  15
ATOM     15  C   UNL     1      39.129 -25.638 -14.854  0.00  0.00    +0.040 C 
ATOM     16  C   UNL     1      40.556 -25.198 -14.579  0.00  0.00    +0.006 C 
ATOM     17  C   UNL     1      39.035 -27.129 -15.126  0.00  0.00    +0.006 C 
ENDBRANCH   7  15
ENDBRANCH   2  13
BRANCH   3  18
ATOM     18  C   UNL     1      34.308 -21.953 -18.546  0.00  0.00    +0.054 C 
ATOM     19  C   UNL     1      35.388 -20.432 -20.064  0.00  0.00    +0.000 C 
ATOM     20  C   UNL     1      34.132 -20.160 -20.658  0.00  0.00    +0.000 C 
ATOM     21  C   UNL     1      35.460 -21.343 -18.997  0.00  0.00    +0.005 C 
ATOM     22  C   UNL     1      33.075 -21.706 -19.104  0.00  0.00    +0.005 C 
ATOM     23  C   UNL     1      32.984 -20.804 -20.166  0.00  0.00    +0.000 C 
ATOM     24  C   UNL     1      34.060 -19.249 -21.724  0.00  0.00    +0.003 C 
ATOM     25  C   UNL     1      36.533 -19.787 -20.556  0.00  0.00    +0.000 C 
ATOM     26  C   UNL     1      35.209 -18.617 -22.200  0.00  0.00    +0.031 C 
ATOM     27  C   UNL     1      36.444 -18.886 -21.617  0.00  0.00    +0.003 C 
BRANCH  26  30
ATOM     28  N   UNL     1      35.646 -16.392 -23.211  0.00  0.00    -0.343 N 
ATOM     29  N   UNL     1      34.520 -18.039 -24.429  0.00  0.00    -0.285 NA
ATOM     30  C   UNL     1      35.118 -17.678 -23.306  0.00  0.00    +0.117 C 
ATOM     31  H   UNL     1      35.573 -15.772 -23.973  0.00  0.00    +0.144 HD
ATOM     32  H   UNL     1      36.092 -16.103 -22.382  0.00  0.00    +0.144 HD
ATOM     33  H   UNL     1      34.457 -17.404 -25.179  0.00  0.00    +0.188 HD
ENDBRANCH  26  30
ENDBRANCH   3  18
TORSDOF 4
ENDMDL
MODEL 2
REMARK VINA RESULT:     -11.0      1.024      1.075
REMARK  Name = 447735
REMARK  4 active torsions:
REMARK  status: ('A' for Active; 'I' for Inactive)
REMARK    1  A    between atoms: N_2  and  C_13
REMARK    2  A    between atoms: C_3  and  C_18
REMARK    3  A    between atoms: C_7  and  C_15
REMARK    4  A    between atoms: C_26  and  C_30
REMARK                            x       y       z     vdW  Elec       q    Type
REMARK                         _______ _______ _______ _____ _____    ______ ____
ROOT
ATOM      1  O   UNL     1      37.061 -22.653 -17.418  0.00  0.00    -0.270 OA
ATOM      2  N   UNL     1      34.928 -22.438 -16.451  0.00  0.00    -0.280 N 
ATOM      3  C   UNL     1      35.898 -22.266 -17.448  0.00  0.00    +0.249 C 
ATOM      4  H   UNL     1      34.040 -22.061 -16.644  0.00  0.00    +0.155 HD
ENDROOT
BRANCH   2  13
ATOM      5  N   UNL     1      37.923 -25.326 -12.006  0.00  0.00    -0.274 NA
ATOM      6  C   UNL     1      36.414 -24.323 -13.651  0.00  0.00    +0.010 C 
ATOM      7  C   UNL     1      37.662 -25.009 -13.231  0.00  0.00    +0.053 C 
ATOM      8  C   UNL     1      35.343 -24.354 -12.748  0.00  0.00    -0.019 C 
ATOM      9  C   UNL     1      35.518 -25.077 -11.446  0.00  0.00    +0.053 C 
ATOM     10  C   UNL     1      36.959 -24.925 -10.976  0.00  0.00    +0.130 C 
ATOM     11  C   UNL     1      36.281 -23.682 -14.885  0.00  0.00    +0.016 C 
ATOM     12  C   UNL     1      34.126 -23.761 -13.100  0.00  0.00    -0.003 C 
ATOM     13  C   UNL     1      35.068 -23.079 -15.220  0.00  0.00    +0.051 C 
ATOM     14  C   UNL     1      33.993 -23.122 -14.332  0.00  0.00    +0.014 C 
BRANCH   7  15
ATOM     15  C   UNL     1      38.684 -25.366 -14.284  0.00  0.00    +0.040 C 
ATOM     16  C   UNL     1      40.063 -25.340 -13.649  0.00  0.00    +0.006 C 
ATOM     17  C   UNL     1      38.349 -26.729 -14.862  0.00  0.00    +0.006 C 
ENDBRANCH   7  15
ENDBRANCH   2  13
BRANCH   3  18
ATOM     18  C   UNL     1      35.451 -21.509 -18.647  0.00  0.00    +0.054 C 
ATOM     19  C   UNL     1      35.945 -19.958 -20.417  0.00  0.00    +0.000 C 
ATOM     20  C   UNL     1      34.617 -20.097 -20.887  0.00  0.00    +0.000 C 
ATOM     21  C   UNL     1      36.352 -20.680 -19.284  0.00  0.00    +0.005 C 
ATOM     22  C   UNL     1      34.155 -21.662 -19.082  0.00  0.00    +0.005 C 
ATOM     23  C   UNL     1      33.734 -20.953 -20.208  0.00  0.00    +0.000 C 
ATOM     24  C   UNL     1      34.210 -19.375 -22.021  0.00  0.00    +0.003 C 
ATOM     25  C   UNL     1      36.826 -19.102 -21.097  0.00  0.00    +0.000 C 
ATOM     26  C   UNL     1      35.100 -18.529 -22.683  0.00  0.00    +0.031 C 
ATOM     27  C   UNL     1      36.406 -18.392 -22.221  0.00  0.00    +0.003 C 
BRANCH  26  30
ATOM     28  N   UNL     1      35.220 -16.553 -24.182  0.00  0.00    -0.343 N 
ATOM     29  N   UNL     1      33.719 -18.287 -24.634  0.00  0.00    -0.285 NA
ATOM     30  C   UNL     1      34.664 -17.789 -23.856  0.00  0.00    +0.117 C 
ATOM     31  H   UNL     1      34.909 -16.070 -24.982  0.00  0.00    +0.144 HD
ATOM     32  H   UNL     1      35.923 -16.164 -23.614  0.00  0.00    +0.144 HD
ATOM     33  H   UNL     1      33.421 -17.787 -25.429  0.00  0.00    +0.188 HD
ENDBRANCH  26  30
ENDBRANCH   3  18
TORSDOF 4
ENDMDL
MODEL 3
REMARK VINA RESULT:     -10.6      8.950     15.749
REMARK  Name = 447735
REMARK  4 active torsions:
REMARK  status: ('A' for Active; 'I' for Inactive)
REMARK    1  A    between atoms: N_2  and  C_13
REMARK    2  A    between atoms: C_3  and  C_18
REMARK    3  A    between atoms: C_7  and  C_15
REMARK    4  A    between atoms: C_26  and  C_30
REMARK                            x       y       z     vdW  Elec       q    Type
REMARK                         _______ _______ _______ _____ _____    ______ ____
ROOT
ATOM      1  O   UNL     1      31.116 -11.208 -21.788  0.00  0.00    -0.270 OA
ATOM      2  N   UNL     1      33.097 -10.083 -22.370  0.00  0.00    -0.280 N 
ATOM      3  C   UNL     1      32.276 -11.204 -22.183  0.00  0.00    +0.249 C 
ATOM      4  H   UNL     1      34.007 -10.265 -22.697  0.00  0.00    +0.155 HD
ENDROOT
BRANCH   2  13
ATOM      5  N   UNL     1      32.157  -4.277 -23.942  0.00  0.00    -0.274 NA
ATOM      6  C   UNL     1      32.592  -6.479 -22.966  0.00  0.00    +0.010 C 
ATOM      7  C   UNL     1      32.728  -5.434 -24.013  0.00  0.00    +0.053 C 
ATOM      8  C   UNL     1      32.133  -6.059 -21.711  0.00  0.00    -0.019 C 
ATOM      9  C   UNL     1      31.829  -4.606 -21.503  0.00  0.00    +0.053 C 
ATOM     10  C   UNL     1      31.278  -4.018 -22.796  0.00  0.00    +0.130 C 
ATOM     11  C   UNL     1      32.910  -7.820 -23.192  0.00  0.00    +0.016 C 
ATOM     12  C   UNL     1      32.021  -6.988 -20.672  0.00  0.00    -0.003 C 
ATOM     13  C   UNL     1      32.780  -8.742 -22.153  0.00  0.00    +0.051 C 
ATOM     14  C   UNL     1      32.340  -8.327 -20.896  0.00  0.00    +0.014 C 
BRANCH   7  15
ATOM     15  C   UNL     1      33.582  -5.724 -25.223  0.00  0.00    +0.040 C 
ATOM     16  C   UNL     1      33.154  -4.802 -26.351  0.00  0.00    +0.006 C 
ATOM     17  C   UNL     1      35.044  -5.537 -24.859  0.00  0.00    +0.006 C 
ENDBRANCH   7  15
ENDBRANCH   2  13
BRANCH   3  18
ATOM     18  C   UNL     1      32.912 -12.515 -22.478  0.00  0.00    +0.054 C 
ATOM     19  C   UNL     1      34.020 -14.500 -21.694  0.00  0.00    +0.000 C 
ATOM     20  C   UNL     1      34.097 -14.964 -23.028  0.00  0.00    +0.000 C 
ATOM     21  C   UNL     1      33.416 -13.260 -21.431  0.00  0.00    +0.005 C 
ATOM     22  C   UNL     1      32.975 -12.942 -23.784  0.00  0.00    +0.005 C 
ATOM     23  C   UNL     1      33.570 -14.173 -24.063  0.00  0.00    +0.000 C 
ATOM     24  C   UNL     1      34.701 -16.205 -23.290  0.00  0.00    +0.003 C 
ATOM     25  C   UNL     1      34.547 -15.292 -20.661  0.00  0.00    +0.000 C 
ATOM     26  C   UNL     1      35.220 -16.978 -22.251  0.00  0.00    +0.031 C 
ATOM     27  C   UNL     1      35.143 -16.522 -20.938  0.00  0.00    +0.003 C 
BRANCH  26  30
ATOM     28  N   UNL     1      35.120 -19.301 -23.120  0.00  0.00    -0.343 N 
ATOM     29  N   UNL     1      37.114 -18.456 -22.242  0.00  0.00    -0.285 NA
ATOM     30  C   UNL     1      35.841 -18.261 -22.538  0.00  0.00    +0.117 C 
ATOM     31  H   UNL     1      35.561 -20.162 -23.306  0.00  0.00    +0.144 HD
ATOM     32  H   UNL     1      34.170 -19.176 -23.345  0.00  0.00    +0.144 HD
ATOM     33  H   UNL     1      37.537 -19.325 -22.435  0.00  0.00    +0.188 HD
ENDBRANCH  26  30
ENDBRANCH   3  18
TORSDOF 4
ENDMDL
MODEL 4
REMARK VINA RESULT:     -10.5      9.497     16.100
REMARK  Name = 447735
REMARK  4 active torsions:
REMARK  status: ('A' for Active; 'I' for Inactive)
REMARK    1  A    between atoms: N_2  and  C_13
REMARK    2  A    between atoms: C_3  and  C_18
REMARK    3  A    between atoms: C_7  and  C_15
REMARK    4  A    between atoms: C_26  and  C_30
REMARK                            x       y       z     vdW  Elec       q    Type
REMARK                         _______ _______ _______ _____ _____    ______ ____
ROOT
ATOM      1  O   UNL     1      34.614  -9.800 -24.412  0.00  0.00    -0.270 OA
ATOM      2  N   UNL     1      32.822 -10.004 -22.902  0.00  0.00    -0.280 N 
ATOM      3  C   UNL     1      33.796 -10.473 -23.794  0.00  0.00    +0.249 C 
ATOM      4  H   UNL     1      32.247 -10.689 -22.493  0.00  0.00    +0.155 HD
ENDROOT
BRANCH   2  13
ATOM      5  N   UNL     1      32.011  -4.034 -23.780  0.00  0.00    -0.274 NA
ATOM      6  C   UNL     1      32.420  -6.342 -23.076  0.00  0.00    +0.010 C 
ATOM      7  C   UNL     1      32.533  -5.194 -24.011  0.00  0.00    +0.053 C 
ATOM      8  C   UNL     1      32.056  -6.047 -21.755  0.00  0.00    -0.019 C 
ATOM      9  C   UNL     1      31.823  -4.616 -21.375  0.00  0.00    +0.053 C 
ATOM     10  C   UNL     1      31.216  -3.873 -22.558  0.00  0.00    +0.130 C 
ATOM     11  C   UNL     1      32.673  -7.660 -23.464  0.00  0.00    +0.016 C 
ATOM     12  C   UNL     1      31.973  -7.080 -20.816  0.00  0.00    -0.003 C 
ATOM     13  C   UNL     1      32.571  -8.685 -22.522  0.00  0.00    +0.051 C 
ATOM     14  C   UNL     1      32.226  -8.396 -21.202  0.00  0.00    +0.014 C 
BRANCH   7  15
ATOM     15  C   UNL     1      33.299  -5.377 -25.299  0.00  0.00    +0.040 C 
ATOM     16  C   UNL     1      32.792  -4.367 -26.313  0.00  0.00    +0.006 C 
ATOM     17  C   UNL     1      34.783  -5.212 -25.024  0.00  0.00    +0.006 C 
ENDBRANCH   7  15
ENDBRANCH   2  13
BRANCH   3  18
ATOM     18  C   UNL     1      33.799 -11.943 -24.018  0.00  0.00    +0.054 C 
ATOM     19  C   UNL     1      34.292 -14.157 -23.219  0.00  0.00    +0.000 C 
ATOM     20  C   UNL     1      33.804 -14.687 -24.436  0.00  0.00    +0.000 C 
ATOM     21  C   UNL     1      34.282 -12.766 -23.022  0.00  0.00    +0.005 C 
ATOM     22  C   UNL     1      33.319 -12.432 -25.211  0.00  0.00    +0.005 C 
ATOM     23  C   UNL     1      33.321 -13.811 -25.424  0.00  0.00    +0.000 C 
ATOM     24  C   UNL     1      33.814 -16.078 -24.633  0.00  0.00    +0.003 C 
ATOM     25  C   UNL     1      34.775 -15.033 -22.234  0.00  0.00    +0.000 C 
ATOM     26  C   UNL     1      34.298 -16.933 -23.642  0.00  0.00    +0.031 C 
ATOM     27  C   UNL     1      34.778 -16.411 -22.445  0.00  0.00    +0.003 C 
BRANCH  26  30
ATOM     28  N   UNL     1      35.089 -19.220 -23.087  0.00  0.00    -0.343 N 
ATOM     29  N   UNL     1      33.547 -18.893 -24.813  0.00  0.00    -0.285 NA
ATOM     30  C   UNL     1      34.300 -18.371 -23.861  0.00  0.00    +0.117 C 
ATOM     31  H   UNL     1      35.075 -20.191 -23.253  0.00  0.00    +0.144 HD
ATOM     32  H   UNL     1      35.659 -18.850 -22.375  0.00  0.00    +0.144 HD
ATOM     33  H   UNL     1      33.547 -19.867 -24.963  0.00  0.00    +0.188 HD
ENDBRANCH  26  30
ENDBRANCH   3  18
TORSDOF 4
ENDMDL
MODEL 5
REMARK VINA RESULT:     -10.5      1.156      2.663
REMARK  Name = 447735
REMARK  4 active torsions:
REMARK  status: ('A' for Active; 'I' for Inactive)
REMARK    1  A    between atoms: N_2  and  C_13
REMARK    2  A    between atoms: C_3  and  C_18
REMARK    3  A    between atoms: C_7  and  C_15
REMARK    4  A    between atoms: C_26  and  C_30
REMARK                            x       y       z     vdW  Elec       q    Type
REMARK                         _______ _______ _______ _____ _____    ______ ____
ROOT
ATOM      1  O   UNL     1      34.449 -23.338 -17.250  0.00  0.00    -0.270 OA
ATOM      2  N   UNL     1      36.548 -22.326 -16.935  0.00  0.00    -0.280 N 
ATOM      3  C   UNL     1      35.299 -22.505 -17.545  0.00  0.00    +0.249 C 
ATOM      4  H   UNL     1      37.107 -21.604 -17.302  0.00  0.00    +0.155 HD
ENDROOT
BRANCH   2  13
ATOM      5  N   UNL     1      36.421 -25.544 -11.768  0.00  0.00    -0.274 NA
ATOM      6  C   UNL     1      36.826 -24.175 -13.756  0.00  0.00    +0.010 C 
ATOM      7  C   UNL     1      36.025 -24.629 -12.591  0.00  0.00    +0.053 C 
ATOM      8  C   UNL     1      38.191 -24.489 -13.745  0.00  0.00    -0.019 C 
ATOM      9  C   UNL     1      38.750 -25.235 -12.571  0.00  0.00    +0.053 C 
ATOM     10  C   UNL     1      37.700 -26.207 -12.047  0.00  0.00    +0.130 C 
ATOM     11  C   UNL     1      36.273 -23.458 -14.819  0.00  0.00    +0.016 C 
ATOM     12  C   UNL     1      39.008 -24.055 -14.795  0.00  0.00    -0.003 C 
ATOM     13  C   UNL     1      37.093 -23.043 -15.870  0.00  0.00    +0.051 C 
ATOM     14  C   UNL     1      38.456 -23.338 -15.856  0.00  0.00    +0.014 C 
BRANCH   7  15
ATOM     15  C   UNL     1      34.681 -23.990 -12.339  0.00  0.00    +0.040 C 
ATOM     16  C   UNL     1      33.617 -24.802 -13.055  0.00  0.00    +0.006 C 
ATOM     17  C   UNL     1      34.433 -23.921 -10.843  0.00  0.00    +0.006 C 
ENDBRANCH   7  15
ENDBRANCH   2  13
BRANCH   3  18
ATOM     18  C   UNL     1      35.010 -21.595 -18.685  0.00  0.00    +0.054 C 
ATOM     19  C   UNL     1      35.797 -20.044 -20.345  0.00  0.00    +0.000 C 
ATOM     20  C   UNL     1      34.470 -19.897 -20.813  0.00  0.00    +0.000 C 
ATOM     21  C   UNL     1      36.054 -20.907 -19.268  0.00  0.00    +0.005 C 
ATOM     22  C   UNL     1      33.711 -21.471 -19.120  0.00  0.00    +0.005 C 
ATOM     23  C   UNL     1      33.437 -20.618 -20.190  0.00  0.00    +0.000 C 
ATOM     24  C   UNL     1      34.212 -19.034 -21.891  0.00  0.00    +0.003 C 
ATOM     25  C   UNL     1      36.827 -19.323 -20.969  0.00  0.00    +0.000 C 
ATOM     26  C   UNL     1      35.250 -18.325 -22.498  0.00  0.00    +0.031 C 
ATOM     27  C   UNL     1      36.555 -18.469 -22.038  0.00  0.00    +0.003 C 
BRANCH  26  30
ATOM     28  N   UNL     1      35.435 -16.123 -23.630  0.00  0.00    -0.343 N 
ATOM     29  N   UNL     1      34.249 -17.869 -24.635  0.00  0.00    -0.285 NA
ATOM     30  C   UNL     1      34.967 -17.436 -23.613  0.00  0.00    +0.117 C 
ATOM     31  H   UNL     1      35.232 -15.539 -24.396  0.00  0.00    +0.144 HD
ATOM     32  H   UNL     1      35.969 -15.781 -22.877  0.00  0.00    +0.144 HD
ATOM     33  H   UNL     1      34.056 -17.268 -25.391  0.00  0.00    +0.188 HD
ENDBRANCH  26  30
ENDBRANCH   3  18
TORSDOF 4
ENDMDL
MODEL 6
REMARK VINA RESULT:     -10.2      9.807     16.563
REMARK  Name = 447735
REMARK  4 active torsions:
REMARK  status: ('A' for Active; 'I' for Inactive)
REMARK    1  A    between atoms: N_2  and  C_13
REMARK    2  A    between atoms: C_3  and  C_18
REMARK    3  A    between atoms: C_7  and  C_15
REMARK    4  A    between atoms: C_26  and  C_30
REMARK                            x       y       z     vdW  Elec       q    Type
REMARK                         _______ _______ _______ _____ _____    ______ ____
ROOT
ATOM      1  O   UNL     1      30.562  -9.966 -22.159  0.00  0.00    -0.270 OA
ATOM      2  N   UNL     1      32.657  -8.949 -21.830  0.00  0.00    -0.280 N 
ATOM      3  C   UNL     1      31.765 -10.025 -21.929  0.00  0.00    +0.249 C 
ATOM      4  H   UNL     1      33.594  -9.181 -21.640  0.00  0.00    +0.155 HD
ENDROOT
BRANCH   2  13
ATOM      5  N   UNL     1      32.103  -3.679 -24.829  0.00  0.00    -0.274 NA
ATOM      6  C   UNL     1      32.358  -5.587 -23.318  0.00  0.00    +0.010 C 
ATOM      7  C   UNL     1      32.630  -4.830 -24.566  0.00  0.00    +0.053 C 
ATOM      8  C   UNL     1      31.808  -4.867 -22.249  0.00  0.00    -0.019 C 
ATOM      9  C   UNL     1      31.549  -3.401 -22.426  0.00  0.00    +0.053 C 
ATOM     10  C   UNL     1      31.139  -3.133 -23.868  0.00  0.00    +0.130 C 
ATOM     11  C   UNL     1      32.639  -6.949 -23.184  0.00  0.00    +0.016 C 
ATOM     12  C   UNL     1      31.566  -5.514 -21.033  0.00  0.00    -0.003 C 
ATOM     13  C   UNL     1      32.378  -7.589 -21.971  0.00  0.00    +0.051 C 
ATOM     14  C   UNL     1      31.847  -6.873 -20.899  0.00  0.00    +0.014 C 
BRANCH   7  15
ATOM     15  C   UNL     1      33.575  -5.421 -25.584  0.00  0.00    +0.040 C 
ATOM     16  C   UNL     1      33.297  -4.781 -26.932  0.00  0.00    +0.006 C 
ATOM     17  C   UNL     1      35.005  -5.193 -25.129  0.00  0.00    +0.006 C 
ENDBRANCH   7  15
ENDBRANCH   2  13
BRANCH   3  18
ATOM     18  C   UNL     1      32.360 -11.369 -21.701  0.00  0.00    +0.054 C 
ATOM     19  C   UNL     1      33.618 -13.243 -22.530  0.00  0.00    +0.000 C 
ATOM     20  C   UNL     1      33.473 -13.875 -21.273  0.00  0.00    +0.000 C 
ATOM     21  C   UNL     1      33.050 -11.974 -22.730  0.00  0.00    +0.005 C 
ATOM     22  C   UNL     1      32.204 -11.961 -20.469  0.00  0.00    +0.005 C 
ATOM     23  C   UNL     1      32.762 -13.222 -20.252  0.00  0.00    +0.000 C 
ATOM     24  C   UNL     1      34.041 -15.144 -21.073  0.00  0.00    +0.003 C 
ATOM     25  C   UNL     1      34.328 -13.897 -23.549  0.00  0.00    +0.000 C 
ATOM     26  C   UNL     1      34.743 -15.780 -22.097  0.00  0.00    +0.031 C 
ATOM     27  C   UNL     1      34.886 -15.157 -23.334  0.00  0.00    +0.003 C 
BRANCH  26  30
ATOM     28  N   UNL     1      35.476 -17.610 -20.589  0.00  0.00    -0.343 N 
ATOM     29  N   UNL     1      35.730 -17.817 -22.903  0.00  0.00    -0.285 NA
ATOM     30  C   UNL     1      35.326 -17.093 -21.874  0.00  0.00    +0.117 C 
ATOM     31  H   UNL     1      35.874 -18.502 -20.462  0.00  0.00    +0.144 HD
ATOM     32  H   UNL     1      35.185 -17.085 -19.809  0.00  0.00    +0.144 HD
ATOM     33  H   UNL     1      36.126 -18.707 -22.755  0.00  0.00    +0.188 HD
ENDBRANCH  26  30
ENDBRANCH   3  18
TORSDOF 4
ENDMDL
MODEL 7
REMARK VINA RESULT:     -10.0      3.769     11.779
REMARK  Name = 447735
REMARK  4 active torsions:
REMARK  status: ('A' for Active; 'I' for Inactive)
REMARK    1  A    between atoms: N_2  and  C_13
REMARK    2  A    between atoms: C_3  and  C_18
REMARK    3  A    between atoms: C_7  and  C_15
REMARK    4  A    between atoms: C_26  and  C_30
REMARK                            x       y       z     vdW  Elec       q    Type
REMARK                         _______ _______ _______ _____ _____    ______ ____
ROOT
ATOM      1  O   UNL     1      34.607 -18.953 -23.387  0.00  0.00    -0.270 OA
ATOM      2  N   UNL     1      34.938 -16.986 -22.143  0.00  0.00    -0.280 N 
ATOM      3  C   UNL     1      34.955 -18.369 -22.367  0.00  0.00    +0.249 C 
ATOM      4  H   UNL     1      35.255 -16.688 -21.260  0.00  0.00    +0.155 HD
ENDROOT
BRANCH   2  13
ATOM      5  N   UNL     1      33.180 -11.373 -23.714  0.00  0.00    -0.274 NA
ATOM      6  C   UNL     1      33.721 -13.738 -23.398  0.00  0.00    +0.010 C 
ATOM      7  C   UNL     1      33.258 -12.404 -22.939  0.00  0.00    +0.053 C 
ATOM      8  C   UNL     1      33.722 -13.966 -24.780  0.00  0.00    -0.019 C 
ATOM      9  C   UNL     1      33.249 -12.873 -25.691  0.00  0.00    +0.053 C 
ATOM     10  C   UNL     1      33.637 -11.523 -25.100  0.00  0.00    +0.130 C 
ATOM     11  C   UNL     1      34.129 -14.741 -22.515  0.00  0.00    +0.016 C 
ATOM     12  C   UNL     1      34.109 -15.216 -25.274  0.00  0.00    -0.003 C 
ATOM     13  C   UNL     1      34.529 -15.980 -23.018  0.00  0.00    +0.051 C 
ATOM     14  C   UNL     1      34.516 -16.217 -24.393  0.00  0.00    +0.014 C 
BRANCH   7  15
ATOM     15  C   UNL     1      32.847 -12.233 -21.497  0.00  0.00    +0.040 C 
ATOM     16  C   UNL     1      31.830 -11.109 -21.412  0.00  0.00    +0.006 C 
ATOM     17  C   UNL     1      32.288 -13.546 -20.978  0.00  0.00    +0.006 C 
ENDBRANCH   7  15
ENDBRANCH   2  13
BRANCH   3  18
ATOM     18  C   UNL     1      35.423 -19.194 -21.222  0.00  0.00    +0.054 C 
ATOM     19  C   UNL     1      34.944 -20.794 -19.492  0.00  0.00    +0.000 C 
ATOM     20  C   UNL     1      36.299 -20.736 -19.087  0.00  0.00    +0.000 C 
ATOM     21  C   UNL     1      34.517 -20.008 -20.575  0.00  0.00    +0.005 C 
ATOM     22  C   UNL     1      36.745 -19.119 -20.849  0.00  0.00    +0.005 C 
ATOM     23  C   UNL     1      37.188 -19.893 -19.775  0.00  0.00    +0.000 C 
ATOM     24  C   UNL     1      36.726 -21.522 -18.003  0.00  0.00    +0.003 C 
ATOM     25  C   UNL     1      34.058 -21.636 -18.802  0.00  0.00    +0.000 C 
ATOM     26  C   UNL     1      35.830 -22.353 -17.330  0.00  0.00    +0.031 C 
ATOM     27  C   UNL     1      34.498 -22.410 -17.729  0.00  0.00    +0.003 C 
BRANCH  26  30
ATOM     28  N   UNL     1      37.600 -23.081 -15.748  0.00  0.00    -0.343 N 
ATOM     29  N   UNL     1      35.453 -23.995 -15.617  0.00  0.00    -0.285 NA
ATOM     30  C   UNL     1      36.288 -23.161 -16.211  0.00  0.00    +0.117 C 
ATOM     31  H   UNL     1      37.888 -23.637 -14.988  0.00  0.00    +0.144 HD
ATOM     32  H   UNL     1      38.238 -22.468 -16.179  0.00  0.00    +0.144 HD
ATOM     33  H   UNL     1      35.761 -24.544 -14.859  0.00  0.00    +0.188 HD
ENDBRANCH  26  30
ENDBRANCH   3  18
TORSDOF 4
ENDMDL
MODEL 8
REMARK VINA RESULT:      -9.9      0.698      1.483
REMARK  Name = 447735
REMARK  4 active torsions:
REMARK  status: ('A' for Active; 'I' for Inactive)
REMARK    1  A    between atoms: N_2  and  C_13
REMARK    2  A    between atoms: C_3  and  C_18
REMARK    3  A    between atoms: C_7  and  C_15
REMARK    4  A    between atoms: C_26  and  C_30
REMARK                            x       y       z     vdW  Elec       q    Type
REMARK                         _______ _______ _______ _____ _____    ______ ____
ROOT
ATOM      1  O   UNL     1      34.352 -23.447 -17.610  0.00  0.00    -0.270 OA
ATOM      2  N   UNL     1      36.062 -22.407 -16.376  0.00  0.00    -0.280 N 
ATOM      3  C   UNL     1      35.205 -22.578 -17.471  0.00  0.00    +0.249 C 
ATOM      4  H   UNL     1      36.689 -21.650 -16.432  0.00  0.00    +0.155 HD
ENDROOT
BRANCH   2  13
ATOM      5  N   UNL     1      38.702 -26.091 -12.311  0.00  0.00    -0.274 NA
ATOM      6  C   UNL     1      37.318 -24.737 -13.808  0.00  0.00    +0.010 C 
ATOM      7  C   UNL     1      38.465 -25.626 -13.494  0.00  0.00    +0.053 C 
ATOM      8  C   UNL     1      36.271 -24.705 -12.878  0.00  0.00    -0.019 C 
ATOM      9  C   UNL     1      36.366 -25.566 -11.655  0.00  0.00    +0.053 C 
ATOM     10  C   UNL     1      37.823 -25.660 -11.219  0.00  0.00    +0.130 C 
ATOM     11  C   UNL     1      37.255 -23.970 -14.974  0.00  0.00    +0.016 C 
ATOM     12  C   UNL     1      35.144 -23.918 -13.136  0.00  0.00    -0.003 C 
ATOM     13  C   UNL     1      36.132 -23.175 -15.214  0.00  0.00    +0.051 C 
ATOM     14  C   UNL     1      35.079 -23.153 -14.300  0.00  0.00    +0.014 C 
BRANCH   7  15
ATOM     15  C   UNL     1      39.407 -26.020 -14.606  0.00  0.00    +0.040 C 
ATOM     16  C   UNL     1      40.799 -26.192 -14.025  0.00  0.00    +0.006 C 
ATOM     17  C   UNL     1      38.902 -27.293 -15.260  0.00  0.00    +0.006 C 
ENDBRANCH   7  15
ENDBRANCH   2  13
BRANCH   3  18
ATOM     18  C   UNL     1      35.388 -21.605 -18.581  0.00  0.00    +0.054 C 
ATOM     19  C   UNL     1      34.471 -20.399 -20.449  0.00  0.00    +0.000 C 
ATOM     20  C   UNL     1      35.731 -19.788 -20.652  0.00  0.00    +0.000 C 
ATOM     21  C   UNL     1      34.314 -21.316 -19.396  0.00  0.00    +0.005 C 
ATOM     22  C   UNL     1      36.624 -21.026 -18.757  0.00  0.00    +0.005 C 
ATOM     23  C   UNL     1      36.799 -20.112 -19.797  0.00  0.00    +0.000 C 
ATOM     24  C   UNL     1      35.889 -18.872 -21.704  0.00  0.00    +0.003 C 
ATOM     25  C   UNL     1      33.406 -20.075 -21.304  0.00  0.00    +0.000 C 
ATOM     26  C   UNL     1      34.818 -18.562 -22.544  0.00  0.00    +0.031 C 
ATOM     27  C   UNL     1      33.579 -19.162 -22.344  0.00  0.00    +0.003 C 
BRANCH  26  30
ATOM     28  N   UNL     1      35.598 -16.371 -23.415  0.00  0.00    -0.343 N 
ATOM     29  N   UNL     1      34.581 -17.914 -24.846  0.00  0.00    -0.285 NA
ATOM     30  C   UNL     1      34.997 -17.610 -23.629  0.00  0.00    +0.117 C 
ATOM     31  H   UNL     1      35.708 -15.742 -24.165  0.00  0.00    +0.144 HD
ATOM     32  H   UNL     1      35.911 -16.125 -22.515  0.00  0.00    +0.144 HD
ATOM     33  H   UNL     1      34.700 -17.271 -25.583  0.00  0.00    +0.188 HD
ENDBRANCH  26  30
ENDBRANCH   3  18
TORSDOF 4
ENDMDL
MODEL 9
REMARK VINA RESULT:      -9.7      7.962     15.044
REMARK  Name = 447735
REMARK  4 active torsions:
REMARK  status: ('A' for Active; 'I' for Inactive)
REMARK    1  A    between atoms: N_2  and  C_13
REMARK    2  A    between atoms: C_3  and  C_18
REMARK    3  A    between atoms: C_7  and  C_15
REMARK    4  A    between atoms: C_26  and  C_30
REMARK                            x       y       z     vdW  Elec       q    Type
REMARK                         _______ _______ _______ _____ _____    ______ ____
ROOT
ATOM      1  O   UNL     1      33.110 -12.486 -24.464  0.00  0.00    -0.270 OA
ATOM      2  N   UNL     1      34.587 -11.256 -23.109  0.00  0.00    -0.280 N 
ATOM      3  C   UNL     1      33.919 -12.408 -23.545  0.00  0.00    +0.249 C 
ATOM      4  H   UNL     1      35.206 -11.377 -22.354  0.00  0.00    +0.155 HD
ENDROOT
BRANCH   2  13
ATOM      5  N   UNL     1      32.933  -5.397 -23.074  0.00  0.00    -0.274 NA
ATOM      6  C   UNL     1      33.616  -7.716 -23.458  0.00  0.00    +0.010 C 
ATOM      7  C   UNL     1      32.797  -6.656 -22.815  0.00  0.00    +0.053 C 
ATOM      8  C   UNL     1      34.292  -7.365 -24.634  0.00  0.00    -0.019 C 
ATOM      9  C   UNL     1      34.136  -5.972 -25.167  0.00  0.00    +0.053 C 
ATOM     10  C   UNL     1      33.997  -5.000 -24.002  0.00  0.00    +0.130 C 
ATOM     11  C   UNL     1      33.715  -9.010 -22.944  0.00  0.00    +0.016 C 
ATOM     12  C   UNL     1      35.048  -8.328 -25.309  0.00  0.00    -0.003 C 
ATOM     13  C   UNL     1      34.484  -9.961 -23.617  0.00  0.00    +0.051 C 
ATOM     14  C   UNL     1      35.146  -9.622 -24.797  0.00  0.00    +0.014 C 
BRANCH   7  15
ATOM     15  C   UNL     1      31.744  -7.060 -21.813  0.00  0.00    +0.040 C 
ATOM     16  C   UNL     1      32.388  -7.146 -20.441  0.00  0.00    +0.006 C 
ATOM     17  C   UNL     1      30.610  -6.051 -21.846  0.00  0.00    +0.006 C 
ENDBRANCH   7  15
ENDBRANCH   2  13
BRANCH   3  18
ATOM     18  C   UNL     1      34.219 -13.647 -22.781  0.00  0.00    +0.054 C 
ATOM     19  C   UNL     1      34.813 -15.978 -22.766  0.00  0.00    +0.000 C 
ATOM     20  C   UNL     1      34.782 -15.960 -21.352  0.00  0.00    +0.000 C 
ATOM     21  C   UNL     1      34.527 -14.799 -23.475  0.00  0.00    +0.005 C 
ATOM     22  C   UNL     1      34.182 -13.602 -21.406  0.00  0.00    +0.005 C 
ATOM     23  C   UNL     1      34.465 -14.764 -20.686  0.00  0.00    +0.000 C 
ATOM     24  C   UNL     1      35.068 -17.138 -20.643  0.00  0.00    +0.003 C 
ATOM     25  C   UNL     1      35.130 -17.173 -23.430  0.00  0.00    +0.000 C 
ATOM     26  C   UNL     1      35.381 -18.318 -21.320  0.00  0.00    +0.031 C 
ATOM     27  C   UNL     1      35.412 -18.335 -22.712  0.00  0.00    +0.003 C 
BRANCH  26  30
ATOM     28  N   UNL     1      36.895 -19.700 -19.921  0.00  0.00    -0.343 N 
ATOM     29  N   UNL     1      34.778 -20.497 -20.507  0.00  0.00    -0.285 NA
ATOM     30  C   UNL     1      35.676 -19.529 -20.573  0.00  0.00    +0.117 C 
ATOM     31  H   UNL     1      37.073 -20.529 -19.420  0.00  0.00    +0.144 HD
ATOM     32  H   UNL     1      37.579 -18.993 -19.960  0.00  0.00    +0.144 HD
ATOM     33  H   UNL     1      34.975 -21.319 -20.001  0.00  0.00    +0.188 HD
ENDBRANCH  26  30
ENDBRANCH   3  18
TORSDOF 4
ENDMDL
