MODEL 1
REMARK VINA RESULT:     -11.9      0.000      0.000
REMARK  Name = 198752
REMARK  6 active torsions:
REMARK  status: ('A' for Active; 'I' for Inactive)
REMARK    1  A    between atoms: C_1  and  C_3
REMARK    2  A    between atoms: C_1  and  C_16
REMARK    3  A    between atoms: N_2  and  C_9
REMARK    4  A    between atoms: C_9  and  C_10
REMARK    5  A    between atoms: C_16  and  C_18
REMARK    6  A    between atoms: C_18  and  C_20
REMARK                            x       y       z     vdW  Elec       q    Type
REMARK                         _______ _______ _______ _____ _____    ______ ____
ROOT
ATOM      1  C   UNL     1      36.220 -21.056 -18.940  0.00  0.00    +0.008 C 
ENDROOT
BRANCH   1   3
ATOM      2  N   UNL     1      35.342 -18.274 -22.125  0.00  0.00    +0.390 N 
ATOM      3  C   UNL     1      36.058 -20.494 -20.349  0.00  0.00    -0.004 C 
ATOM      4  C   UNL     1      36.977 -19.288 -20.570  0.00  0.00    -0.023 C 
ATOM      5  C   UNL     1      34.604 -20.093 -20.619  0.00  0.00    -0.023 C 
ATOM      6  C   UNL     1      36.748 -18.659 -21.946  0.00  0.00    -0.077 C 
ATOM      7  C   UNL     1      34.454 -19.437 -21.993  0.00  0.00    -0.077 C 
ATOM      8  H   UNL     1      35.100 -17.610 -21.390  0.00  0.00    -0.079 HD
BRANCH   2   9
ATOM      9  C   UNL     1      35.148 -17.628 -23.423  0.00  0.00    -0.050 C 
BRANCH   9  10
ATOM     10  C   UNL     1      34.620 -16.226 -23.277  0.00  0.00    -0.043 C 
ATOM     11  C   UNL     1      34.767 -15.563 -22.067  0.00  0.00    -0.006 C 
ATOM     12  C   UNL     1      33.994 -15.614 -24.355  0.00  0.00    -0.006 C 
ATOM     13  C   UNL     1      34.277 -14.264 -21.932  0.00  0.00    -0.000 C 
ATOM     14  C   UNL     1      33.505 -14.316 -24.220  0.00  0.00    -0.000 C 
ATOM     15  C   UNL     1      33.646 -13.640 -23.007  0.00  0.00    -0.000 C 
ENDBRANCH   9  10
ENDBRANCH   2   9
ENDBRANCH   1   3
BRANCH   1  16
ATOM     16  C   UNL     1      35.008 -21.891 -18.525  0.00  0.00    +0.069 C 
BRANCH  16  18
ATOM     17  O   UNL     1      36.333 -22.849 -16.754  0.00  0.00    -0.291 OA
ATOM     18  C   UNL     1      35.182 -22.592 -17.165  0.00  0.00    +0.173 C 
BRANCH  18  20
ATOM     19  N   UNL     1      30.349 -22.881 -16.784  0.00  0.00    -0.333 N 
ATOM     20  C   UNL     1      34.014 -22.947 -16.377  0.00  0.00    +0.036 C 
ATOM     21  C   UNL     1      31.738 -23.641 -14.875  0.00  0.00    -0.009 C 
ATOM     22  C   UNL     1      30.587 -24.095 -14.000  0.00  0.00    +0.028 C 
ATOM     23  C   UNL     1      31.575 -23.121 -16.178  0.00  0.00    +0.041 C 
ATOM     24  C   UNL     1      29.519 -24.884 -14.757  0.00  0.00    +0.006 C 
ATOM     25  C   UNL     1      28.545 -24.015 -15.553  0.00  0.00    +0.022 C 
ATOM     26  C   UNL     1      32.735 -22.799 -16.915  0.00  0.00    +0.017 C 
ATOM     27  C   UNL     1      29.118 -22.696 -16.049  0.00  0.00    +0.087 C 
ATOM     28  C   UNL     1      34.164 -23.423 -15.084  0.00  0.00    +0.003 C 
ATOM     29  C   UNL     1      33.038 -23.765 -14.339  0.00  0.00    -0.003 C 
ATOM     30  H   UNL     1      30.316 -22.833 -17.767  0.00  0.00    +0.147 HD
ENDBRANCH  18  20
ENDBRANCH  16  18
ENDBRANCH   1  16
TORSDOF 6
ENDMDL
MODEL 2
REMARK VINA RESULT:     -11.8      4.535     11.990
REMARK  Name = 198752
REMARK  6 active torsions:
REMARK  status: ('A' for Active; 'I' for Inactive)
REMARK    1  A    between atoms: C_1  and  C_3
REMARK    2  A    between atoms: C_1  and  C_16
REMARK    3  A    between atoms: N_2  and  C_9
REMARK    4  A    between atoms: C_9  and  C_10
REMARK    5  A    between atoms: C_16  and  C_18
REMARK    6  A    between atoms: C_18  and  C_20
REMARK                            x       y       z     vdW  Elec       q    Type
REMARK                         _______ _______ _______ _____ _____    ______ ____
ROOT
ATOM      1  C   UNL     1      33.821 -15.316 -24.444  0.00  0.00    +0.008 C 
ENDROOT
BRANCH   1   3
ATOM      2  N   UNL     1      35.216 -18.418 -21.781  0.00  0.00    +0.390 N 
ATOM      3  C   UNL     1      34.769 -16.282 -23.740  0.00  0.00    -0.004 C 
ATOM      4  C   UNL     1      34.367 -17.738 -24.003  0.00  0.00    -0.023 C 
ATOM      5  C   UNL     1      34.803 -16.020 -22.231  0.00  0.00    -0.023 C 
ATOM      6  C   UNL     1      35.252 -18.710 -23.220  0.00  0.00    -0.077 C 
ATOM      7  C   UNL     1      35.673 -17.049 -21.507  0.00  0.00    -0.077 C 
ATOM      8  H   UNL     1      34.248 -18.494 -21.468  0.00  0.00    -0.079 HD
BRANCH   2   9
ATOM      9  C   UNL     1      36.025 -19.385 -21.040  0.00  0.00    -0.050 C 
BRANCH   9  10
ATOM     10  C   UNL     1      35.174 -20.310 -20.212  0.00  0.00    -0.043 C 
ATOM     11  C   UNL     1      35.784 -21.215 -19.354  0.00  0.00    -0.006 C 
ATOM     12  C   UNL     1      33.791 -20.246 -20.317  0.00  0.00    -0.006 C 
ATOM     13  C   UNL     1      34.995 -22.073 -18.587  0.00  0.00    -0.000 C 
ATOM     14  C   UNL     1      33.003 -21.103 -19.550  0.00  0.00    -0.000 C 
ATOM     15  C   UNL     1      33.605 -22.017 -18.685  0.00  0.00    -0.000 C 
ENDBRANCH   9  10
ENDBRANCH   2   9
ENDBRANCH   1   3
BRANCH   1  16
ATOM     16  C   UNL     1      33.844 -13.933 -23.793  0.00  0.00    +0.069 C 
BRANCH  16  18
ATOM     17  O   UNL     1      33.169 -13.059 -25.936  0.00  0.00    -0.291 OA
ATOM     18  C   UNL     1      33.552 -12.786 -24.779  0.00  0.00    +0.173 C 
BRANCH  18  20
ATOM     19  N   UNL     1      32.028  -9.028 -22.108  0.00  0.00    -0.333 N 
ATOM     20  C   UNL     1      33.725 -11.406 -24.358  0.00  0.00    +0.036 C 
ATOM     21  C   UNL     1      34.050  -8.741 -23.517  0.00  0.00    -0.009 C 
ATOM     22  C   UNL     1      34.348  -7.315 -23.095  0.00  0.00    +0.028 C 
ATOM     23  C   UNL     1      32.982  -9.505 -22.997  0.00  0.00    +0.041 C 
ATOM     24  C   UNL     1      34.211  -7.083 -21.591  0.00  0.00    +0.006 C 
ATOM     25  C   UNL     1      32.771  -6.902 -21.113  0.00  0.00    +0.022 C 
ATOM     26  C   UNL     1      32.855 -10.845 -23.423  0.00  0.00    +0.017 C 
ATOM     27  C   UNL     1      31.721  -7.624 -21.945  0.00  0.00    +0.087 C 
ATOM     28  C   UNL     1      34.748 -10.638 -24.892  0.00  0.00    +0.003 C 
ATOM     29  C   UNL     1      34.908  -9.318 -24.477  0.00  0.00    -0.003 C 
ATOM     30  H   UNL     1      31.534  -9.679 -21.559  0.00  0.00    +0.147 HD
ENDBRANCH  18  20
ENDBRANCH  16  18
ENDBRANCH   1  16
TORSDOF 6
ENDMDL
MODEL 3
REMARK VINA RESULT:     -11.6      4.155     11.460
REMARK  Name = 198752
REMARK  6 active torsions:
REMARK  status: ('A' for Active; 'I' for Inactive)
REMARK    1  A    between atoms: C_1  and  C_3
REMARK    2  A    between atoms: C_1  and  C_16
REMARK    3  A    between atoms: N_2  and  C_9
REMARK    4  A    between atoms: C_9  and  C_10
REMARK    5  A    between atoms: C_16  and  C_18
REMARK    6  A    between atoms: C_18  and  C_20
REMARK                            x       y       z     vdW  Elec       q    Type
REMARK                         _______ _______ _______ _____ _____    ______ ____
ROOT
ATOM      1  C   UNL     1      34.193 -16.126 -24.347  0.00  0.00    +0.008 C 
ENDROOT
BRANCH   1   3
ATOM      2  N   UNL     1      35.181 -19.160 -21.435  0.00  0.00    +0.390 N 
ATOM      3  C   UNL     1      34.983 -17.203 -23.610  0.00  0.00    -0.004 C 
ATOM      4  C   UNL     1      34.245 -18.546 -23.642  0.00  0.00    -0.023 C 
ATOM      5  C   UNL     1      35.251 -16.794 -22.158  0.00  0.00    -0.023 C 
ATOM      6  C   UNL     1      34.982 -19.606 -22.821  0.00  0.00    -0.077 C 
ATOM      7  C   UNL     1      35.955 -17.912 -21.386  0.00  0.00    -0.077 C 
ATOM      8  H   UNL     1      34.263 -18.976 -21.029  0.00  0.00    -0.079 HD
BRANCH   2   9
ATOM      9  C   UNL     1      35.840 -20.203 -20.650  0.00  0.00    -0.050 C 
BRANCH   9  10
ATOM     10  C   UNL     1      34.872 -20.923 -19.749  0.00  0.00    -0.043 C 
ATOM     11  C   UNL     1      33.512 -20.671 -19.869  0.00  0.00    -0.006 C 
ATOM     12  C   UNL     1      35.351 -21.828 -18.813  0.00  0.00    -0.006 C 
ATOM     13  C   UNL     1      32.615 -21.338 -19.034  0.00  0.00    -0.000 C 
ATOM     14  C   UNL     1      34.455 -22.495 -17.979  0.00  0.00    -0.000 C 
ATOM     15  C   UNL     1      33.086 -22.249 -18.090  0.00  0.00    -0.000 C 
ENDBRANCH   9  10
ENDBRANCH   2   9
ENDBRANCH   1   3
BRANCH   1  16
ATOM     16  C   UNL     1      34.163 -14.815 -23.560  0.00  0.00    +0.069 C 
BRANCH  16  18
ATOM     17  O   UNL     1      33.069 -13.835 -25.472  0.00  0.00    -0.291 OA
ATOM     18  C   UNL     1      33.394 -13.688 -24.275  0.00  0.00    +0.173 C 
BRANCH  18  20
ATOM     19  N   UNL     1      33.868  -8.880 -23.776  0.00  0.00    -0.333 N 
ATOM     20  C   UNL     1      33.056 -12.471 -23.556  0.00  0.00    +0.036 C 
ATOM     21  C   UNL     1      32.403 -10.100 -22.188  0.00  0.00    -0.009 C 
ATOM     22  C   UNL     1      31.945  -8.882 -21.412  0.00  0.00    +0.028 C 
ATOM     23  C   UNL     1      33.266 -10.040 -23.305  0.00  0.00    +0.041 C 
ATOM     24  C   UNL     1      31.582  -7.693 -22.301  0.00  0.00    +0.006 C 
ATOM     25  C   UNL     1      32.785  -6.896 -22.803  0.00  0.00    +0.022 C 
ATOM     26  C   UNL     1      33.562 -11.242 -23.982  0.00  0.00    +0.017 C 
ATOM     27  C   UNL     1      34.067  -7.699 -22.966  0.00  0.00    +0.087 C 
ATOM     28  C   UNL     1      32.240 -12.527 -22.437  0.00  0.00    +0.003 C 
ATOM     29  C   UNL     1      31.918 -11.354 -21.759  0.00  0.00    -0.003 C 
ATOM     30  H   UNL     1      34.177  -8.861 -24.711  0.00  0.00    +0.147 HD
ENDBRANCH  18  20
ENDBRANCH  16  18
ENDBRANCH   1  16
TORSDOF 6
ENDMDL
MODEL 4
REMARK VINA RESULT:     -11.5      1.072      1.763
REMARK  Name = 198752
REMARK  6 active torsions:
REMARK  status: ('A' for Active; 'I' for Inactive)
REMARK    1  A    between atoms: C_1  and  C_3
REMARK    2  A    between atoms: C_1  and  C_16
REMARK    3  A    between atoms: N_2  and  C_9
REMARK    4  A    between atoms: C_9  and  C_10
REMARK    5  A    between atoms: C_16  and  C_18
REMARK    6  A    between atoms: C_18  and  C_20
REMARK                            x       y       z     vdW  Elec       q    Type
REMARK                         _______ _______ _______ _____ _____    ______ ____
ROOT
ATOM      1  C   UNL     1      36.416 -20.910 -19.266  0.00  0.00    +0.008 C 
ENDROOT
BRANCH   1   3
ATOM      2  N   UNL     1      35.292 -18.063 -22.314  0.00  0.00    +0.390 N 
ATOM      3  C   UNL     1      36.215 -20.291 -20.646  0.00  0.00    -0.004 C 
ATOM      4  C   UNL     1      37.004 -18.984 -20.784  0.00  0.00    -0.023 C 
ATOM      5  C   UNL     1      34.730 -20.030 -20.922  0.00  0.00    -0.023 C 
ATOM      6  C   UNL     1      36.728 -18.307 -22.128  0.00  0.00    -0.077 C 
ATOM      7  C   UNL     1      34.530 -19.318 -22.261  0.00  0.00    -0.077 C 
ATOM      8  H   UNL     1      34.972 -17.469 -21.549  0.00  0.00    -0.079 HD
BRANCH   2   9
ATOM      9  C   UNL     1      35.049 -17.369 -23.578  0.00  0.00    -0.050 C 
BRANCH   9  10
ATOM     10  C   UNL     1      34.520 -15.976 -23.361  0.00  0.00    -0.043 C 
ATOM     11  C   UNL     1      34.715 -15.356 -22.135  0.00  0.00    -0.006 C 
ATOM     12  C   UNL     1      33.845 -15.332 -24.389  0.00  0.00    -0.006 C 
ATOM     13  C   UNL     1      34.224 -14.065 -21.933  0.00  0.00    -0.000 C 
ATOM     14  C   UNL     1      33.356 -14.042 -24.187  0.00  0.00    -0.000 C 
ATOM     15  C   UNL     1      33.544 -13.409 -22.958  0.00  0.00    -0.000 C 
ENDBRANCH   9  10
ENDBRANCH   2   9
ENDBRANCH   1   3
BRANCH   1  16
ATOM     16  C   UNL     1      35.378 -21.995 -18.981  0.00  0.00    +0.069 C 
BRANCH  16  18
ATOM     17  O   UNL     1      36.403 -22.486 -16.855  0.00  0.00    -0.291 OA
ATOM     18  C   UNL     1      35.338 -22.433 -17.505  0.00  0.00    +0.173 C 
BRANCH  18  20
ATOM     19  N   UNL     1      32.928 -24.391 -13.771  0.00  0.00    -0.333 N 
ATOM     20  C   UNL     1      34.070 -22.779 -16.885  0.00  0.00    +0.036 C 
ATOM     21  C   UNL     1      31.626 -23.444 -15.658  0.00  0.00    -0.009 C 
ATOM     22  C   UNL     1      30.256 -23.711 -15.068  0.00  0.00    +0.028 C 
ATOM     23  C   UNL     1      32.837 -23.743 -14.995  0.00  0.00    +0.041 C 
ATOM     24  C   UNL     1      30.151 -23.358 -13.585  0.00  0.00    +0.006 C 
ATOM     25  C   UNL     1      30.738 -24.413 -12.647  0.00  0.00    +0.022 C 
ATOM     26  C   UNL     1      34.047 -23.382 -15.626  0.00  0.00    +0.017 C 
ATOM     27  C   UNL     1      31.880 -25.230 -13.232  0.00  0.00    +0.087 C 
ATOM     28  C   UNL     1      32.879 -22.522 -17.545  0.00  0.00    +0.003 C 
ATOM     29  C   UNL     1      31.669 -22.853 -16.939  0.00  0.00    -0.003 C 
ATOM     30  H   UNL     1      33.749 -24.275 -13.241  0.00  0.00    +0.147 HD
ENDBRANCH  18  20
ENDBRANCH  16  18
ENDBRANCH   1  16
TORSDOF 6
ENDMDL
MODEL 5
REMARK VINA RESULT:     -11.4      3.938      7.558
REMARK  Name = 198752
REMARK  6 active torsions:
REMARK  status: ('A' for Active; 'I' for Inactive)
REMARK    1  A    between atoms: C_1  and  C_3
REMARK    2  A    between atoms: C_1  and  C_16
REMARK    3  A    between atoms: N_2  and  C_9
REMARK    4  A    between atoms: C_9  and  C_10
REMARK    5  A    between atoms: C_16  and  C_18
REMARK    6  A    between atoms: C_18  and  C_20
REMARK                            x       y       z     vdW  Elec       q    Type
REMARK                         _______ _______ _______ _____ _____    ______ ____
ROOT
ATOM      1  C   UNL     1      34.655 -15.293 -22.155  0.00  0.00    +0.008 C 
ENDROOT
BRANCH   1   3
ATOM      2  N   UNL     1      32.530 -11.541 -21.904  0.00  0.00    +0.390 N 
ATOM      3  C   UNL     1      33.548 -14.258 -22.327  0.00  0.00    -0.004 C 
ATOM      4  C   UNL     1      34.036 -13.059 -23.148  0.00  0.00    -0.023 C 
ATOM      5  C   UNL     1      33.026 -13.777 -20.969  0.00  0.00    -0.023 C 
ATOM      6  C   UNL     1      32.963 -11.973 -23.240  0.00  0.00    -0.077 C 
ATOM      7  C   UNL     1      31.987 -12.667 -21.133  0.00  0.00    -0.077 C 
ATOM      8  H   UNL     1      33.347 -11.186 -21.408  0.00  0.00    -0.079 HD
BRANCH   2   9
ATOM      9  C   UNL     1      31.542 -10.467 -22.008  0.00  0.00    -0.050 C 
BRANCH   9  10
ATOM     10  C   UNL     1      32.083  -9.157 -21.501  0.00  0.00    -0.043 C 
ATOM     11  C   UNL     1      32.667  -8.268 -22.393  0.00  0.00    -0.006 C 
ATOM     12  C   UNL     1      31.991  -8.855 -20.149  0.00  0.00    -0.006 C 
ATOM     13  C   UNL     1      33.169  -7.054 -21.923  0.00  0.00    -0.000 C 
ATOM     14  C   UNL     1      32.492  -7.641 -19.680  0.00  0.00    -0.000 C 
ATOM     15  C   UNL     1      33.082  -6.741 -20.567  0.00  0.00    -0.000 C 
ENDBRANCH   9  10
ENDBRANCH   2   9
ENDBRANCH   1   3
BRANCH   1  16
ATOM     16  C   UNL     1      35.124 -15.842 -23.502  0.00  0.00    +0.069 C 
BRANCH  16  18
ATOM     17  O   UNL     1      34.480 -17.805 -24.746  0.00  0.00    -0.291 OA
ATOM     18  C   UNL     1      34.901 -17.358 -23.658  0.00  0.00    +0.173 C 
BRANCH  18  20
ATOM     19  N   UNL     1      33.295 -20.614 -20.432  0.00  0.00    -0.333 N 
ATOM     20  C   UNL     1      35.179 -18.250 -22.544  0.00  0.00    +0.036 C 
ATOM     21  C   UNL     1      35.697 -19.996 -20.399  0.00  0.00    -0.009 C 
ATOM     22  C   UNL     1      36.098 -20.938 -19.282  0.00  0.00    +0.028 C 
ATOM     23  C   UNL     1      34.388 -19.914 -20.924  0.00  0.00    +0.041 C 
ATOM     24  C   UNL     1      35.490 -22.334 -19.413  0.00  0.00    +0.006 C 
ATOM     25  C   UNL     1      34.038 -22.430 -18.946  0.00  0.00    +0.022 C 
ATOM     26  C   UNL     1      34.162 -19.043 -22.011  0.00  0.00    +0.017 C 
ATOM     27  C   UNL     1      33.229 -21.150 -19.090  0.00  0.00    +0.087 C 
ATOM     28  C   UNL     1      36.452 -18.309 -22.000  0.00  0.00    +0.003 C 
ATOM     29  C   UNL     1      36.709 -19.171 -20.937  0.00  0.00    -0.003 C 
ATOM     30  H   UNL     1      32.523 -20.753 -21.027  0.00  0.00    +0.147 HD
ENDBRANCH  18  20
ENDBRANCH  16  18
ENDBRANCH   1  16
TORSDOF 6
ENDMDL
MODEL 6
REMARK VINA RESULT:     -11.3      1.969      3.279
REMARK  Name = 198752
REMARK  6 active torsions:
REMARK  status: ('A' for Active; 'I' for Inactive)
REMARK    1  A    between atoms: C_1  and  C_3
REMARK    2  A    between atoms: C_1  and  C_16
REMARK    3  A    between atoms: N_2  and  C_9
REMARK    4  A    between atoms: C_9  and  C_10
REMARK    5  A    between atoms: C_16  and  C_18
REMARK    6  A    between atoms: C_18  and  C_20
REMARK                            x       y       z     vdW  Elec       q    Type
REMARK                         _______ _______ _______ _____ _____    ______ ____
ROOT
ATOM      1  C   UNL     1      35.590 -21.207 -19.077  0.00  0.00    +0.008 C 
ENDROOT
BRANCH   1   3
ATOM      2  N   UNL     1      35.299 -18.160 -22.124  0.00  0.00    +0.390 N 
ATOM      3  C   UNL     1      35.684 -20.529 -20.440  0.00  0.00    -0.004 C 
ATOM      4  C   UNL     1      36.628 -19.324 -20.392  0.00  0.00    -0.023 C 
ATOM      5  C   UNL     1      34.302 -20.085 -20.931  0.00  0.00    -0.023 C 
ATOM      6  C   UNL     1      36.650 -18.580 -21.729  0.00  0.00    -0.077 C 
ATOM      7  C   UNL     1      34.401 -19.316 -22.250  0.00  0.00    -0.077 C 
ATOM      8  H   UNL     1      34.930 -17.554 -21.391  0.00  0.00    -0.079 HD
BRANCH   2   9
ATOM      9  C   UNL     1      35.342 -17.406 -23.377  0.00  0.00    -0.050 C 
BRANCH   9  10
ATOM     10  C   UNL     1      34.673 -16.064 -23.246  0.00  0.00    -0.043 C 
ATOM     11  C   UNL     1      34.023 -15.515 -24.344  0.00  0.00    -0.006 C 
ATOM     12  C   UNL     1      34.714 -15.394 -22.032  0.00  0.00    -0.006 C 
ATOM     13  C   UNL     1      33.403 -14.271 -24.223  0.00  0.00    -0.000 C 
ATOM     14  C   UNL     1      34.094 -14.151 -21.911  0.00  0.00    -0.000 C 
ATOM     15  C   UNL     1      33.439 -13.589 -23.007  0.00  0.00    -0.000 C 
ENDBRANCH   9  10
ENDBRANCH   2   9
ENDBRANCH   1   3
BRANCH   1  16
ATOM     16  C   UNL     1      34.640 -22.405 -19.110  0.00  0.00    +0.069 C 
BRANCH  16  18
ATOM     17  O   UNL     1      32.440 -21.649 -18.478  0.00  0.00    -0.291 OA
ATOM     18  C   UNL     1      33.460 -22.279 -18.129  0.00  0.00    +0.173 C 
BRANCH  18  20
ATOM     19  N   UNL     1      36.167 -24.297 -14.637  0.00  0.00    -0.333 N 
ATOM     20  C   UNL     1      33.542 -22.891 -16.812  0.00  0.00    +0.036 C 
ATOM     21  C   UNL     1      33.726 -24.064 -14.261  0.00  0.00    -0.009 C 
ATOM     22  C   UNL     1      33.717 -24.636 -12.857  0.00  0.00    +0.028 C 
ATOM     23  C   UNL     1      34.899 -23.891 -15.030  0.00  0.00    +0.041 C 
ATOM     24  C   UNL     1      34.856 -24.117 -11.980  0.00  0.00    +0.006 C 
ATOM     25  C   UNL     1      36.199 -24.802 -12.228  0.00  0.00    +0.022 C 
ATOM     26  C   UNL     1      34.778 -23.283 -16.298  0.00  0.00    +0.017 C 
ATOM     27  C   UNL     1      36.406 -25.320 -13.644  0.00  0.00    +0.087 C 
ATOM     28  C   UNL     1      32.391 -23.098 -16.068  0.00  0.00    +0.003 C 
ATOM     29  C   UNL     1      32.482 -23.681 -14.806  0.00  0.00    -0.003 C 
ATOM     30  H   UNL     1      36.946 -23.866 -15.058  0.00  0.00    +0.147 HD
ENDBRANCH  18  20
ENDBRANCH  16  18
ENDBRANCH   1  16
TORSDOF 6
ENDMDL
MODEL 7
REMARK VINA RESULT:     -11.3      5.224     12.551
REMARK  Name = 198752
REMARK  6 active torsions:
REMARK  status: ('A' for Active; 'I' for Inactive)
REMARK    1  A    between atoms: C_1  and  C_3
REMARK    2  A    between atoms: C_1  and  C_16
REMARK    3  A    between atoms: N_2  and  C_9
REMARK    4  A    between atoms: C_9  and  C_10
REMARK    5  A    between atoms: C_16  and  C_18
REMARK    6  A    between atoms: C_18  and  C_20
REMARK                            x       y       z     vdW  Elec       q    Type
REMARK                         _______ _______ _______ _____ _____    ______ ____
ROOT
ATOM      1  C   UNL     1      33.492 -13.983 -23.738  0.00  0.00    +0.008 C 
ENDROOT
BRANCH   1   3
ATOM      2  N   UNL     1      34.912 -17.828 -22.376  0.00  0.00    +0.390 N 
ATOM      3  C   UNL     1      34.446 -15.136 -23.439  0.00  0.00    -0.004 C 
ATOM      4  C   UNL     1      34.032 -16.402 -24.196  0.00  0.00    -0.023 C 
ATOM      5  C   UNL     1      34.504 -15.428 -21.936  0.00  0.00    -0.023 C 
ATOM      6  C   UNL     1      34.924 -17.589 -23.825  0.00  0.00    -0.077 C 
ATOM      7  C   UNL     1      35.380 -16.646 -21.640  0.00  0.00    -0.077 C 
ATOM      8  H   UNL     1      33.949 -18.011 -22.095  0.00  0.00    -0.079 HD
BRANCH   2   9
ATOM      9  C   UNL     1      35.727 -18.996 -22.042  0.00  0.00    -0.050 C 
BRANCH   9  10
ATOM     10  C   UNL     1      35.068 -19.859 -20.999  0.00  0.00    -0.043 C 
ATOM     11  C   UNL     1      35.855 -20.559 -20.095  0.00  0.00    -0.006 C 
ATOM     12  C   UNL     1      33.683 -19.945 -20.956  0.00  0.00    -0.006 C 
ATOM     13  C   UNL     1      35.245 -21.359 -19.129  0.00  0.00    -0.000 C 
ATOM     14  C   UNL     1      33.073 -20.744 -19.991  0.00  0.00    -0.000 C 
ATOM     15  C   UNL     1      33.854 -21.453 -19.077  0.00  0.00    -0.000 C 
ENDBRANCH   9  10
ENDBRANCH   2   9
ENDBRANCH   1   3
BRANCH   1  16
ATOM     16  C   UNL     1      34.112 -12.633 -23.375  0.00  0.00    +0.069 C 
BRANCH  16  18
ATOM     17  O   UNL     1      33.691 -11.845 -25.614  0.00  0.00    -0.291 OA
ATOM     18  C   UNL     1      33.832 -11.531 -24.414  0.00  0.00    +0.173 C 
BRANCH  18  20
ATOM     19  N   UNL     1      31.088  -7.830 -22.878  0.00  0.00    -0.333 N 
ATOM     20  C   UNL     1      33.735 -10.143 -23.991  0.00  0.00    +0.036 C 
ATOM     21  C   UNL     1      33.526  -7.465 -23.154  0.00  0.00    -0.009 C 
ATOM     22  C   UNL     1      33.537  -6.028 -22.672  0.00  0.00    +0.028 C 
ATOM     23  C   UNL     1      32.366  -8.271 -23.192  0.00  0.00    +0.041 C 
ATOM     24  C   UNL     1      32.689  -5.798 -21.421  0.00  0.00    +0.006 C 
ATOM     25  C   UNL     1      31.190  -5.674 -21.695  0.00  0.00    +0.022 C 
ATOM     26  C   UNL     1      32.505  -9.615 -23.598  0.00  0.00    +0.017 C 
ATOM     27  C   UNL     1      30.693  -6.439 -22.912  0.00  0.00    +0.087 C 
ATOM     28  C   UNL     1      34.862  -9.336 -23.987  0.00  0.00    +0.003 C 
ATOM     29  C   UNL     1      34.758  -8.010 -23.574  0.00  0.00    -0.003 C 
ATOM     30  H   UNL     1      30.414  -8.499 -22.619  0.00  0.00    +0.147 HD
ENDBRANCH  18  20
ENDBRANCH  16  18
ENDBRANCH   1  16
TORSDOF 6
ENDMDL
MODEL 8
REMARK VINA RESULT:     -11.2      2.991      4.969
REMARK  Name = 198752
REMARK  6 active torsions:
REMARK  status: ('A' for Active; 'I' for Inactive)
REMARK    1  A    between atoms: C_1  and  C_3
REMARK    2  A    between atoms: C_1  and  C_16
REMARK    3  A    between atoms: N_2  and  C_9
REMARK    4  A    between atoms: C_9  and  C_10
REMARK    5  A    between atoms: C_16  and  C_18
REMARK    6  A    between atoms: C_18  and  C_20
REMARK                            x       y       z     vdW  Elec       q    Type
REMARK                         _______ _______ _______ _____ _____    ______ ____
ROOT
ATOM      1  C   UNL     1      32.673 -22.373 -17.849  0.00  0.00    +0.008 C 
ENDROOT
BRANCH   1   3
ATOM      2  N   UNL     1      35.391 -19.948 -20.170  0.00  0.00    +0.390 N 
ATOM      3  C   UNL     1      33.590 -21.936 -18.988  0.00  0.00    -0.004 C 
ATOM      4  C   UNL     1      35.024 -21.726 -18.490  0.00  0.00    -0.023 C 
ATOM      5  C   UNL     1      33.077 -20.651 -19.646  0.00  0.00    -0.023 C 
ATOM      6  C   UNL     1      35.927 -21.193 -19.604  0.00  0.00    -0.077 C 
ATOM      7  C   UNL     1      34.045 -20.153 -20.722  0.00  0.00    -0.077 C 
ATOM      8  H   UNL     1      35.321 -19.264 -19.417  0.00  0.00    -0.079 HD
BRANCH   2   9
ATOM      9  C   UNL     1      36.290 -19.422 -21.198  0.00  0.00    -0.050 C 
BRANCH   9  10
ATOM     10  C   UNL     1      35.538 -18.703 -22.286  0.00  0.00    -0.043 C 
ATOM     11  C   UNL     1      34.871 -19.439 -23.255  0.00  0.00    -0.006 C 
ATOM     12  C   UNL     1      35.522 -17.315 -22.305  0.00  0.00    -0.006 C 
ATOM     13  C   UNL     1      34.175 -18.772 -24.264  0.00  0.00    -0.000 C 
ATOM     14  C   UNL     1      34.825 -16.649 -23.312  0.00  0.00    -0.000 C 
ATOM     15  C   UNL     1      34.152 -17.378 -24.293  0.00  0.00    -0.000 C 
ENDBRANCH   9  10
ENDBRANCH   2   9
ENDBRANCH   1   3
BRANCH   1  16
ATOM     16  C   UNL     1      33.263 -23.551 -17.074  0.00  0.00    +0.069 C 
BRANCH  16  18
ATOM     17  O   UNL     1      31.926 -23.007 -15.143  0.00  0.00    -0.291 OA
ATOM     18  C   UNL     1      33.006 -23.478 -15.557  0.00  0.00    +0.173 C 
BRANCH  18  20
ATOM     19  N   UNL     1      37.390 -25.431 -14.813  0.00  0.00    -0.333 N 
ATOM     20  C   UNL     1      34.015 -23.956 -14.627  0.00  0.00    +0.036 C 
ATOM     21  C   UNL     1      35.990 -24.870 -12.843  0.00  0.00    -0.009 C 
ATOM     22  C   UNL     1      37.002 -25.288 -11.794  0.00  0.00    +0.028 C 
ATOM     23  C   UNL     1      36.237 -24.919 -14.234  0.00  0.00    +0.041 C 
ATOM     24  C   UNL     1      38.425 -24.821 -12.098  0.00  0.00    +0.006 C 
ATOM     25  C   UNL     1      39.161 -25.683 -13.123  0.00  0.00    +0.022 C 
ATOM     26  C   UNL     1      35.235 -24.437 -15.103  0.00  0.00    +0.017 C 
ATOM     27  C   UNL     1      38.270 -26.367 -14.149  0.00  0.00    +0.087 C 
ATOM     28  C   UNL     1      33.766 -23.945 -13.263  0.00  0.00    +0.003 C 
ATOM     29  C   UNL     1      34.743 -24.400 -12.380  0.00  0.00    -0.003 C 
ATOM     30  H   UNL     1      37.621 -25.143 -15.726  0.00  0.00    +0.147 HD
ENDBRANCH  18  20
ENDBRANCH  16  18
ENDBRANCH   1  16
TORSDOF 6
ENDMDL
MODEL 9
REMARK VINA RESULT:     -11.1      4.829     12.423
REMARK  Name = 198752
REMARK  6 active torsions:
REMARK  status: ('A' for Active; 'I' for Inactive)
REMARK    1  A    between atoms: C_1  and  C_3
REMARK    2  A    between atoms: C_1  and  C_16
REMARK    3  A    between atoms: N_2  and  C_9
REMARK    4  A    between atoms: C_9  and  C_10
REMARK    5  A    between atoms: C_16  and  C_18
REMARK    6  A    between atoms: C_18  and  C_20
REMARK                            x       y       z     vdW  Elec       q    Type
REMARK                         _______ _______ _______ _____ _____    ______ ____
ROOT
ATOM      1  C   UNL     1      33.516 -14.217 -23.861  0.00  0.00    +0.008 C 
ENDROOT
BRANCH   1   3
ATOM      2  N   UNL     1      35.066 -17.820 -22.054  0.00  0.00    +0.390 N 
ATOM      3  C   UNL     1      34.515 -15.269 -23.389  0.00  0.00    -0.004 C 
ATOM      4  C   UNL     1      34.247 -16.622 -24.057  0.00  0.00    -0.023 C 
ATOM      5  C   UNL     1      34.471 -15.426 -21.865  0.00  0.00    -0.023 C 
ATOM      6  C   UNL     1      35.180 -17.706 -23.513  0.00  0.00    -0.077 C 
ATOM      7  C   UNL     1      35.397 -16.550 -21.395  0.00  0.00    -0.077 C 
ATOM      8  H   UNL     1      34.098 -18.047 -21.830  0.00  0.00    -0.079 HD
BRANCH   2   9
ATOM      9  C   UNL     1      35.926 -18.894 -21.554  0.00  0.00    -0.050 C 
BRANCH   9  10
ATOM     10  C   UNL     1      35.170 -19.854 -20.675  0.00  0.00    -0.043 C 
ATOM     11  C   UNL     1      35.869 -20.676 -19.803  0.00  0.00    -0.006 C 
ATOM     12  C   UNL     1      33.784 -19.902 -20.746  0.00  0.00    -0.006 C 
ATOM     13  C   UNL     1      35.169 -21.566 -18.988  0.00  0.00    -0.000 C 
ATOM     14  C   UNL     1      33.084 -20.791 -19.931  0.00  0.00    -0.000 C 
ATOM     15  C   UNL     1      33.777 -21.624 -19.052  0.00  0.00    -0.000 C 
ENDBRANCH   9  10
ENDBRANCH   2   9
ENDBRANCH   1   3
BRANCH   1  16
ATOM     16  C   UNL     1      33.902 -12.819 -23.377  0.00  0.00    +0.069 C 
BRANCH  16  18
ATOM     17  O   UNL     1      31.952 -12.808 -21.959  0.00  0.00    -0.291 OA
ATOM     18  C   UNL     1      32.787 -12.117 -22.579  0.00  0.00    +0.173 C 
BRANCH  18  20
ATOM     19  N   UNL     1      34.566  -7.839 -24.035  0.00  0.00    -0.333 N 
ATOM     20  C   UNL     1      32.717 -10.665 -22.555  0.00  0.00    +0.036 C 
ATOM     21  C   UNL     1      32.590  -7.855 -22.536  0.00  0.00    -0.009 C 
ATOM     22  C   UNL     1      32.398  -6.351 -22.494  0.00  0.00    +0.028 C 
ATOM     23  C   UNL     1      33.589  -8.497 -23.301  0.00  0.00    +0.041 C 
ATOM     24  C   UNL     1      32.534  -5.681 -23.861  0.00  0.00    +0.006 C 
ATOM     25  C   UNL     1      33.979  -5.464 -24.311  0.00  0.00    +0.022 C 
ATOM     26  C   UNL     1      33.617  -9.908 -23.306  0.00  0.00    +0.017 C 
ATOM     27  C   UNL     1      34.979  -6.478 -23.775  0.00  0.00    +0.087 C 
ATOM     28  C   UNL     1      31.763 -10.027 -21.778  0.00  0.00    +0.003 C 
ATOM     29  C   UNL     1      31.701  -8.636 -21.766  0.00  0.00    -0.003 C 
ATOM     30  H   UNL     1      35.002  -8.324 -24.772  0.00  0.00    +0.147 HD
ENDBRANCH  18  20
ENDBRANCH  16  18
ENDBRANCH   1  16
TORSDOF 6
ENDMDL
