MODEL 1
REMARK VINA RESULT:     -12.1      0.000      0.000
REMARK  Name = 448384
REMARK  11 active torsions:
REMARK  status: ('A' for Active; 'I' for Inactive)
REMARK    1  A    between atoms: C_1  and  C_3
REMARK    2  A    between atoms: C_1  and  C_6
REMARK    3  A    between atoms: C_1  and  C_19
REMARK    4  A    between atoms: C_3  and  O_4
REMARK    5  A    between atoms: C_6  and  C_7
REMARK    6  A    between atoms: C_7  and  N_10
REMARK    7  A    between atoms: C_19  and  C_21
REMARK    8  A    between atoms: C_21  and  C_22
REMARK    9  A    between atoms: C_25  and  C_28
REMARK   10  A    between atoms: C_33  and  O_34
REMARK   11  A    between atoms: O_34  and  C_35
REMARK                            x       y       z     vdW  Elec       q    Type
REMARK                         _______ _______ _______ _____ _____    ______ ____
ROOT
ATOM      1  C   UNL     1      32.259 -22.868 -15.878  0.00  0.00    +0.108 C 
ENDROOT
BRANCH   1   3
ATOM      2  O   UNL     1      30.335 -24.338 -15.633  0.00  0.00    -0.250 OA
ATOM      3  C   UNL     1      30.811 -23.298 -16.069  0.00  0.00    +0.314 C 
BRANCH   3   4
ATOM      4  O   UNL     1      30.083 -22.398 -16.777  0.00  0.00    -0.480 OA
ATOM      5  H   UNL     1      29.148 -22.454 -16.784  0.00  0.00    +0.295 HD
ENDBRANCH   3   4
ENDBRANCH   1   3
BRANCH   1   6
ATOM      6  C   UNL     1      32.725 -23.196 -14.445  0.00  0.00    +0.034 C 
BRANCH   6   7
ATOM      7  C   UNL     1      33.112 -24.661 -14.240  0.00  0.00    +0.102 C 
BRANCH   7  10
ATOM      8  O   UNL     1      35.447 -26.027 -15.490  0.00  0.00    -0.269 OA
ATOM      9  O   UNL     1      34.252 -23.744 -11.639  0.00  0.00    -0.269 OA
ATOM     10  N   UNL     1      34.440 -24.830 -13.726  0.00  0.00    -0.223 N 
ATOM     11  C   UNL     1      35.459 -25.487 -14.399  0.00  0.00    +0.255 C 
ATOM     12  C   UNL     1      34.866 -24.355 -12.494  0.00  0.00    +0.255 C 
ATOM     13  C   UNL     1      36.633 -25.418 -13.529  0.00  0.00    +0.058 C 
ATOM     14  C   UNL     1      36.274 -24.733 -12.377  0.00  0.00    +0.058 C 
ATOM     15  C   UNL     1      37.908 -25.908 -13.720  0.00  0.00    +0.005 C 
ATOM     16  C   UNL     1      37.171 -24.505 -11.355  0.00  0.00    +0.005 C 
ATOM     17  C   UNL     1      38.835 -25.688 -12.697  0.00  0.00    +0.000 C 
ATOM     18  C   UNL     1      38.470 -24.994 -11.525  0.00  0.00    +0.000 C 
ENDBRANCH   7  10
ENDBRANCH   6   7
ENDBRANCH   1   6
BRANCH   1  19
ATOM     19  C   UNL     1      33.129 -23.612 -16.910  0.00  0.00    +0.080 C 
BRANCH  19  21
ATOM     20  O   UNL     1      35.457 -23.105 -16.505  0.00  0.00    -0.291 OA
ATOM     21  C   UNL     1      34.455 -22.911 -17.188  0.00  0.00    +0.174 C 
BRANCH  21  22
ATOM     22  C   UNL     1      34.528 -21.949 -18.326  0.00  0.00    +0.035 C 
ATOM     23  C   UNL     1      35.769 -21.527 -18.805  0.00  0.00    +0.003 C 
ATOM     24  C   UNL     1      33.356 -21.473 -18.912  0.00  0.00    +0.003 C 
ATOM     25  C   UNL     1      34.664 -20.151 -20.454  0.00  0.00    +0.000 C 
ATOM     26  C   UNL     1      35.837 -20.628 -19.868  0.00  0.00    +0.000 C 
ATOM     27  C   UNL     1      33.423 -20.573 -19.976  0.00  0.00    +0.000 C 
BRANCH  25  28
ATOM     28  C   UNL     1      34.733 -19.217 -21.558  0.00  0.00    +0.000 C 
ATOM     29  C   UNL     1      34.150 -19.543 -22.783  0.00  0.00    +0.003 C 
ATOM     30  C   UNL     1      35.385 -17.994 -21.398  0.00  0.00    +0.003 C 
ATOM     31  C   UNL     1      34.218 -18.644 -23.847  0.00  0.00    +0.037 C 
ATOM     32  C   UNL     1      35.452 -17.096 -22.463  0.00  0.00    +0.037 C 
ATOM     33  C   UNL     1      34.870 -17.421 -23.687  0.00  0.00    +0.139 C 
BRANCH  33  34
ATOM     34  O   UNL     1      34.933 -16.544 -24.727  0.00  0.00    -0.475 OA
BRANCH  34  35
ATOM     35  C   UNL     1      33.831 -15.653 -24.892  0.00  0.00    +0.206 C 
ATOM     36  C   UNL     1      33.819 -14.665 -23.744  0.00  0.00    +0.051 C 
ENDBRANCH  34  35
ENDBRANCH  33  34
ENDBRANCH  25  28
ENDBRANCH  21  22
ENDBRANCH  19  21
ENDBRANCH   1  19
TORSDOF 11
ENDMDL
MODEL 2
REMARK VINA RESULT:     -12.0      4.797     13.208
REMARK  Name = 448384
REMARK  11 active torsions:
REMARK  status: ('A' for Active; 'I' for Inactive)
REMARK    1  A    between atoms: C_1  and  C_3
REMARK    2  A    between atoms: C_1  and  C_6
REMARK    3  A    between atoms: C_1  and  C_19
REMARK    4  A    between atoms: C_3  and  O_4
REMARK    5  A    between atoms: C_6  and  C_7
REMARK    6  A    between atoms: C_7  and  N_10
REMARK    7  A    between atoms: C_19  and  C_21
REMARK    8  A    between atoms: C_21  and  C_22
REMARK    9  A    between atoms: C_25  and  C_28
REMARK   10  A    between atoms: C_33  and  O_34
REMARK   11  A    between atoms: O_34  and  C_35
REMARK                            x       y       z     vdW  Elec       q    Type
REMARK                         _______ _______ _______ _____ _____    ______ ____
ROOT
ATOM      1  C   UNL     1      33.473 -14.370 -22.850  0.00  0.00    +0.108 C 
ENDROOT
BRANCH   1   3
ATOM      2  O   UNL     1      34.696 -14.130 -20.760  0.00  0.00    -0.250 OA
ATOM      3  C   UNL     1      33.665 -13.955 -21.398  0.00  0.00    +0.314 C 
BRANCH   3   4
ATOM      4  O   UNL     1      32.568 -13.358 -20.871  0.00  0.00    -0.480 OA
ATOM      5  H   UNL     1      32.496 -13.245 -19.944  0.00  0.00    +0.295 HD
ENDBRANCH   3   4
ENDBRANCH   1   3
BRANCH   1   6
ATOM      6  C   UNL     1      32.821 -13.222 -23.649  0.00  0.00    +0.034 C 
BRANCH   6   7
ATOM      7  C   UNL     1      33.824 -12.332 -24.383  0.00  0.00    +0.102 C 
BRANCH   7  10
ATOM      8  O   UNL     1      35.544 -10.053 -25.238  0.00  0.00    -0.269 OA
ATOM      9  O   UNL     1      32.027 -11.034 -22.386  0.00  0.00    -0.269 OA
ATOM     10  N   UNL     1      33.793 -10.965 -23.949  0.00  0.00    -0.223 N 
ATOM     11  C   UNL     1      34.646  -9.978 -24.420  0.00  0.00    +0.255 C 
ATOM     12  C   UNL     1      32.904 -10.465 -23.008  0.00  0.00    +0.255 C 
ATOM     13  C   UNL     1      34.265  -8.747 -23.729  0.00  0.00    +0.058 C 
ATOM     14  C   UNL     1      33.211  -9.041 -22.876  0.00  0.00    +0.058 C 
ATOM     15  C   UNL     1      34.788  -7.474 -23.830  0.00  0.00    +0.005 C 
ATOM     16  C   UNL     1      32.626  -8.079 -22.079  0.00  0.00    +0.005 C 
ATOM     17  C   UNL     1      34.211  -6.483 -23.033  0.00  0.00    +0.000 C 
ATOM     18  C   UNL     1      33.141  -6.782 -22.165  0.00  0.00    +0.000 C 
ENDBRANCH   7  10
ENDBRANCH   6   7
ENDBRANCH   1   6
BRANCH   1  19
ATOM     19  C   UNL     1      34.851 -14.723 -23.444  0.00  0.00    +0.080 C 
BRANCH  19  21
ATOM     20  O   UNL     1      35.041 -16.446 -25.128  0.00  0.00    -0.291 OA
ATOM     21  C   UNL     1      34.938 -16.164 -23.937  0.00  0.00    +0.174 C 
BRANCH  21  22
ATOM     22  C   UNL     1      34.883 -17.265 -22.933  0.00  0.00    +0.035 C 
ATOM     23  C   UNL     1      34.277 -18.479 -23.259  0.00  0.00    +0.003 C 
ATOM     24  C   UNL     1      35.441 -17.083 -21.667  0.00  0.00    +0.003 C 
ATOM     25  C   UNL     1      34.784 -19.325 -21.054  0.00  0.00    +0.000 C 
ATOM     26  C   UNL     1      34.227 -19.508 -22.320  0.00  0.00    +0.000 C 
ATOM     27  C   UNL     1      35.390 -18.113 -20.727  0.00  0.00    +0.000 C 
BRANCH  25  28
ATOM     28  C   UNL     1      34.731 -20.393 -20.079  0.00  0.00    +0.000 C 
ATOM     29  C   UNL     1      33.499 -20.912 -19.680  0.00  0.00    +0.003 C 
ATOM     30  C   UNL     1      35.911 -20.901 -19.535  0.00  0.00    +0.003 C 
ATOM     31  C   UNL     1      33.447 -21.939 -18.738  0.00  0.00    +0.037 C 
ATOM     32  C   UNL     1      35.859 -21.929 -18.594  0.00  0.00    +0.037 C 
ATOM     33  C   UNL     1      34.627 -22.447 -18.195  0.00  0.00    +0.139 C 
BRANCH  33  34
ATOM     34  O   UNL     1      34.576 -23.452 -17.278  0.00  0.00    -0.475 OA
BRANCH  34  35
ATOM     35  C   UNL     1      33.391 -23.551 -16.488  0.00  0.00    +0.206 C 
ATOM     36  C   UNL     1      33.730 -23.228 -15.048  0.00  0.00    +0.051 C 
ENDBRANCH  34  35
ENDBRANCH  33  34
ENDBRANCH  25  28
ENDBRANCH  21  22
ENDBRANCH  19  21
ENDBRANCH   1  19
TORSDOF 11
ENDMDL
MODEL 3
REMARK VINA RESULT:     -12.0      4.764     13.225
REMARK  Name = 448384
REMARK  11 active torsions:
REMARK  status: ('A' for Active; 'I' for Inactive)
REMARK    1  A    between atoms: C_1  and  C_3
REMARK    2  A    between atoms: C_1  and  C_6
REMARK    3  A    between atoms: C_1  and  C_19
REMARK    4  A    between atoms: C_3  and  O_4
REMARK    5  A    between atoms: C_6  and  C_7
REMARK    6  A    between atoms: C_7  and  N_10
REMARK    7  A    between atoms: C_19  and  C_21
REMARK    8  A    between atoms: C_21  and  C_22
REMARK    9  A    between atoms: C_25  and  C_28
REMARK   10  A    between atoms: C_33  and  O_34
REMARK   11  A    between atoms: O_34  and  C_35
REMARK                            x       y       z     vdW  Elec       q    Type
REMARK                         _______ _______ _______ _____ _____    ______ ____
ROOT
ATOM      1  C   UNL     1      33.558 -14.453 -22.819  0.00  0.00    +0.108 C 
ENDROOT
BRANCH   1   3
ATOM      2  O   UNL     1      34.833 -14.118 -20.774  0.00  0.00    -0.250 OA
ATOM      3  C   UNL     1      33.775 -14.004 -21.381  0.00  0.00    +0.314 C 
BRANCH   3   4
ATOM      4  O   UNL     1      32.667 -13.451 -20.828  0.00  0.00    -0.480 OA
ATOM      5  H   UNL     1      32.211 -12.767 -21.279  0.00  0.00    +0.295 HD
ENDBRANCH   3   4
ENDBRANCH   1   3
BRANCH   1   6
ATOM      6  C   UNL     1      32.917 -13.315 -23.640  0.00  0.00    +0.034 C 
BRANCH   6   7
ATOM      7  C   UNL     1      33.930 -12.421 -24.354  0.00  0.00    +0.102 C 
BRANCH   7  10
ATOM      8  O   UNL     1      32.082 -11.136 -22.401  0.00  0.00    -0.269 OA
ATOM      9  O   UNL     1      35.574 -10.102 -25.265  0.00  0.00    -0.269 OA
ATOM     10  N   UNL     1      33.854 -11.045 -23.954  0.00  0.00    -0.223 N 
ATOM     11  C   UNL     1      32.948 -10.552 -23.026  0.00  0.00    +0.255 C 
ATOM     12  C   UNL     1      34.678 -10.043 -24.445  0.00  0.00    +0.255 C 
ATOM     13  C   UNL     1      33.223  -9.121 -22.909  0.00  0.00    +0.058 C 
ATOM     14  C   UNL     1      34.269  -8.812 -23.767  0.00  0.00    +0.058 C 
ATOM     15  C   UNL     1      32.616  -8.162 -22.125  0.00  0.00    +0.005 C 
ATOM     16  C   UNL     1      34.762  -7.530 -23.885  0.00  0.00    +0.005 C 
ATOM     17  C   UNL     1      33.099  -6.855 -22.228  0.00  0.00    +0.000 C 
ATOM     18  C   UNL     1      34.161  -6.541 -23.100  0.00  0.00    +0.000 C 
ENDBRANCH   7  10
ENDBRANCH   6   7
ENDBRANCH   1   6
BRANCH   1  19
ATOM     19  C   UNL     1      34.922 -14.845 -23.420  0.00  0.00    +0.080 C 
BRANCH  19  21
ATOM     20  O   UNL     1      35.054 -16.589 -25.089  0.00  0.00    -0.291 OA
ATOM     21  C   UNL     1      34.969 -16.293 -23.899  0.00  0.00    +0.174 C 
BRANCH  21  22
ATOM     22  C   UNL     1      34.898 -17.383 -22.884  0.00  0.00    +0.035 C 
ATOM     23  C   UNL     1      35.443 -17.192 -21.614  0.00  0.00    +0.003 C 
ATOM     24  C   UNL     1      34.284 -18.594 -23.204  0.00  0.00    +0.003 C 
ATOM     25  C   UNL     1      34.762 -19.423 -20.986  0.00  0.00    +0.000 C 
ATOM     26  C   UNL     1      35.375 -18.212 -20.666  0.00  0.00    +0.000 C 
ATOM     27  C   UNL     1      34.217 -19.615 -22.255  0.00  0.00    +0.000 C 
BRANCH  25  28
ATOM     28  C   UNL     1      34.693 -20.482 -20.002  0.00  0.00    +0.000 C 
ATOM     29  C   UNL     1      33.452 -20.988 -19.610  0.00  0.00    +0.003 C 
ATOM     30  C   UNL     1      35.864 -20.996 -19.445  0.00  0.00    +0.003 C 
ATOM     31  C   UNL     1      33.384 -22.007 -18.661  0.00  0.00    +0.037 C 
ATOM     32  C   UNL     1      35.795 -22.015 -18.496  0.00  0.00    +0.037 C 
ATOM     33  C   UNL     1      34.555 -22.520 -18.103  0.00  0.00    +0.139 C 
BRANCH  33  34
ATOM     34  O   UNL     1      34.488 -23.517 -17.178  0.00  0.00    -0.475 OA
BRANCH  34  35
ATOM     35  C   UNL     1      34.399 -23.128 -15.808  0.00  0.00    +0.206 C 
ATOM     36  C   UNL     1      33.033 -23.508 -15.276  0.00  0.00    +0.051 C 
ENDBRANCH  34  35
ENDBRANCH  33  34
ENDBRANCH  25  28
ENDBRANCH  21  22
ENDBRANCH  19  21
ENDBRANCH   1  19
TORSDOF 11
ENDMDL
MODEL 4
REMARK VINA RESULT:     -11.9      1.324      1.964
REMARK  Name = 448384
REMARK  11 active torsions:
REMARK  status: ('A' for Active; 'I' for Inactive)
REMARK    1  A    between atoms: C_1  and  C_3
REMARK    2  A    between atoms: C_1  and  C_6
REMARK    3  A    between atoms: C_1  and  C_19
REMARK    4  A    between atoms: C_3  and  O_4
REMARK    5  A    between atoms: C_6  and  C_7
REMARK    6  A    between atoms: C_7  and  N_10
REMARK    7  A    between atoms: C_19  and  C_21
REMARK    8  A    between atoms: C_21  and  C_22
REMARK    9  A    between atoms: C_25  and  C_28
REMARK   10  A    between atoms: C_33  and  O_34
REMARK   11  A    between atoms: O_34  and  C_35
REMARK                            x       y       z     vdW  Elec       q    Type
REMARK                         _______ _______ _______ _____ _____    ______ ____
ROOT
ATOM      1  C   UNL     1      33.542 -23.321 -15.060  0.00  0.00    +0.108 C 
ENDROOT
BRANCH   1   3
ATOM      2  O   UNL     1      31.178 -23.622 -15.551  0.00  0.00    -0.250 OA
ATOM      3  C   UNL     1      32.047 -23.151 -14.828  0.00  0.00    +0.314 C 
BRANCH   3   4
ATOM      4  O   UNL     1      31.766 -22.420 -13.721  0.00  0.00    -0.480 OA
ATOM      5  H   UNL     1      31.668 -21.490 -13.786  0.00  0.00    +0.295 HD
ENDBRANCH   3   4
ENDBRANCH   1   3
BRANCH   1   6
ATOM      6  C   UNL     1      34.061 -24.558 -14.297  0.00  0.00    +0.034 C 
BRANCH   6   7
ATOM      7  C   UNL     1      35.168 -24.244 -13.291  0.00  0.00    +0.102 C 
BRANCH   7  10
ATOM      8  O   UNL     1      35.715 -26.497 -15.164  0.00  0.00    -0.269 OA
ATOM      9  O   UNL     1      37.899 -23.625 -12.258  0.00  0.00    -0.269 OA
ATOM     10  N   UNL     1      36.421 -24.866 -13.614  0.00  0.00    -0.223 N 
ATOM     11  C   UNL     1      36.561 -25.915 -14.510  0.00  0.00    +0.255 C 
ATOM     12  C   UNL     1      37.641 -24.491 -13.072  0.00  0.00    +0.255 C 
ATOM     13  C   UNL     1      37.989 -26.230 -14.549  0.00  0.00    +0.058 C 
ATOM     14  C   UNL     1      38.642 -25.368 -13.679  0.00  0.00    +0.058 C 
ATOM     15  C   UNL     1      38.668 -27.185 -15.277  0.00  0.00    +0.005 C 
ATOM     16  C   UNL     1      40.007 -25.418 -13.491  0.00  0.00    +0.005 C 
ATOM     17  C   UNL     1      40.052 -27.253 -15.103  0.00  0.00    +0.000 C 
ATOM     18  C   UNL     1      40.716 -26.378 -14.219  0.00  0.00    +0.000 C 
ENDBRANCH   7  10
ENDBRANCH   6   7
ENDBRANCH   1   6
BRANCH   1  19
ATOM     19  C   UNL     1      33.787 -23.483 -16.573  0.00  0.00    +0.080 C 
BRANCH  19  21
ATOM     20  O   UNL     1      36.167 -23.072 -16.483  0.00  0.00    -0.291 OA
ATOM     21  C   UNL     1      35.094 -22.848 -17.038  0.00  0.00    +0.174 C 
BRANCH  21  22
ATOM     22  C   UNL     1      35.060 -21.915 -18.201  0.00  0.00    +0.035 C 
ATOM     23  C   UNL     1      36.245 -21.362 -18.687  0.00  0.00    +0.003 C 
ATOM     24  C   UNL     1      33.843 -21.598 -18.804  0.00  0.00    +0.003 C 
ATOM     25  C   UNL     1      34.995 -20.172 -20.378  0.00  0.00    +0.000 C 
ATOM     26  C   UNL     1      36.212 -20.490 -19.775  0.00  0.00    +0.000 C 
ATOM     27  C   UNL     1      33.810 -20.725 -19.892  0.00  0.00    +0.000 C 
BRANCH  25  28
ATOM     28  C   UNL     1      34.960 -19.266 -21.506  0.00  0.00    +0.000 C 
ATOM     29  C   UNL     1      35.642 -18.051 -21.445  0.00  0.00    +0.003 C 
ATOM     30  C   UNL     1      34.243 -19.607 -22.653  0.00  0.00    +0.003 C 
ATOM     31  C   UNL     1      35.608 -17.177 -22.531  0.00  0.00    +0.037 C 
ATOM     32  C   UNL     1      34.209 -18.733 -23.739  0.00  0.00    +0.037 C 
ATOM     33  C   UNL     1      34.891 -17.517 -23.678  0.00  0.00    +0.139 C 
BRANCH  33  34
ATOM     34  O   UNL     1      34.860 -16.665 -24.739  0.00  0.00    -0.475 OA
BRANCH  34  35
ATOM     35  C   UNL     1      33.753 -15.768 -24.819  0.00  0.00    +0.206 C 
ATOM     36  C   UNL     1      33.877 -14.732 -23.722  0.00  0.00    +0.051 C 
ENDBRANCH  34  35
ENDBRANCH  33  34
ENDBRANCH  25  28
ENDBRANCH  21  22
ENDBRANCH  19  21
ENDBRANCH   1  19
TORSDOF 11
ENDMDL
MODEL 5
REMARK VINA RESULT:     -11.8      4.019      7.998
REMARK  Name = 448384
REMARK  11 active torsions:
REMARK  status: ('A' for Active; 'I' for Inactive)
REMARK    1  A    between atoms: C_1  and  C_3
REMARK    2  A    between atoms: C_1  and  C_6
REMARK    3  A    between atoms: C_1  and  C_19
REMARK    4  A    between atoms: C_3  and  O_4
REMARK    5  A    between atoms: C_6  and  C_7
REMARK    6  A    between atoms: C_7  and  N_10
REMARK    7  A    between atoms: C_19  and  C_21
REMARK    8  A    between atoms: C_21  and  C_22
REMARK    9  A    between atoms: C_25  and  C_28
REMARK   10  A    between atoms: C_33  and  O_34
REMARK   11  A    between atoms: O_34  and  C_35
REMARK                            x       y       z     vdW  Elec       q    Type
REMARK                         _______ _______ _______ _____ _____    ______ ____
ROOT
ATOM      1  C   UNL     1      35.845 -18.696 -21.374  0.00  0.00    +0.108 C 
ENDROOT
BRANCH   1   3
ATOM      2  O   UNL     1      37.570 -18.898 -19.669  0.00  0.00    -0.250 OA
ATOM      3  C   UNL     1      37.273 -18.771 -20.851  0.00  0.00    +0.314 C 
BRANCH   3   4
ATOM      4  O   UNL     1      38.201 -18.689 -21.837  0.00  0.00    -0.480 OA
ATOM      5  H   UNL     1      38.009 -18.213 -22.621  0.00  0.00    +0.295 HD
ENDBRANCH   3   4
ENDBRANCH   1   3
BRANCH   1   6
ATOM      6  C   UNL     1      34.928 -19.623 -20.550  0.00  0.00    +0.034 C 
BRANCH   6   7
ATOM      7  C   UNL     1      35.525 -21.004 -20.281  0.00  0.00    +0.102 C 
BRANCH   7  10
ATOM      8  O   UNL     1      36.949 -21.819 -17.793  0.00  0.00    -0.269 OA
ATOM      9  O   UNL     1      32.721 -21.837 -19.688  0.00  0.00    -0.269 OA
ATOM     10  N   UNL     1      34.998 -21.631 -19.103  0.00  0.00    -0.223 N 
ATOM     11  C   UNL     1      35.757 -21.966 -17.992  0.00  0.00    +0.255 C 
ATOM     12  C   UNL     1      33.664 -21.974 -18.932  0.00  0.00    +0.255 C 
ATOM     13  C   UNL     1      34.831 -22.564 -17.031  0.00  0.00    +0.058 C 
ATOM     14  C   UNL     1      33.565 -22.569 -17.599  0.00  0.00    +0.058 C 
ATOM     15  C   UNL     1      35.065 -23.065 -15.767  0.00  0.00    +0.005 C 
ATOM     16  C   UNL     1      32.469 -23.074 -16.934  0.00  0.00    +0.005 C 
ATOM     17  C   UNL     1      33.969 -23.582 -15.074  0.00  0.00    +0.000 C 
ATOM     18  C   UNL     1      32.682 -23.588 -15.651  0.00  0.00    +0.000 C 
ENDBRANCH   7  10
ENDBRANCH   6   7
ENDBRANCH   1   6
BRANCH   1  19
ATOM     19  C   UNL     1      35.364 -17.235 -21.273  0.00  0.00    +0.080 C 
BRANCH  19  21
ATOM     20  O   UNL     1      35.201 -17.224 -23.684  0.00  0.00    -0.291 OA
ATOM     21  C   UNL     1      35.015 -16.626 -22.627  0.00  0.00    +0.174 C 
BRANCH  21  22
ATOM     22  C   UNL     1      34.438 -15.251 -22.664  0.00  0.00    +0.035 C 
ATOM     23  C   UNL     1      34.048 -14.689 -23.880  0.00  0.00    +0.003 C 
ATOM     24  C   UNL     1      34.288 -14.527 -21.481  0.00  0.00    +0.003 C 
ATOM     25  C   UNL     1      33.359 -12.680 -22.730  0.00  0.00    +0.000 C 
ATOM     26  C   UNL     1      33.510 -13.404 -23.913  0.00  0.00    +0.000 C 
ATOM     27  C   UNL     1      33.749 -13.241 -21.514  0.00  0.00    +0.000 C 
BRANCH  25  28
ATOM     28  C   UNL     1      32.801 -11.345 -22.764  0.00  0.00    +0.000 C 
ATOM     29  C   UNL     1      31.816 -10.979 -21.845  0.00  0.00    +0.003 C 
ATOM     30  C   UNL     1      33.244 -10.426 -23.715  0.00  0.00    +0.003 C 
ATOM     31  C   UNL     1      31.275  -9.694 -21.878  0.00  0.00    +0.037 C 
ATOM     32  C   UNL     1      32.703  -9.141 -23.748  0.00  0.00    +0.037 C 
ATOM     33  C   UNL     1      31.718  -8.775 -22.830  0.00  0.00    +0.139 C 
BRANCH  33  34
ATOM     34  O   UNL     1      31.192  -7.520 -22.859  0.00  0.00    -0.475 OA
BRANCH  34  35
ATOM     35  C   UNL     1      32.111  -6.429 -22.810  0.00  0.00    +0.206 C 
ATOM     36  C   UNL     1      32.412  -6.104 -21.362  0.00  0.00    +0.051 C 
ENDBRANCH  34  35
ENDBRANCH  33  34
ENDBRANCH  25  28
ENDBRANCH  21  22
ENDBRANCH  19  21
ENDBRANCH   1  19
TORSDOF 11
ENDMDL
MODEL 6
REMARK VINA RESULT:     -11.8      1.801      3.234
REMARK  Name = 448384
REMARK  11 active torsions:
REMARK  status: ('A' for Active; 'I' for Inactive)
REMARK    1  A    between atoms: C_1  and  C_3
REMARK    2  A    between atoms: C_1  and  C_6
REMARK    3  A    between atoms: C_1  and  C_19
REMARK    4  A    between atoms: C_3  and  O_4
REMARK    5  A    between atoms: C_6  and  C_7
REMARK    6  A    between atoms: C_7  and  N_10
REMARK    7  A    between atoms: C_19  and  C_21
REMARK    8  A    between atoms: C_21  and  C_22
REMARK    9  A    between atoms: C_25  and  C_28
REMARK   10  A    between atoms: C_33  and  O_34
REMARK   11  A    between atoms: O_34  and  C_35
REMARK                            x       y       z     vdW  Elec       q    Type
REMARK                         _______ _______ _______ _____ _____    ______ ____
ROOT
ATOM      1  C   UNL     1      35.695 -23.341 -15.271  0.00  0.00    +0.108 C 
ENDROOT
BRANCH   1   3
ATOM      2  O   UNL     1      36.896 -21.299 -15.826  0.00  0.00    -0.250 OA
ATOM      3  C   UNL     1      36.905 -22.516 -15.687  0.00  0.00    +0.314 C 
BRANCH   3   4
ATOM      4  O   UNL     1      38.014 -23.271 -15.885  0.00  0.00    -0.480 OA
ATOM      5  H   UNL     1      38.730 -22.929 -16.384  0.00  0.00    +0.295 HD
ENDBRANCH   3   4
ENDBRANCH   1   3
BRANCH   1   6
ATOM      6  C   UNL     1      35.603 -23.412 -13.733  0.00  0.00    +0.034 C 
BRANCH   6   7
ATOM      7  C   UNL     1      35.773 -24.822 -13.167  0.00  0.00    +0.102 C 
BRANCH   7  10
ATOM      8  O   UNL     1      36.128 -26.849 -15.323  0.00  0.00    -0.269 OA
ATOM      9  O   UNL     1      38.564 -24.495 -12.163  0.00  0.00    -0.269 OA
ATOM     10  N   UNL     1      36.975 -25.469 -13.609  0.00  0.00    -0.223 N 
ATOM     11  C   UNL     1      37.026 -26.404 -14.633  0.00  0.00    +0.255 C 
ATOM     12  C   UNL     1      38.231 -25.237 -13.068  0.00  0.00    +0.255 C 
ATOM     13  C   UNL     1      38.430 -26.792 -14.760  0.00  0.00    +0.058 C 
ATOM     14  C   UNL     1      39.159 -26.086 -13.814  0.00  0.00    +0.058 C 
ATOM     15  C   UNL     1      39.029 -27.685 -15.625  0.00  0.00    +0.005 C 
ATOM     16  C   UNL     1      40.524 -26.237 -13.682  0.00  0.00    +0.005 C 
ATOM     17  C   UNL     1      40.411 -27.854 -15.510  0.00  0.00    +0.000 C 
ATOM     18  C   UNL     1      41.152 -27.138 -14.547  0.00  0.00    +0.000 C 
ENDBRANCH   7  10
ENDBRANCH   6   7
ENDBRANCH   1   6
BRANCH   1  19
ATOM     19  C   UNL     1      34.430 -22.681 -15.854  0.00  0.00    +0.080 C 
BRANCH  19  21
ATOM     20  O   UNL     1      33.799 -24.260 -17.571  0.00  0.00    -0.291 OA
ATOM     21  C   UNL     1      34.137 -23.114 -17.287  0.00  0.00    +0.174 C 
BRANCH  21  22
ATOM     22  C   UNL     1      34.277 -22.107 -18.379  0.00  0.00    +0.035 C 
ATOM     23  C   UNL     1      33.145 -21.477 -18.897  0.00  0.00    +0.003 C 
ATOM     24  C   UNL     1      35.540 -21.796 -18.881  0.00  0.00    +0.003 C 
ATOM     25  C   UNL     1      34.541 -20.225 -20.421  0.00  0.00    +0.000 C 
ATOM     26  C   UNL     1      33.277 -20.537 -19.918  0.00  0.00    +0.000 C 
ATOM     27  C   UNL     1      35.673 -20.855 -19.903  0.00  0.00    +0.000 C 
BRANCH  25  28
ATOM     28  C   UNL     1      34.679 -19.250 -21.481  0.00  0.00    +0.000 C 
ATOM     29  C   UNL     1      35.315 -18.033 -21.229  0.00  0.00    +0.003 C 
ATOM     30  C   UNL     1      34.174 -19.523 -22.752  0.00  0.00    +0.003 C 
ATOM     31  C   UNL     1      35.447 -17.092 -22.250  0.00  0.00    +0.037 C 
ATOM     32  C   UNL     1      34.305 -18.581 -23.772  0.00  0.00    +0.037 C 
ATOM     33  C   UNL     1      34.941 -17.366 -23.521  0.00  0.00    +0.139 C 
BRANCH  33  34
ATOM     34  O   UNL     1      35.072 -16.447 -24.517  0.00  0.00    -0.475 OA
BRANCH  34  35
ATOM     35  C   UNL     1      33.932 -15.641 -24.811  0.00  0.00    +0.206 C 
ATOM     36  C   UNL     1      33.824 -14.543 -23.773  0.00  0.00    +0.051 C 
ENDBRANCH  34  35
ENDBRANCH  33  34
ENDBRANCH  25  28
ENDBRANCH  21  22
ENDBRANCH  19  21
ENDBRANCH   1  19
TORSDOF 11
ENDMDL
MODEL 7
REMARK VINA RESULT:     -11.8      3.615     11.545
REMARK  Name = 448384
REMARK  11 active torsions:
REMARK  status: ('A' for Active; 'I' for Inactive)
REMARK    1  A    between atoms: C_1  and  C_3
REMARK    2  A    between atoms: C_1  and  C_6
REMARK    3  A    between atoms: C_1  and  C_19
REMARK    4  A    between atoms: C_3  and  O_4
REMARK    5  A    between atoms: C_6  and  C_7
REMARK    6  A    between atoms: C_7  and  N_10
REMARK    7  A    between atoms: C_19  and  C_21
REMARK    8  A    between atoms: C_21  and  C_22
REMARK    9  A    between atoms: C_25  and  C_28
REMARK   10  A    between atoms: C_33  and  O_34
REMARK   11  A    between atoms: O_34  and  C_35
REMARK                            x       y       z     vdW  Elec       q    Type
REMARK                         _______ _______ _______ _____ _____    ______ ____
ROOT
ATOM      1  C   UNL     1      34.915 -17.806 -23.667  0.00  0.00    +0.108 C 
ENDROOT
BRANCH   1   3
ATOM      2  O   UNL     1      32.907 -18.419 -24.898  0.00  0.00    -0.250 OA
ATOM      3  C   UNL     1      33.778 -17.592 -24.657  0.00  0.00    +0.314 C 
BRANCH   3   4
ATOM      4  O   UNL     1      33.818 -16.373 -25.251  0.00  0.00    -0.480 OA
ATOM      5  H   UNL     1      33.106 -15.775 -25.140  0.00  0.00    +0.295 HD
ENDBRANCH   3   4
ENDBRANCH   1   3
BRANCH   1   6
ATOM      6  C   UNL     1      34.856 -16.742 -22.552  0.00  0.00    +0.034 C 
BRANCH   6   7
ATOM      7  C   UNL     1      35.118 -15.317 -23.042  0.00  0.00    +0.102 C 
BRANCH   7  10
ATOM      8  O   UNL     1      34.528 -14.754 -20.176  0.00  0.00    -0.269 OA
ATOM      9  O   UNL     1      33.352 -13.354 -24.433  0.00  0.00    -0.269 OA
ATOM     10  N   UNL     1      34.220 -14.350 -22.478  0.00  0.00    -0.223 N 
ATOM     11  C   UNL     1      34.024 -14.170 -21.117  0.00  0.00    +0.255 C 
ATOM     12  C   UNL     1      33.443 -13.478 -23.226  0.00  0.00    +0.255 C 
ATOM     13  C   UNL     1      33.048 -13.089 -20.986  0.00  0.00    +0.058 C 
ATOM     14  C   UNL     1      32.697 -12.670 -22.262  0.00  0.00    +0.058 C 
ATOM     15  C   UNL     1      32.506 -12.515 -19.854  0.00  0.00    +0.005 C 
ATOM     16  C   UNL     1      31.786 -11.656 -22.472  0.00  0.00    +0.005 C 
ATOM     17  C   UNL     1      31.582 -11.485 -20.043  0.00  0.00    +0.000 C 
ATOM     18  C   UNL     1      31.224 -11.059 -21.339  0.00  0.00    +0.000 C 
ENDBRANCH   7  10
ENDBRANCH   6   7
ENDBRANCH   1   6
BRANCH   1  19
ATOM     19  C   UNL     1      34.781 -19.220 -23.068  0.00  0.00    +0.080 C 
BRANCH  19  21
ATOM     20  O   UNL     1      36.774 -18.973 -21.722  0.00  0.00    -0.291 OA
ATOM     21  C   UNL     1      35.634 -19.421 -21.819  0.00  0.00    +0.174 C 
BRANCH  21  22
ATOM     22  C   UNL     1      35.062 -20.202 -20.684  0.00  0.00    +0.035 C 
ATOM     23  C   UNL     1      35.910 -20.863 -19.794  0.00  0.00    +0.003 C 
ATOM     24  C   UNL     1      33.680 -20.268 -20.510  0.00  0.00    +0.003 C 
ATOM     25  C   UNL     1      33.992 -21.659 -18.560  0.00  0.00    +0.000 C 
ATOM     26  C   UNL     1      35.374 -21.592 -18.733  0.00  0.00    +0.000 C 
ATOM     27  C   UNL     1      33.144 -20.998 -19.448  0.00  0.00    +0.000 C 
BRANCH  25  28
ATOM     28  C   UNL     1      33.436 -22.416 -17.459  0.00  0.00    +0.000 C 
ATOM     29  C   UNL     1      34.284 -23.058 -16.556  0.00  0.00    +0.003 C 
ATOM     30  C   UNL     1      32.052 -22.507 -17.302  0.00  0.00    +0.003 C 
ATOM     31  C   UNL     1      33.749 -23.789 -15.496  0.00  0.00    +0.037 C 
ATOM     32  C   UNL     1      31.518 -23.238 -16.241  0.00  0.00    +0.037 C 
ATOM     33  C   UNL     1      32.366 -23.880 -15.339  0.00  0.00    +0.139 C 
BRANCH  33  34
ATOM     34  O   UNL     1      31.845 -24.592 -14.302  0.00  0.00    -0.475 OA
BRANCH  34  35
ATOM     35  C   UNL     1      30.487 -24.327 -13.950  0.00  0.00    +0.206 C 
ATOM     36  C   UNL     1      29.662 -25.571 -14.203  0.00  0.00    +0.051 C 
ENDBRANCH  34  35
ENDBRANCH  33  34
ENDBRANCH  25  28
ENDBRANCH  21  22
ENDBRANCH  19  21
ENDBRANCH   1  19
TORSDOF 11
ENDMDL
MODEL 8
REMARK VINA RESULT:     -11.6      3.176      6.954
REMARK  Name = 448384
REMARK  11 active torsions:
REMARK  status: ('A' for Active; 'I' for Inactive)
REMARK    1  A    between atoms: C_1  and  C_3
REMARK    2  A    between atoms: C_1  and  C_6
REMARK    3  A    between atoms: C_1  and  C_19
REMARK    4  A    between atoms: C_3  and  O_4
REMARK    5  A    between atoms: C_6  and  C_7
REMARK    6  A    between atoms: C_7  and  N_10
REMARK    7  A    between atoms: C_19  and  C_21
REMARK    8  A    between atoms: C_21  and  C_22
REMARK    9  A    between atoms: C_25  and  C_28
REMARK   10  A    between atoms: C_33  and  O_34
REMARK   11  A    between atoms: O_34  and  C_35
REMARK                            x       y       z     vdW  Elec       q    Type
REMARK                         _______ _______ _______ _____ _____    ______ ____
ROOT
ATOM      1  C   UNL     1      36.362 -19.879 -20.670  0.00  0.00    +0.108 C 
ENDROOT
BRANCH   1   3
ATOM      2  O   UNL     1      37.845 -18.342 -19.504  0.00  0.00    -0.250 OA
ATOM      3  C   UNL     1      37.494 -18.868 -20.553  0.00  0.00    +0.314 C 
BRANCH   3   4
ATOM      4  O   UNL     1      38.090 -18.605 -21.743  0.00  0.00    -0.480 OA
ATOM      5  H   UNL     1      38.450 -17.756 -21.909  0.00  0.00    +0.295 HD
ENDBRANCH   3   4
ENDBRANCH   1   3
BRANCH   1   6
ATOM      6  C   UNL     1      36.135 -20.582 -19.316  0.00  0.00    +0.034 C 
BRANCH   6   7
ATOM      7  C   UNL     1      35.534 -21.982 -19.438  0.00  0.00    +0.102 C 
BRANCH   7  10
ATOM      8  O   UNL     1      32.557 -22.059 -19.315  0.00  0.00    -0.269 OA
ATOM      9  O   UNL     1      36.287 -22.813 -16.672  0.00  0.00    -0.269 OA
ATOM     10  N   UNL     1      34.685 -22.332 -18.335  0.00  0.00    -0.223 N 
ATOM     11  C   UNL     1      33.299 -22.337 -18.390  0.00  0.00    +0.255 C 
ATOM     12  C   UNL     1      35.147 -22.710 -17.084  0.00  0.00    +0.255 C 
ATOM     13  C   UNL     1      32.840 -22.760 -17.068  0.00  0.00    +0.058 C 
ATOM     14  C   UNL     1      33.958 -22.987 -16.277  0.00  0.00    +0.058 C 
ATOM     15  C   UNL     1      31.559 -22.935 -16.586  0.00  0.00    +0.005 C 
ATOM     16  C   UNL     1      33.853 -23.399 -14.966  0.00  0.00    +0.005 C 
ATOM     17  C   UNL     1      31.429 -23.353 -15.260  0.00  0.00    +0.000 C 
ATOM     18  C   UNL     1      32.565 -23.582 -14.456  0.00  0.00    +0.000 C 
ENDBRANCH   7  10
ENDBRANCH   6   7
ENDBRANCH   1   6
BRANCH   1  19
ATOM     19  C   UNL     1      35.086 -19.135 -21.109  0.00  0.00    +0.080 C 
BRANCH  19  21
ATOM     20  O   UNL     1      35.591 -19.202 -23.472  0.00  0.00    -0.291 OA
ATOM     21  C   UNL     1      35.191 -18.547 -22.513  0.00  0.00    +0.174 C 
BRANCH  21  22
ATOM     22  C   UNL     1      34.802 -17.122 -22.720  0.00  0.00    +0.035 C 
ATOM     23  C   UNL     1      34.896 -16.212 -21.667  0.00  0.00    +0.003 C 
ATOM     24  C   UNL     1      34.345 -16.699 -23.969  0.00  0.00    +0.003 C 
ATOM     25  C   UNL     1      34.075 -14.457 -23.110  0.00  0.00    +0.000 C 
ATOM     26  C   UNL     1      34.532 -14.880 -21.862  0.00  0.00    +0.000 C 
ATOM     27  C   UNL     1      33.981 -15.366 -24.164  0.00  0.00    +0.000 C 
BRANCH  25  28
ATOM     28  C   UNL     1      33.697 -13.075 -23.313  0.00  0.00    +0.000 C 
ATOM     29  C   UNL     1      34.016 -12.435 -24.512  0.00  0.00    +0.003 C 
ATOM     30  C   UNL     1      33.018 -12.383 -22.311  0.00  0.00    +0.003 C 
ATOM     31  C   UNL     1      33.653 -11.102 -24.707  0.00  0.00    +0.037 C 
ATOM     32  C   UNL     1      32.656 -11.050 -22.507  0.00  0.00    +0.037 C 
ATOM     33  C   UNL     1      32.974 -10.410 -23.705  0.00  0.00    +0.139 C 
BRANCH  33  34
ATOM     34  O   UNL     1      32.618  -9.110 -23.898  0.00  0.00    -0.475 OA
BRANCH  34  35
ATOM     35  C   UNL     1      33.083  -8.160 -22.939  0.00  0.00    +0.206 C 
ATOM     36  C   UNL     1      34.547  -7.874 -23.198  0.00  0.00    +0.051 C 
ENDBRANCH  34  35
ENDBRANCH  33  34
ENDBRANCH  25  28
ENDBRANCH  21  22
ENDBRANCH  19  21
ENDBRANCH   1  19
TORSDOF 11
ENDMDL
MODEL 9
REMARK VINA RESULT:     -11.3      1.822      4.710
REMARK  Name = 448384
REMARK  11 active torsions:
REMARK  status: ('A' for Active; 'I' for Inactive)
REMARK    1  A    between atoms: C_1  and  C_3
REMARK    2  A    between atoms: C_1  and  C_6
REMARK    3  A    between atoms: C_1  and  C_19
REMARK    4  A    between atoms: C_3  and  O_4
REMARK    5  A    between atoms: C_6  and  C_7
REMARK    6  A    between atoms: C_7  and  N_10
REMARK    7  A    between atoms: C_19  and  C_21
REMARK    8  A    between atoms: C_21  and  C_22
REMARK    9  A    between atoms: C_25  and  C_28
REMARK   10  A    between atoms: C_33  and  O_34
REMARK   11  A    between atoms: O_34  and  C_35
REMARK                            x       y       z     vdW  Elec       q    Type
REMARK                         _______ _______ _______ _____ _____    ______ ____
ROOT
ATOM      1  C   UNL     1      34.799 -24.287 -14.766  0.00  0.00    +0.108 C 
ENDROOT
BRANCH   1   3
ATOM      2  O   UNL     1      37.167 -24.851 -14.797  0.00  0.00    -0.250 OA
ATOM      3  C   UNL     1      36.001 -25.222 -14.742  0.00  0.00    +0.314 C 
BRANCH   3   4
ATOM      4  O   UNL     1      35.649 -26.529 -14.646  0.00  0.00    -0.480 OA
ATOM      5  H   UNL     1      34.843 -26.825 -15.020  0.00  0.00    +0.295 HD
ENDBRANCH   3   4
ENDBRANCH   1   3
BRANCH   1   6
ATOM      6  C   UNL     1      34.579 -23.670 -13.369  0.00  0.00    +0.034 C 
BRANCH   6   7
ATOM      7  C   UNL     1      33.300 -24.143 -12.679  0.00  0.00    +0.102 C 
BRANCH   7  10
ATOM      8  O   UNL     1      32.289 -21.748 -14.136  0.00  0.00    -0.269 OA
ATOM      9  O   UNL     1      31.245 -26.195 -13.365  0.00  0.00    -0.269 OA
ATOM     10  N   UNL     1      32.130 -24.013 -13.500  0.00  0.00    -0.223 N 
ATOM     11  C   UNL     1      31.753 -22.841 -14.138  0.00  0.00    +0.255 C 
ATOM     12  C   UNL     1      31.238 -25.044 -13.756  0.00  0.00    +0.255 C 
ATOM     13  C   UNL     1      30.524 -23.152 -14.868  0.00  0.00    +0.058 C 
ATOM     14  C   UNL     1      30.213 -24.484 -14.637  0.00  0.00    +0.058 C 
ATOM     15  C   UNL     1      29.739 -22.347 -15.667  0.00  0.00    +0.005 C 
ATOM     16  C   UNL     1      29.100 -25.080 -15.192  0.00  0.00    +0.005 C 
ATOM     17  C   UNL     1      28.606 -22.929 -16.240  0.00  0.00    +0.000 C 
ATOM     18  C   UNL     1      28.288 -24.283 -16.004  0.00  0.00    +0.000 C 
ENDBRANCH   7  10
ENDBRANCH   6   7
ENDBRANCH   1   6
BRANCH   1  19
ATOM     19  C   UNL     1      35.062 -23.181 -15.807  0.00  0.00    +0.080 C 
BRANCH  19  21
ATOM     20  O   UNL     1      33.333 -24.186 -17.163  0.00  0.00    -0.291 OA
ATOM     21  C   UNL     1      34.167 -23.293 -17.036  0.00  0.00    +0.174 C 
BRANCH  21  22
ATOM     22  C   UNL     1      34.321 -22.286 -18.126  0.00  0.00    +0.035 C 
ATOM     23  C   UNL     1      33.192 -21.741 -18.738  0.00  0.00    +0.003 C 
ATOM     24  C   UNL     1      35.595 -21.889 -18.532  0.00  0.00    +0.003 C 
ATOM     25  C   UNL     1      34.612 -20.402 -20.162  0.00  0.00    +0.000 C 
ATOM     26  C   UNL     1      33.338 -20.799 -19.756  0.00  0.00    +0.000 C 
ATOM     27  C   UNL     1      35.741 -20.946 -19.550  0.00  0.00    +0.000 C 
BRANCH  25  28
ATOM     28  C   UNL     1      34.763 -19.425 -21.219  0.00  0.00    +0.000 C 
ATOM     29  C   UNL     1      34.145 -19.633 -22.453  0.00  0.00    +0.003 C 
ATOM     30  C   UNL     1      35.529 -18.279 -21.006  0.00  0.00    +0.003 C 
ATOM     31  C   UNL     1      34.292 -18.693 -23.473  0.00  0.00    +0.037 C 
ATOM     32  C   UNL     1      35.676 -17.340 -22.027  0.00  0.00    +0.037 C 
ATOM     33  C   UNL     1      35.058 -17.547 -23.260  0.00  0.00    +0.139 C 
BRANCH  33  34
ATOM     34  O   UNL     1      35.199 -16.629 -24.256  0.00  0.00    -0.475 OA
BRANCH  34  35
ATOM     35  C   UNL     1      34.065 -15.816 -24.555  0.00  0.00    +0.206 C 
ATOM     36  C   UNL     1      33.963 -14.713 -23.522  0.00  0.00    +0.051 C 
ENDBRANCH  34  35
ENDBRANCH  33  34
ENDBRANCH  25  28
ENDBRANCH  21  22
ENDBRANCH  19  21
ENDBRANCH   1  19
TORSDOF 11
ENDMDL
