MODEL 1
REMARK VINA RESULT:     -11.4      0.000      0.000
REMARK  Name = 16048422
REMARK  11 active torsions:
REMARK  status: ('A' for Active; 'I' for Inactive)
REMARK    1  A    between atoms: C_1  and  C_4
REMARK    2  A    between atoms: C_1  and  N_18
REMARK    3  A    between atoms: C_1  and  C_33
REMARK    4  A    between atoms: N_3  and  C_6
REMARK    5  A    between atoms: C_6  and  C_9
REMARK    6  A    between atoms: C_9  and  C_11
REMARK    7  A    between atoms: C_19  and  C_21
REMARK    8  A    between atoms: C_24  and  C_27
REMARK    9  A    between atoms: C_33  and  C_34
REMARK   10  A    between atoms: C_34  and  C_36
REMARK   11  A    between atoms: C_36  and  O_37
REMARK                            x       y       z     vdW  Elec       q    Type
REMARK                         _______ _______ _______ _____ _____    ______ ____
ROOT
ATOM      1  C   UNL     1      34.191 -23.937 -15.193  0.00  0.00    +0.149 C 
ENDROOT
BRANCH   1   4
ATOM      2  O   UNL     1      32.716 -22.512 -13.910  0.00  0.00    -0.273 OA
ATOM      3  N   UNL     1      31.960 -24.613 -14.546  0.00  0.00    -0.306 N 
ATOM      4  C   UNL     1      32.888 -23.585 -14.486  0.00  0.00    +0.240 C 
ATOM      5  H   UNL     1      32.200 -25.433 -15.035  0.00  0.00    +0.149 HD
BRANCH   3   6
ATOM      6  C   UNL     1      30.657 -24.540 -13.925  0.00  0.00    +0.061 C 
ATOM      7  C   UNL     1      29.714 -25.541 -14.608  0.00  0.00    +0.020 C 
ATOM      8  C   UNL     1      30.811 -24.941 -12.448  0.00  0.00    +0.020 C 
BRANCH   6   9
ATOM      9  C   UNL     1      30.102 -23.093 -13.986  0.00  0.00    +0.044 C 
BRANCH   9  11
ATOM     10  F   UNL     1      25.902 -22.211 -17.646  0.00  0.00    -0.204 F 
ATOM     11  C   UNL     1      28.976 -22.856 -14.967  0.00  0.00    -0.020 C 
ATOM     12  C   UNL     1      27.740 -22.398 -14.512  0.00  0.00    -0.002 C 
ATOM     13  C   UNL     1      29.174 -23.097 -16.327  0.00  0.00    -0.002 C 
ATOM     14  C   UNL     1      26.702 -22.179 -15.417  0.00  0.00    +0.029 C 
ATOM     15  C   UNL     1      28.136 -22.879 -17.232  0.00  0.00    +0.029 C 
ATOM     16  C   UNL     1      26.899 -22.420 -16.777  0.00  0.00    +0.140 C 
ENDBRANCH   9  11
ENDBRANCH   6   9
ENDBRANCH   3   6
ENDBRANCH   1   4
BRANCH   1  18
ATOM     17  O   UNL     1      33.411 -24.332 -17.927  0.00  0.00    -0.270 OA
ATOM     18  N   UNL     1      34.318 -22.986 -16.270  0.00  0.00    -0.295 N 
ATOM     19  C   UNL     1      33.910 -23.270 -17.565  0.00  0.00    +0.246 C 
ATOM     20  H   UNL     1      34.708 -22.104 -16.079  0.00  0.00    +0.150 HD
BRANCH  19  21
ATOM     21  C   UNL     1      34.134 -22.195 -18.566  0.00  0.00    +0.053 C 
ATOM     22  C   UNL     1      35.433 -21.834 -18.924  0.00  0.00    +0.005 C 
ATOM     23  C   UNL     1      33.045 -21.548 -19.149  0.00  0.00    +0.005 C 
ATOM     24  C   UNL     1      34.554 -20.177 -20.447  0.00  0.00    +0.000 C 
ATOM     25  C   UNL     1      35.643 -20.824 -19.864  0.00  0.00    +0.000 C 
ATOM     26  C   UNL     1      33.254 -20.539 -20.090  0.00  0.00    +0.000 C 
BRANCH  24  27
ATOM     27  C   UNL     1      34.771 -19.131 -21.421  0.00  0.00    +0.000 C 
ATOM     28  C   UNL     1      34.392 -19.325 -22.750  0.00  0.00    +0.000 C 
ATOM     29  C   UNL     1      35.357 -17.926 -21.033  0.00  0.00    +0.000 C 
ATOM     30  C   UNL     1      34.600 -18.315 -23.690  0.00  0.00    +0.000 C 
ATOM     31  C   UNL     1      35.566 -16.917 -21.974  0.00  0.00    +0.000 C 
ATOM     32  C   UNL     1      35.187 -17.112 -23.302  0.00  0.00    +0.000 C 
ENDBRANCH  24  27
ENDBRANCH  19  21
ENDBRANCH   1  18
BRANCH   1  33
ATOM     33  C   UNL     1      35.394 -23.847 -14.246  0.00  0.00    +0.041 C 
BRANCH  33  34
ATOM     34  C   UNL     1      36.616 -24.647 -14.701  0.00  0.00    +0.112 C 
BRANCH  34  36
ATOM     35  O   UNL     1      36.250 -26.894 -15.569  0.00  0.00    -0.250 OA
ATOM     36  C   UNL     1      36.416 -26.144 -14.617  0.00  0.00    +0.314 C 
BRANCH  36  37
ATOM     37  O   UNL     1      36.472 -26.581 -13.331  0.00  0.00    -0.480 OA
ATOM     38  H   UNL     1      35.925 -27.289 -13.052  0.00  0.00    +0.295 HD
ENDBRANCH  36  37
ENDBRANCH  34  36
ENDBRANCH  33  34
ENDBRANCH   1  33
TORSDOF 11
ENDMDL
MODEL 2
REMARK VINA RESULT:     -11.2      1.055      1.796
REMARK  Name = 16048422
REMARK  11 active torsions:
REMARK  status: ('A' for Active; 'I' for Inactive)
REMARK    1  A    between atoms: C_1  and  C_4
REMARK    2  A    between atoms: C_1  and  N_18
REMARK    3  A    between atoms: C_1  and  C_33
REMARK    4  A    between atoms: N_3  and  C_6
REMARK    5  A    between atoms: C_6  and  C_9
REMARK    6  A    between atoms: C_9  and  C_11
REMARK    7  A    between atoms: C_19  and  C_21
REMARK    8  A    between atoms: C_24  and  C_27
REMARK    9  A    between atoms: C_33  and  C_34
REMARK   10  A    between atoms: C_34  and  C_36
REMARK   11  A    between atoms: C_36  and  O_37
REMARK                            x       y       z     vdW  Elec       q    Type
REMARK                         _______ _______ _______ _____ _____    ______ ____
ROOT
ATOM      1  C   UNL     1      34.461 -24.026 -15.301  0.00  0.00    +0.149 C 
ENDROOT
BRANCH   1   4
ATOM      2  O   UNL     1      33.240 -22.880 -13.556  0.00  0.00    -0.273 OA
ATOM      3  N   UNL     1      32.083 -24.318 -14.964  0.00  0.00    -0.306 N 
ATOM      4  C   UNL     1      33.214 -23.657 -14.508  0.00  0.00    +0.240 C 
ATOM      5  H   UNL     1      32.172 -24.921 -15.738  0.00  0.00    +0.149 HD
BRANCH   3   6
ATOM      6  C   UNL     1      30.779 -24.166 -14.359  0.00  0.00    +0.061 C 
ATOM      7  C   UNL     1      30.783 -24.832 -12.975  0.00  0.00    +0.020 C 
ATOM      8  C   UNL     1      30.511 -22.662 -14.178  0.00  0.00    +0.020 C 
BRANCH   6   9
ATOM      9  C   UNL     1      29.677 -24.754 -15.278  0.00  0.00    +0.044 C 
BRANCH   9  11
ATOM     10  F   UNL     1      25.570 -21.200 -16.798  0.00  0.00    -0.204 F 
ATOM     11  C   UNL     1      28.576 -23.801 -15.686  0.00  0.00    -0.020 C 
ATOM     12  C   UNL     1      28.256 -23.641 -17.034  0.00  0.00    -0.002 C 
ATOM     13  C   UNL     1      27.881 -23.083 -14.714  0.00  0.00    -0.002 C 
ATOM     14  C   UNL     1      27.240 -22.763 -17.410  0.00  0.00    +0.029 C 
ATOM     15  C   UNL     1      26.865 -22.205 -15.089  0.00  0.00    +0.029 C 
ATOM     16  C   UNL     1      26.545 -22.044 -16.437  0.00  0.00    +0.140 C 
ENDBRANCH   9  11
ENDBRANCH   6   9
ENDBRANCH   3   6
ENDBRANCH   1   4
BRANCH   1  18
ATOM     17  O   UNL     1      33.447 -24.311 -17.972  0.00  0.00    -0.270 OA
ATOM     18  N   UNL     1      34.547 -23.054 -16.364  0.00  0.00    -0.295 N 
ATOM     19  C   UNL     1      34.023 -23.283 -17.628  0.00  0.00    +0.246 C 
ATOM     20  H   UNL     1      34.993 -22.195 -16.185  0.00  0.00    +0.150 HD
BRANCH  19  21
ATOM     21  C   UNL     1      34.218 -22.194 -18.619  0.00  0.00    +0.053 C 
ATOM     22  C   UNL     1      35.505 -21.843 -19.027  0.00  0.00    +0.005 C 
ATOM     23  C   UNL     1      33.113 -21.522 -19.142  0.00  0.00    +0.005 C 
ATOM     24  C   UNL     1      34.582 -20.148 -20.480  0.00  0.00    +0.000 C 
ATOM     25  C   UNL     1      35.687 -20.820 -19.958  0.00  0.00    +0.000 C 
ATOM     26  C   UNL     1      33.295 -20.499 -20.073  0.00  0.00    +0.000 C 
BRANCH  24  27
ATOM     27  C   UNL     1      34.771 -19.087 -21.446  0.00  0.00    +0.000 C 
ATOM     28  C   UNL     1      35.307 -17.864 -21.042  0.00  0.00    +0.000 C 
ATOM     29  C   UNL     1      34.418 -19.287 -22.780  0.00  0.00    +0.000 C 
ATOM     30  C   UNL     1      35.490 -16.841 -21.973  0.00  0.00    +0.000 C 
ATOM     31  C   UNL     1      34.600 -18.264 -23.711  0.00  0.00    +0.000 C 
ATOM     32  C   UNL     1      35.136 -17.041 -23.307  0.00  0.00    +0.000 C 
ENDBRANCH  24  27
ENDBRANCH  19  21
ENDBRANCH   1  18
BRANCH   1  33
ATOM     33  C   UNL     1      35.722 -23.988 -14.429  0.00  0.00    +0.041 C 
BRANCH  33  34
ATOM     34  C   UNL     1      35.907 -25.218 -13.537  0.00  0.00    +0.112 C 
BRANCH  34  36
ATOM     35  O   UNL     1      36.472 -25.598 -11.198  0.00  0.00    -0.250 OA
ATOM     36  C   UNL     1      35.992 -24.881 -12.065  0.00  0.00    +0.314 C 
BRANCH  36  37
ATOM     37  O   UNL     1      35.488 -23.646 -11.808  0.00  0.00    -0.480 OA
ATOM     38  H   UNL     1      36.063 -22.910 -11.738  0.00  0.00    +0.295 HD
ENDBRANCH  36  37
ENDBRANCH  34  36
ENDBRANCH  33  34
ENDBRANCH   1  33
TORSDOF 11
ENDMDL
MODEL 3
REMARK VINA RESULT:     -11.1      3.374      6.663
REMARK  Name = 16048422
REMARK  11 active torsions:
REMARK  status: ('A' for Active; 'I' for Inactive)
REMARK    1  A    between atoms: C_1  and  C_4
REMARK    2  A    between atoms: C_1  and  N_18
REMARK    3  A    between atoms: C_1  and  C_33
REMARK    4  A    between atoms: N_3  and  C_6
REMARK    5  A    between atoms: C_6  and  C_9
REMARK    6  A    between atoms: C_9  and  C_11
REMARK    7  A    between atoms: C_19  and  C_21
REMARK    8  A    between atoms: C_24  and  C_27
REMARK    9  A    between atoms: C_33  and  C_34
REMARK   10  A    between atoms: C_34  and  C_36
REMARK   11  A    between atoms: C_36  and  O_37
REMARK                            x       y       z     vdW  Elec       q    Type
REMARK                         _______ _______ _______ _____ _____    ______ ____
ROOT
ATOM      1  C   UNL     1      31.480 -23.485 -14.855  0.00  0.00    +0.149 C 
ENDROOT
BRANCH   1   4
ATOM      2  O   UNL     1      32.538 -25.151 -13.456  0.00  0.00    -0.273 OA
ATOM      3  N   UNL     1      33.836 -23.424 -14.307  0.00  0.00    -0.306 N 
ATOM      4  C   UNL     1      32.656 -24.131 -14.134  0.00  0.00    +0.240 C 
ATOM      5  H   UNL     1      33.820 -22.617 -14.872  0.00  0.00    +0.149 HD
BRANCH   3   6
ATOM      6  C   UNL     1      35.088 -23.811 -13.698  0.00  0.00    +0.061 C 
ATOM      7  C   UNL     1      36.176 -22.801 -14.091  0.00  0.00    +0.020 C 
ATOM      8  C   UNL     1      34.908 -23.768 -12.171  0.00  0.00    +0.020 C 
BRANCH   6   9
ATOM      9  C   UNL     1      35.470 -25.258 -14.107  0.00  0.00    +0.044 C 
BRANCH   9  11
ATOM     10  F   UNL     1      40.937 -26.580 -13.690  0.00  0.00    -0.204 F 
ATOM     11  C   UNL     1      36.936 -25.612 -13.995  0.00  0.00    -0.020 C 
ATOM     12  C   UNL     1      37.715 -25.046 -12.986  0.00  0.00    -0.002 C 
ATOM     13  C   UNL     1      37.508 -26.504 -14.901  0.00  0.00    -0.002 C 
ATOM     14  C   UNL     1      39.067 -25.374 -12.882  0.00  0.00    +0.029 C 
ATOM     15  C   UNL     1      38.860 -26.832 -14.797  0.00  0.00    +0.029 C 
ATOM     16  C   UNL     1      39.639 -26.266 -13.788  0.00  0.00    +0.140 C 
ENDBRANCH   9  11
ENDBRANCH   6   9
ENDBRANCH   3   6
ENDBRANCH   1   4
BRANCH   1  18
ATOM     17  O   UNL     1      33.235 -24.503 -16.887  0.00  0.00    -0.270 OA
ATOM     18  N   UNL     1      32.057 -22.740 -15.947  0.00  0.00    -0.295 N 
ATOM     19  C   UNL     1      32.898 -23.322 -16.884  0.00  0.00    +0.246 C 
ATOM     20  H   UNL     1      31.846 -21.783 -16.031  0.00  0.00    +0.150 HD
BRANCH  19  21
ATOM     21  C   UNL     1      33.432 -22.413 -17.931  0.00  0.00    +0.053 C 
ATOM     22  C   UNL     1      32.560 -21.622 -18.679  0.00  0.00    +0.005 C 
ATOM     23  C   UNL     1      34.805 -22.351 -18.166  0.00  0.00    +0.005 C 
ATOM     24  C   UNL     1      34.435 -20.707 -19.897  0.00  0.00    +0.000 C 
ATOM     25  C   UNL     1      33.061 -20.769 -19.663  0.00  0.00    +0.000 C 
ATOM     26  C   UNL     1      35.307 -21.497 -19.149  0.00  0.00    +0.000 C 
BRANCH  24  27
ATOM     27  C   UNL     1      34.955 -19.822 -20.917  0.00  0.00    +0.000 C 
ATOM     28  C   UNL     1      36.200 -19.216 -20.745  0.00  0.00    +0.000 C 
ATOM     29  C   UNL     1      34.214 -19.576 -22.072  0.00  0.00    +0.000 C 
ATOM     30  C   UNL     1      36.703 -18.364 -21.729  0.00  0.00    +0.000 C 
ATOM     31  C   UNL     1      34.717 -18.723 -23.055  0.00  0.00    +0.000 C 
ATOM     32  C   UNL     1      35.961 -18.118 -22.883  0.00  0.00    +0.000 C 
ENDBRANCH  24  27
ENDBRANCH  19  21
ENDBRANCH   1  18
BRANCH   1  33
ATOM     33  C   UNL     1      30.488 -24.531 -15.377  0.00  0.00    +0.041 C 
BRANCH  33  34
ATOM     34  C   UNL     1      29.017 -24.155 -15.188  0.00  0.00    +0.112 C 
BRANCH  34  36
ATOM     35  O   UNL     1      27.552 -23.993 -17.127  0.00  0.00    -0.250 OA
ATOM     36  C   UNL     1      28.406 -23.498 -16.405  0.00  0.00    +0.314 C 
BRANCH  36  37
ATOM     37  O   UNL     1      28.903 -22.248 -16.598  0.00  0.00    -0.480 OA
ATOM     38  H   UNL     1      28.398 -21.608 -17.060  0.00  0.00    +0.295 HD
ENDBRANCH  36  37
ENDBRANCH  34  36
ENDBRANCH  33  34
ENDBRANCH   1  33
TORSDOF 11
ENDMDL
MODEL 4
REMARK VINA RESULT:     -10.6      1.614      2.234
REMARK  Name = 16048422
REMARK  11 active torsions:
REMARK  status: ('A' for Active; 'I' for Inactive)
REMARK    1  A    between atoms: C_1  and  C_4
REMARK    2  A    between atoms: C_1  and  N_18
REMARK    3  A    between atoms: C_1  and  C_33
REMARK    4  A    between atoms: N_3  and  C_6
REMARK    5  A    between atoms: C_6  and  C_9
REMARK    6  A    between atoms: C_9  and  C_11
REMARK    7  A    between atoms: C_19  and  C_21
REMARK    8  A    between atoms: C_24  and  C_27
REMARK    9  A    between atoms: C_33  and  C_34
REMARK   10  A    between atoms: C_34  and  C_36
REMARK   11  A    between atoms: C_36  and  O_37
REMARK                            x       y       z     vdW  Elec       q    Type
REMARK                         _______ _______ _______ _____ _____    ______ ____
ROOT
ATOM      1  C   UNL     1      36.259 -23.686 -15.569  0.00  0.00    +0.149 C 
ENDROOT
BRANCH   1   4
ATOM      2  O   UNL     1      35.274 -22.203 -13.931  0.00  0.00    -0.273 OA
ATOM      3  N   UNL     1      34.288 -24.273 -14.294  0.00  0.00    -0.306 N 
ATOM      4  C   UNL     1      35.231 -23.282 -14.519  0.00  0.00    +0.240 C 
ATOM      5  H   UNL     1      34.345 -25.103 -14.822  0.00  0.00    +0.149 HD
BRANCH   3   6
ATOM      6  C   UNL     1      33.226 -24.149 -13.322  0.00  0.00    +0.061 C 
ATOM      7  C   UNL     1      32.297 -25.368 -13.428  0.00  0.00    +0.020 C 
ATOM      8  C   UNL     1      33.861 -24.137 -11.922  0.00  0.00    +0.020 C 
BRANCH   6   9
ATOM      9  C   UNL     1      32.454 -22.818 -13.523  0.00  0.00    +0.044 C 
BRANCH   9  11
ATOM     10  F   UNL     1      28.057 -23.023 -17.050  0.00  0.00    -0.204 F 
ATOM     11  C   UNL     1      31.275 -22.873 -14.469  0.00  0.00    -0.020 C 
ATOM     12  C   UNL     1      29.976 -22.900 -13.962  0.00  0.00    -0.002 C 
ATOM     13  C   UNL     1      31.487 -22.898 -15.847  0.00  0.00    -0.002 C 
ATOM     14  C   UNL     1      28.888 -22.950 -14.834  0.00  0.00    +0.029 C 
ATOM     15  C   UNL     1      30.400 -22.947 -16.719  0.00  0.00    +0.029 C 
ATOM     16  C   UNL     1      29.101 -22.974 -16.212  0.00  0.00    +0.140 C 
ENDBRANCH   9  11
ENDBRANCH   6   9
ENDBRANCH   3   6
ENDBRANCH   1   4
BRANCH   1  18
ATOM     17  O   UNL     1      34.095 -23.670 -17.456  0.00  0.00    -0.270 OA
ATOM     18  N   UNL     1      36.077 -22.765 -16.664  0.00  0.00    -0.295 N 
ATOM     19  C   UNL     1      34.994 -22.837 -17.527  0.00  0.00    +0.246 C 
ATOM     20  H   UNL     1      36.748 -22.058 -16.804  0.00  0.00    +0.150 HD
BRANCH  19  21
ATOM     21  C   UNL     1      34.966 -21.832 -18.621  0.00  0.00    +0.053 C 
ATOM     22  C   UNL     1      33.748 -21.434 -19.172  0.00  0.00    +0.005 C 
ATOM     23  C   UNL     1      36.158 -21.286 -19.096  0.00  0.00    +0.005 C 
ATOM     24  C   UNL     1      34.915 -19.945 -20.675  0.00  0.00    +0.000 C 
ATOM     25  C   UNL     1      33.723 -20.491 -20.200  0.00  0.00    +0.000 C 
ATOM     26  C   UNL     1      36.133 -20.342 -20.123  0.00  0.00    +0.000 C 
BRANCH  24  27
ATOM     27  C   UNL     1      34.889 -18.967 -21.740  0.00  0.00    +0.000 C 
ATOM     28  C   UNL     1      34.365 -19.307 -22.987  0.00  0.00    +0.000 C 
ATOM     29  C   UNL     1      35.387 -17.682 -21.520  0.00  0.00    +0.000 C 
ATOM     30  C   UNL     1      34.339 -18.363 -24.014  0.00  0.00    +0.000 C 
ATOM     31  C   UNL     1      35.361 -16.739 -22.548  0.00  0.00    +0.000 C 
ATOM     32  C   UNL     1      34.837 -17.080 -23.794  0.00  0.00    +0.000 C 
ENDBRANCH  24  27
ENDBRANCH  19  21
ENDBRANCH   1  18
BRANCH   1  33
ATOM     33  C   UNL     1      37.690 -23.606 -15.024  0.00  0.00    +0.041 C 
BRANCH  33  34
ATOM     34  C   UNL     1      37.947 -24.483 -13.797  0.00  0.00    +0.112 C 
BRANCH  34  36
ATOM     35  O   UNL     1      39.239 -26.532 -13.540  0.00  0.00    -0.250 OA
ATOM     36  C   UNL     1      39.155 -25.382 -13.947  0.00  0.00    +0.314 C 
BRANCH  36  37
ATOM     37  O   UNL     1      40.154 -24.763 -14.629  0.00  0.00    -0.480 OA
ATOM     38  H   UNL     1      39.951 -24.190 -15.342  0.00  0.00    +0.295 HD
ENDBRANCH  36  37
ENDBRANCH  34  36
ENDBRANCH  33  34
ENDBRANCH   1  33
TORSDOF 11
ENDMDL
MODEL 5
REMARK VINA RESULT:     -10.3      3.427      6.562
REMARK  Name = 16048422
REMARK  11 active torsions:
REMARK  status: ('A' for Active; 'I' for Inactive)
REMARK    1  A    between atoms: C_1  and  C_4
REMARK    2  A    between atoms: C_1  and  N_18
REMARK    3  A    between atoms: C_1  and  C_33
REMARK    4  A    between atoms: N_3  and  C_6
REMARK    5  A    between atoms: C_6  and  C_9
REMARK    6  A    between atoms: C_9  and  C_11
REMARK    7  A    between atoms: C_19  and  C_21
REMARK    8  A    between atoms: C_24  and  C_27
REMARK    9  A    between atoms: C_33  and  C_34
REMARK   10  A    between atoms: C_34  and  C_36
REMARK   11  A    between atoms: C_36  and  O_37
REMARK                            x       y       z     vdW  Elec       q    Type
REMARK                         _______ _______ _______ _____ _____    ______ ____
ROOT
ATOM      1  C   UNL     1      33.508 -23.290 -14.978  0.00  0.00    +0.149 C 
ENDROOT
BRANCH   1   4
ATOM      2  O   UNL     1      35.569 -24.488 -15.392  0.00  0.00    -0.273 OA
ATOM      3  N   UNL     1      35.266 -23.474 -13.325  0.00  0.00    -0.306 N 
ATOM      4  C   UNL     1      34.892 -23.814 -14.616  0.00  0.00    +0.240 C 
ATOM      5  H   UNL     1      34.646 -22.929 -12.786  0.00  0.00    +0.149 HD
BRANCH   3   6
ATOM      6  C   UNL     1      36.519 -23.880 -12.731  0.00  0.00    +0.061 C 
ATOM      7  C   UNL     1      37.677 -23.208 -13.484  0.00  0.00    +0.020 C 
ATOM      8  C   UNL     1      36.534 -23.392 -11.272  0.00  0.00    +0.020 C 
BRANCH   6   9
ATOM      9  C   UNL     1      36.649 -25.425 -12.733  0.00  0.00    +0.044 C 
BRANCH   9  11
ATOM     10  F   UNL     1      41.091 -27.522 -15.506  0.00  0.00    -0.204 F 
ATOM     11  C   UNL     1      37.840 -25.988 -13.477  0.00  0.00    -0.020 C 
ATOM     12  C   UNL     1      39.129 -25.783 -12.985  0.00  0.00    -0.002 C 
ATOM     13  C   UNL     1      37.649 -26.710 -14.654  0.00  0.00    -0.002 C 
ATOM     14  C   UNL     1      40.228 -26.302 -13.670  0.00  0.00    +0.029 C 
ATOM     15  C   UNL     1      38.748 -27.229 -15.339  0.00  0.00    +0.029 C 
ATOM     16  C   UNL     1      40.037 -27.025 -14.847  0.00  0.00    +0.140 C 
ENDBRANCH   9  11
ENDBRANCH   6   9
ENDBRANCH   3   6
ENDBRANCH   1   4
BRANCH   1  18
ATOM     17  O   UNL     1      33.477 -24.149 -17.717  0.00  0.00    -0.270 OA
ATOM     18  N   UNL     1      33.700 -22.460 -16.142  0.00  0.00    -0.295 N 
ATOM     19  C   UNL     1      33.667 -22.969 -17.433  0.00  0.00    +0.246 C 
ATOM     20  H   UNL     1      33.860 -21.498 -16.017  0.00  0.00    +0.150 HD
BRANCH  19  21
ATOM     21  C   UNL     1      33.910 -21.990 -18.523  0.00  0.00    +0.053 C 
ATOM     22  C   UNL     1      35.215 -21.678 -18.903  0.00  0.00    +0.005 C 
ATOM     23  C   UNL     1      32.832 -21.384 -19.168  0.00  0.00    +0.005 C 
ATOM     24  C   UNL     1      34.365 -20.151 -20.572  0.00  0.00    +0.000 C 
ATOM     25  C   UNL     1      35.443 -20.757 -19.927  0.00  0.00    +0.000 C 
ATOM     26  C   UNL     1      33.059 -20.464 -20.193  0.00  0.00    +0.000 C 
BRANCH  24  27
ATOM     27  C   UNL     1      34.601 -19.198 -21.634  0.00  0.00    +0.000 C 
ATOM     28  C   UNL     1      34.127 -19.455 -22.920  0.00  0.00    +0.000 C 
ATOM     29  C   UNL     1      35.301 -18.020 -21.371  0.00  0.00    +0.000 C 
ATOM     30  C   UNL     1      34.353 -18.535 -23.944  0.00  0.00    +0.000 C 
ATOM     31  C   UNL     1      35.527 -17.100 -22.396  0.00  0.00    +0.000 C 
ATOM     32  C   UNL     1      35.053 -17.358 -23.682  0.00  0.00    +0.000 C 
ENDBRANCH  24  27
ENDBRANCH  19  21
ENDBRANCH   1  18
BRANCH   1  33
ATOM     33  C   UNL     1      32.528 -24.430 -15.280  0.00  0.00    +0.041 C 
BRANCH  33  34
ATOM     34  C   UNL     1      31.110 -24.198 -14.753  0.00  0.00    +0.112 C 
BRANCH  34  36
ATOM     35  O   UNL     1      31.372 -25.178 -12.538  0.00  0.00    -0.250 OA
ATOM     36  C   UNL     1      30.751 -25.094 -13.588  0.00  0.00    +0.314 C 
BRANCH  36  37
ATOM     37  O   UNL     1      29.613 -25.795 -13.833  0.00  0.00    -0.480 OA
ATOM     38  H   UNL     1      28.850 -25.648 -13.310  0.00  0.00    +0.295 HD
ENDBRANCH  36  37
ENDBRANCH  34  36
ENDBRANCH  33  34
ENDBRANCH   1  33
TORSDOF 11
ENDMDL
MODEL 6
REMARK VINA RESULT:     -10.1      1.716      2.630
REMARK  Name = 16048422
REMARK  11 active torsions:
REMARK  status: ('A' for Active; 'I' for Inactive)
REMARK    1  A    between atoms: C_1  and  C_4
REMARK    2  A    between atoms: C_1  and  N_18
REMARK    3  A    between atoms: C_1  and  C_33
REMARK    4  A    between atoms: N_3  and  C_6
REMARK    5  A    between atoms: C_6  and  C_9
REMARK    6  A    between atoms: C_9  and  C_11
REMARK    7  A    between atoms: C_19  and  C_21
REMARK    8  A    between atoms: C_24  and  C_27
REMARK    9  A    between atoms: C_33  and  C_34
REMARK   10  A    between atoms: C_34  and  C_36
REMARK   11  A    between atoms: C_36  and  O_37
REMARK                            x       y       z     vdW  Elec       q    Type
REMARK                         _______ _______ _______ _____ _____    ______ ____
ROOT
ATOM      1  C   UNL     1      36.422 -23.378 -15.323  0.00  0.00    +0.149 C 
ENDROOT
BRANCH   1   4
ATOM      2  O   UNL     1      34.858 -25.219 -15.453  0.00  0.00    -0.273 OA
ATOM      3  N   UNL     1      34.176 -23.249 -14.431  0.00  0.00    -0.306 N 
ATOM      4  C   UNL     1      35.087 -24.070 -15.079  0.00  0.00    +0.240 C 
ATOM      5  H   UNL     1      34.463 -22.343 -14.175  0.00  0.00    +0.149 HD
BRANCH   3   6
ATOM      6  C   UNL     1      32.827 -23.659 -14.114  0.00  0.00    +0.061 C 
ATOM      7  C   UNL     1      32.869 -24.729 -13.013  0.00  0.00    +0.020 C 
ATOM      8  C   UNL     1      32.071 -22.433 -13.577  0.00  0.00    +0.020 C 
BRANCH   6   9
ATOM      9  C   UNL     1      32.098 -24.169 -15.385  0.00  0.00    +0.044 C 
BRANCH   9  11
ATOM     10  F   UNL     1      26.614 -22.903 -15.760  0.00  0.00    -0.204 F 
ATOM     11  C   UNL     1      30.628 -23.829 -15.486  0.00  0.00    -0.020 C 
ATOM     12  C   UNL     1      29.678 -24.665 -14.899  0.00  0.00    -0.002 C 
ATOM     13  C   UNL     1      30.222 -22.681 -16.166  0.00  0.00    -0.002 C 
ATOM     14  C   UNL     1      28.322 -24.352 -14.991  0.00  0.00    +0.029 C 
ATOM     15  C   UNL     1      28.866 -22.368 -16.258  0.00  0.00    +0.029 C 
ATOM     16  C   UNL     1      27.916 -23.203 -15.671  0.00  0.00    +0.140 C 
ENDBRANCH   9  11
ENDBRANCH   6   9
ENDBRANCH   3   6
ENDBRANCH   1   4
BRANCH   1  18
ATOM     17  O   UNL     1      34.436 -23.687 -17.373  0.00  0.00    -0.270 OA
ATOM     18  N   UNL     1      36.207 -22.506 -16.451  0.00  0.00    -0.295 N 
ATOM     19  C   UNL     1      35.217 -22.738 -17.395  0.00  0.00    +0.246 C 
ATOM     20  H   UNL     1      36.784 -21.716 -16.556  0.00  0.00    +0.150 HD
BRANCH  19  21
ATOM     21  C   UNL     1      35.142 -21.762 -18.512  0.00  0.00    +0.053 C 
ATOM     22  C   UNL     1      33.908 -21.441 -19.077  0.00  0.00    +0.005 C 
ATOM     23  C   UNL     1      36.307 -21.167 -18.996  0.00  0.00    +0.005 C 
ATOM     24  C   UNL     1      35.003 -19.929 -20.610  0.00  0.00    +0.000 C 
ATOM     25  C   UNL     1      33.838 -20.525 -20.126  0.00  0.00    +0.000 C 
ATOM     26  C   UNL     1      36.237 -20.250 -20.045  0.00  0.00    +0.000 C 
BRANCH  24  27
ATOM     27  C   UNL     1      34.931 -18.979 -21.698  0.00  0.00    +0.000 C 
ATOM     28  C   UNL     1      35.395 -17.675 -21.518  0.00  0.00    +0.000 C 
ATOM     29  C   UNL     1      34.400 -19.365 -22.929  0.00  0.00    +0.000 C 
ATOM     30  C   UNL     1      35.327 -16.759 -22.568  0.00  0.00    +0.000 C 
ATOM     31  C   UNL     1      34.332 -18.448 -23.978  0.00  0.00    +0.000 C 
ATOM     32  C   UNL     1      34.795 -17.146 -23.797  0.00  0.00    +0.000 C 
ENDBRANCH  24  27
ENDBRANCH  19  21
ENDBRANCH   1  18
BRANCH   1  33
ATOM     33  C   UNL     1      36.879 -22.577 -14.097  0.00  0.00    +0.041 C 
BRANCH  33  34
ATOM     34  C   UNL     1      37.499 -23.426 -12.985  0.00  0.00    +0.112 C 
BRANCH  34  36
ATOM     35  O   UNL     1      37.559 -22.686 -10.665  0.00  0.00    -0.250 OA
ATOM     36  C   UNL     1      36.929 -23.126 -11.616  0.00  0.00    +0.314 C 
BRANCH  36  37
ATOM     37  O   UNL     1      35.595 -23.380 -11.567  0.00  0.00    -0.480 OA
ATOM     38  H   UNL     1      35.195 -23.629 -10.757  0.00  0.00    +0.295 HD
ENDBRANCH  36  37
ENDBRANCH  34  36
ENDBRANCH  33  34
ENDBRANCH   1  33
TORSDOF 11
ENDMDL
MODEL 7
REMARK VINA RESULT:      -9.7      8.911     14.137
REMARK  Name = 16048422
REMARK  11 active torsions:
REMARK  status: ('A' for Active; 'I' for Inactive)
REMARK    1  A    between atoms: C_1  and  C_4
REMARK    2  A    between atoms: C_1  and  N_18
REMARK    3  A    between atoms: C_1  and  C_33
REMARK    4  A    between atoms: N_3  and  C_6
REMARK    5  A    between atoms: C_6  and  C_9
REMARK    6  A    between atoms: C_9  and  C_11
REMARK    7  A    between atoms: C_19  and  C_21
REMARK    8  A    between atoms: C_24  and  C_27
REMARK    9  A    between atoms: C_33  and  C_34
REMARK   10  A    between atoms: C_34  and  C_36
REMARK   11  A    between atoms: C_36  and  O_37
REMARK                            x       y       z     vdW  Elec       q    Type
REMARK                         _______ _______ _______ _____ _____    ______ ____
ROOT
ATOM      1  C   UNL     1      33.949 -12.557 -23.547  0.00  0.00    +0.149 C 
ENDROOT
BRANCH   1   4
ATOM      2  O   UNL     1      31.970 -12.464 -22.158  0.00  0.00    -0.273 OA
ATOM      3  N   UNL     1      33.073 -10.483 -22.659  0.00  0.00    -0.306 N 
ATOM      4  C   UNL     1      32.890 -11.858 -22.703  0.00  0.00    +0.240 C 
ATOM      5  H   UNL     1      33.846 -10.098 -23.132  0.00  0.00    +0.149 HD
BRANCH   3   6
ATOM      6  C   UNL     1      32.184  -9.590 -21.952  0.00  0.00    +0.061 C 
ATOM      7  C   UNL     1      31.062  -9.139 -22.899  0.00  0.00    +0.020 C 
ATOM      8  C   UNL     1      31.557 -10.368 -20.784  0.00  0.00    +0.020 C 
BRANCH   6   9
ATOM      9  C   UNL     1      32.969  -8.383 -21.374  0.00  0.00    +0.044 C 
BRANCH   9  11
ATOM     10  F   UNL     1      34.317  -4.324 -25.051  0.00  0.00    -0.204 F 
ATOM     11  C   UNL     1      33.331  -7.295 -22.360  0.00  0.00    -0.020 C 
ATOM     12  C   UNL     1      32.487  -6.196 -22.526  0.00  0.00    -0.002 C 
ATOM     13  C   UNL     1      34.507  -7.390 -23.103  0.00  0.00    -0.002 C 
ATOM     14  C   UNL     1      32.821  -5.192 -23.435  0.00  0.00    +0.029 C 
ATOM     15  C   UNL     1      34.841  -6.386 -24.011  0.00  0.00    +0.029 C 
ATOM     16  C   UNL     1      33.997  -5.287 -24.178  0.00  0.00    +0.140 C 
ENDBRANCH   9  11
ENDBRANCH   6   9
ENDBRANCH   3   6
ENDBRANCH   1   4
BRANCH   1  18
ATOM     17  O   UNL     1      34.726 -15.016 -24.809  0.00  0.00    -0.270 OA
ATOM     18  N   UNL     1      34.191 -13.821 -22.895  0.00  0.00    -0.295 N 
ATOM     19  C   UNL     1      34.565 -14.960 -23.593  0.00  0.00    +0.246 C 
ATOM     20  H   UNL     1      34.087 -13.877 -21.918  0.00  0.00    +0.150 HD
BRANCH  19  21
ATOM     21  C   UNL     1      34.750 -16.189 -22.779  0.00  0.00    +0.053 C 
ATOM     22  C   UNL     1      34.722 -17.442 -23.392  0.00  0.00    +0.005 C 
ATOM     23  C   UNL     1      34.953 -16.090 -21.403  0.00  0.00    +0.005 C 
ATOM     24  C   UNL     1      35.098 -18.497 -21.251  0.00  0.00    +0.000 C 
ATOM     25  C   UNL     1      34.896 -18.596 -22.627  0.00  0.00    +0.000 C 
ATOM     26  C   UNL     1      35.127 -17.244 -20.638  0.00  0.00    +0.000 C 
BRANCH  24  27
ATOM     27  C   UNL     1      35.278 -19.693 -20.458  0.00  0.00    +0.000 C 
ATOM     28  C   UNL     1      36.559 -20.083 -20.064  0.00  0.00    +0.000 C 
ATOM     29  C   UNL     1      34.172 -20.457 -20.085  0.00  0.00    +0.000 C 
ATOM     30  C   UNL     1      36.732 -21.236 -19.298  0.00  0.00    +0.000 C 
ATOM     31  C   UNL     1      34.346 -21.610 -19.320  0.00  0.00    +0.000 C 
ATOM     32  C   UNL     1      35.626 -21.999 -18.927  0.00  0.00    +0.000 C 
ENDBRANCH  24  27
ENDBRANCH  19  21
ENDBRANCH   1  18
BRANCH   1  33
ATOM     33  C   UNL     1      33.476 -12.773 -24.989  0.00  0.00    +0.041 C 
BRANCH  33  34
ATOM     34  C   UNL     1      33.448 -11.502 -25.841  0.00  0.00    +0.112 C 
BRANCH  34  36
ATOM     35  O   UNL     1      35.199 -10.035 -24.995  0.00  0.00    -0.250 OA
ATOM     36  C   UNL     1      34.774 -10.774 -25.871  0.00  0.00    +0.314 C 
BRANCH  36  37
ATOM     37  O   UNL     1      35.473 -11.063 -27.000  0.00  0.00    -0.480 OA
ATOM     38  H   UNL     1      35.051 -11.494 -27.716  0.00  0.00    +0.295 HD
ENDBRANCH  36  37
ENDBRANCH  34  36
ENDBRANCH  33  34
ENDBRANCH   1  33
TORSDOF 11
ENDMDL
MODEL 8
REMARK VINA RESULT:      -9.6      1.624      2.341
REMARK  Name = 16048422
REMARK  11 active torsions:
REMARK  status: ('A' for Active; 'I' for Inactive)
REMARK    1  A    between atoms: C_1  and  C_4
REMARK    2  A    between atoms: C_1  and  N_18
REMARK    3  A    between atoms: C_1  and  C_33
REMARK    4  A    between atoms: N_3  and  C_6
REMARK    5  A    between atoms: C_6  and  C_9
REMARK    6  A    between atoms: C_9  and  C_11
REMARK    7  A    between atoms: C_19  and  C_21
REMARK    8  A    between atoms: C_24  and  C_27
REMARK    9  A    between atoms: C_33  and  C_34
REMARK   10  A    between atoms: C_34  and  C_36
REMARK   11  A    between atoms: C_36  and  O_37
REMARK                            x       y       z     vdW  Elec       q    Type
REMARK                         _______ _______ _______ _____ _____    ______ ____
ROOT
ATOM      1  C   UNL     1      34.762 -25.083 -14.478  0.00  0.00    +0.149 C 
ENDROOT
BRANCH   1   4
ATOM      2  O   UNL     1      33.501 -24.287 -12.574  0.00  0.00    -0.273 OA
ATOM      3  N   UNL     1      32.389 -24.621 -14.585  0.00  0.00    -0.306 N 
ATOM      4  C   UNL     1      33.505 -24.609 -13.760  0.00  0.00    +0.240 C 
ATOM      5  H   UNL     1      32.504 -24.898 -15.523  0.00  0.00    +0.149 HD
BRANCH   3   6
ATOM      6  C   UNL     1      31.068 -24.248 -14.135  0.00  0.00    +0.061 C 
ATOM      7  C   UNL     1      30.891 -24.682 -12.672  0.00  0.00    +0.020 C 
ATOM      8  C   UNL     1      30.956 -22.716 -14.208  0.00  0.00    +0.020 C 
BRANCH   6   9
ATOM      9  C   UNL     1      29.982 -24.865 -15.054  0.00  0.00    +0.044 C 
BRANCH   9  11
ATOM     10  F   UNL     1      25.801 -21.410 -16.602  0.00  0.00    -0.204 F 
ATOM     11  C   UNL     1      28.861 -23.939 -15.469  0.00  0.00    -0.020 C 
ATOM     12  C   UNL     1      28.176 -23.199 -14.506  0.00  0.00    -0.002 C 
ATOM     13  C   UNL     1      28.513 -23.825 -16.815  0.00  0.00    -0.002 C 
ATOM     14  C   UNL     1      27.143 -22.344 -14.889  0.00  0.00    +0.029 C 
ATOM     15  C   UNL     1      27.480 -22.970 -17.198  0.00  0.00    +0.029 C 
ATOM     16  C   UNL     1      26.795 -22.230 -16.234  0.00  0.00    +0.140 C 
ENDBRANCH   9  11
ENDBRANCH   6   9
ENDBRANCH   3   6
ENDBRANCH   1   4
BRANCH   1  18
ATOM     17  O   UNL     1      36.396 -22.733 -14.707  0.00  0.00    -0.270 OA
ATOM     18  N   UNL     1      34.891 -24.234 -15.636  0.00  0.00    -0.295 N 
ATOM     19  C   UNL     1      35.710 -23.114 -15.652  0.00  0.00    +0.246 C 
ATOM     20  H   UNL     1      34.379 -24.456 -16.446  0.00  0.00    +0.150 HD
BRANCH  19  21
ATOM     21  C   UNL     1      35.712 -22.328 -16.913  0.00  0.00    +0.053 C 
ATOM     22  C   UNL     1      34.580 -22.313 -17.727  0.00  0.00    +0.005 C 
ATOM     23  C   UNL     1      36.846 -21.604 -17.280  0.00  0.00    +0.005 C 
ATOM     24  C   UNL     1      35.716 -20.851 -19.279  0.00  0.00    +0.000 C 
ATOM     25  C   UNL     1      34.582 -21.575 -18.911  0.00  0.00    +0.000 C 
ATOM     26  C   UNL     1      36.848 -20.865 -18.464  0.00  0.00    +0.000 C 
BRANCH  24  27
ATOM     27  C   UNL     1      35.718 -20.085 -20.506  0.00  0.00    +0.000 C 
ATOM     28  C   UNL     1      36.827 -19.308 -20.842  0.00  0.00    +0.000 C 
ATOM     29  C   UNL     1      34.613 -20.125 -21.356  0.00  0.00    +0.000 C 
ATOM     30  C   UNL     1      36.830 -18.570 -22.026  0.00  0.00    +0.000 C 
ATOM     31  C   UNL     1      34.616 -19.387 -22.540  0.00  0.00    +0.000 C 
ATOM     32  C   UNL     1      35.724 -18.610 -22.874  0.00  0.00    +0.000 C 
ENDBRANCH  24  27
ENDBRANCH  19  21
ENDBRANCH   1  18
BRANCH   1  33
ATOM     33  C   UNL     1      36.003 -24.973 -13.584  0.00  0.00    +0.041 C 
BRANCH  33  34
ATOM     34  C   UNL     1      36.738 -26.296 -13.359  0.00  0.00    +0.112 C 
BRANCH  34  36
ATOM     35  O   UNL     1      37.705 -26.105 -11.132  0.00  0.00    -0.250 OA
ATOM     36  C   UNL     1      37.854 -26.196 -12.342  0.00  0.00    +0.314 C 
BRANCH  36  37
ATOM     37  O   UNL     1      39.074 -26.249 -12.937  0.00  0.00    -0.480 OA
ATOM     38  H   UNL     1      39.499 -27.075 -13.063  0.00  0.00    +0.295 HD
ENDBRANCH  36  37
ENDBRANCH  34  36
ENDBRANCH  33  34
ENDBRANCH   1  33
TORSDOF 11
ENDMDL
MODEL 9
REMARK VINA RESULT:      -9.4      1.766      2.710
REMARK  Name = 16048422
REMARK  11 active torsions:
REMARK  status: ('A' for Active; 'I' for Inactive)
REMARK    1  A    between atoms: C_1  and  C_4
REMARK    2  A    between atoms: C_1  and  N_18
REMARK    3  A    between atoms: C_1  and  C_33
REMARK    4  A    between atoms: N_3  and  C_6
REMARK    5  A    between atoms: C_6  and  C_9
REMARK    6  A    between atoms: C_9  and  C_11
REMARK    7  A    between atoms: C_19  and  C_21
REMARK    8  A    between atoms: C_24  and  C_27
REMARK    9  A    between atoms: C_33  and  C_34
REMARK   10  A    between atoms: C_34  and  C_36
REMARK   11  A    between atoms: C_36  and  O_37
REMARK                            x       y       z     vdW  Elec       q    Type
REMARK                         _______ _______ _______ _____ _____    ______ ____
ROOT
ATOM      1  C   UNL     1      35.717 -22.779 -16.715  0.00  0.00    +0.149 C 
ENDROOT
BRANCH   1   4
ATOM      2  O   UNL     1      33.356 -23.242 -16.958  0.00  0.00    -0.273 OA
ATOM      3  N   UNL     1      34.314 -23.422 -14.851  0.00  0.00    -0.306 N 
ATOM      4  C   UNL     1      34.334 -23.179 -16.216  0.00  0.00    +0.240 C 
ATOM      5  H   UNL     1      35.158 -23.343 -14.349  0.00  0.00    +0.149 HD
BRANCH   3   6
ATOM      6  C   UNL     1      33.116 -23.785 -14.129  0.00  0.00    +0.061 C 
ATOM      7  C   UNL     1      33.507 -24.486 -12.820  0.00  0.00    +0.020 C 
ATOM      8  C   UNL     1      32.357 -22.492 -13.786  0.00  0.00    +0.020 C 
BRANCH   6   9
ATOM      9  C   UNL     1      32.198 -24.675 -15.007  0.00  0.00    +0.044 C 
BRANCH   9  11
ATOM     10  F   UNL     1      26.863 -22.931 -15.561  0.00  0.00    -0.204 F 
ATOM     11  C   UNL     1      30.767 -24.207 -15.156  0.00  0.00    -0.020 C 
ATOM     12  C   UNL     1      30.479 -23.077 -15.921  0.00  0.00    -0.002 C 
ATOM     13  C   UNL     1      29.737 -24.906 -14.527  0.00  0.00    -0.002 C 
ATOM     14  C   UNL     1      29.160 -22.646 -16.058  0.00  0.00    +0.029 C 
ATOM     15  C   UNL     1      28.418 -24.475 -14.665  0.00  0.00    +0.029 C 
ATOM     16  C   UNL     1      28.130 -23.345 -15.430  0.00  0.00    +0.140 C 
ENDBRANCH   9  11
ENDBRANCH   6   9
ENDBRANCH   3   6
ENDBRANCH   1   4
BRANCH   1  18
ATOM     17  O   UNL     1      37.494 -22.146 -18.880  0.00  0.00    -0.270 OA
ATOM     18  N   UNL     1      35.489 -21.814 -17.762  0.00  0.00    -0.295 N 
ATOM     19  C   UNL     1      36.411 -21.577 -18.771  0.00  0.00    +0.246 C 
ATOM     20  H   UNL     1      34.647 -21.305 -17.761  0.00  0.00    +0.150 HD
BRANCH  19  21
ATOM     21  C   UNL     1      36.038 -20.532 -19.759  0.00  0.00    +0.053 C 
ATOM     22  C   UNL     1      36.998 -19.629 -20.215  0.00  0.00    +0.005 C 
ATOM     23  C   UNL     1      34.728 -20.455 -20.231  0.00  0.00    +0.005 C 
ATOM     24  C   UNL     1      35.337 -18.570 -21.615  0.00  0.00    +0.000 C 
ATOM     25  C   UNL     1      36.647 -18.647 -21.142  0.00  0.00    +0.000 C 
ATOM     26  C   UNL     1      34.377 -19.474 -21.159  0.00  0.00    +0.000 C 
BRANCH  24  27
ATOM     27  C   UNL     1      34.974 -17.553 -22.577  0.00  0.00    +0.000 C 
ATOM     28  C   UNL     1      34.561 -17.920 -23.858  0.00  0.00    +0.000 C 
ATOM     29  C   UNL     1      35.034 -16.205 -22.224  0.00  0.00    +0.000 C 
ATOM     30  C   UNL     1      34.208 -16.939 -24.785  0.00  0.00    +0.000 C 
ATOM     31  C   UNL     1      34.682 -15.224 -23.152  0.00  0.00    +0.000 C 
ATOM     32  C   UNL     1      34.270 -15.592 -24.432  0.00  0.00    +0.000 C 
ENDBRANCH  24  27
ENDBRANCH  19  21
ENDBRANCH   1  18
BRANCH   1  33
ATOM     33  C   UNL     1      36.572 -22.172 -15.595  0.00  0.00    +0.041 C 
BRANCH  33  34
ATOM     34  C   UNL     1      37.912 -22.877 -15.372  0.00  0.00    +0.112 C 
BRANCH  34  36
ATOM     35  O   UNL     1      36.939 -24.349 -13.692  0.00  0.00    -0.250 OA
ATOM     36  C   UNL     1      37.794 -24.135 -14.540  0.00  0.00    +0.314 C 
BRANCH  36  37
ATOM     37  O   UNL     1      38.754 -25.039 -14.868  0.00  0.00    -0.480 OA
ATOM     38  H   UNL     1      39.108 -25.606 -14.211  0.00  0.00    +0.295 HD
ENDBRANCH  36  37
ENDBRANCH  34  36
ENDBRANCH  33  34
ENDBRANCH   1  33
TORSDOF 11
ENDMDL
