MODEL 1
REMARK VINA RESULT:     -12.1      0.000      0.000
REMARK  Name = 51039095
REMARK  7 active torsions:
REMARK  status: ('A' for Active; 'I' for Inactive)
REMARK    1  A    between atoms: C_5  and  C_16
REMARK    2  A    between atoms: C_6  and  C_27
REMARK    3  A    between atoms: C_11  and  N_17
REMARK    4  A    between atoms: C_27  and  C_28
REMARK    5  A    between atoms: C_28  and  C_29
REMARK    6  A    between atoms: C_32  and  O_35
REMARK    7  A    between atoms: C_33  and  O_37
REMARK                            x       y       z     vdW  Elec       q    Type
REMARK                         _______ _______ _______ _____ _____    ______ ____
ROOT
ATOM      1  O   UNL     1      33.888 -13.989 -24.000  0.00  0.00    -0.270 OA
ATOM      2  N   UNL     1      34.179 -13.861 -21.675  0.00  0.00    -0.265 N 
ATOM      3  N   UNL     1      35.247 -16.832 -20.228  0.00  0.00    -0.239 N 
ATOM      4  N   UNL     1      34.892 -15.543 -20.089  0.00  0.00    -0.166 NA
ATOM      5  C   UNL     1      33.852 -13.348 -22.938  0.00  0.00    +0.251 C 
ATOM      6  C   UNL     1      35.197 -17.281 -21.516  0.00  0.00    +0.046 C 
ATOM      7  C   UNL     1      34.607 -15.170 -21.339  0.00  0.00    +0.153 C 
ATOM      8  C   UNL     1      34.779 -16.211 -22.270  0.00  0.00    +0.048 C 
ATOM      9  H   UNL     1      34.102 -13.231 -20.923  0.00  0.00    +0.157 HD
ATOM     10  H   UNL     1      35.520 -17.398 -19.471  0.00  0.00    +0.174 HD
ENDROOT
BRANCH   5  16
ATOM     11  C   UNL     1      32.572  -9.302 -23.016  0.00  0.00    +0.048 C 
ATOM     12  C   UNL     1      31.914 -10.226 -22.204  0.00  0.00    +0.015 C 
ATOM     13  C   UNL     1      33.651  -9.707 -23.802  0.00  0.00    +0.015 C 
ATOM     14  C   UNL     1      32.335 -11.555 -22.178  0.00  0.00    +0.006 C 
ATOM     15  C   UNL     1      34.071 -11.037 -23.776  0.00  0.00    +0.006 C 
ATOM     16  C   UNL     1      33.415 -11.961 -22.964  0.00  0.00    +0.054 C 
BRANCH  11  17
ATOM     17  N   UNL     1      32.151  -7.968 -23.043  0.00  0.00    -0.312 N 
ATOM     18  N   UNL     1      31.516  -5.189 -23.062  0.00  0.00    +0.389 N 
ATOM     19  C   UNL     1      30.910  -6.075 -22.062  0.00  0.00    -0.042 C 
ATOM     20  C   UNL     1      31.727  -5.903 -24.325  0.00  0.00    -0.042 C 
ATOM     21  C   UNL     1      31.815  -7.286 -21.788  0.00  0.00    +0.069 C 
ATOM     22  C   UNL     1      32.659  -7.106 -24.120  0.00  0.00    +0.069 C 
ATOM     23  C   UNL     1      32.315  -4.937 -25.352  0.00  0.00    -0.022 C 
ATOM     24  C   UNL     1      30.666  -5.287 -20.777  0.00  0.00    -0.022 C 
ATOM     25  H   UNL     1      32.415  -4.855 -22.712  0.00  0.00    -0.084 HD
ATOM     26  H   UNL     1      30.888  -4.404 -23.228  0.00  0.00    -0.084 HD
ENDBRANCH  11  17
ENDBRANCH   5  16
BRANCH   6  27
ATOM     27  C   UNL     1      35.548 -18.663 -21.878  0.00  0.00    +0.047 C 
BRANCH  27  28
ATOM     28  C   UNL     1      34.387 -19.682 -21.749  0.00  0.00    +0.033 C 
BRANCH  28  29
ATOM     29  C   UNL     1      34.464 -20.504 -20.485  0.00  0.00    -0.016 C 
ATOM     30  C   UNL     1      35.703 -20.783 -19.908  0.00  0.00    +0.033 C 
ATOM     31  C   UNL     1      33.296 -20.983 -19.894  0.00  0.00    +0.033 C 
ATOM     32  C   UNL     1      33.365 -21.742 -18.726  0.00  0.00    +0.141 C 
ATOM     33  C   UNL     1      35.773 -21.541 -18.739  0.00  0.00    +0.141 C 
ATOM     34  C   UNL     1      34.604 -22.022 -18.148  0.00  0.00    +0.074 C 
BRANCH  32  35
ATOM     35  O   UNL     1      32.225 -22.210 -18.148  0.00  0.00    -0.471 OA
ATOM     36  C   UNL     1      32.366 -22.919 -16.917  0.00  0.00    +0.252 C 
ENDBRANCH  32  35
BRANCH  33  37
ATOM     37  O   UNL     1      36.981 -21.813 -18.175  0.00  0.00    -0.471 OA
ATOM     38  C   UNL     1      37.015 -21.966 -16.757  0.00  0.00    +0.252 C 
ENDBRANCH  33  37
ENDBRANCH  28  29
ENDBRANCH  27  28
ENDBRANCH   6  27
TORSDOF 7
ENDMDL
MODEL 2
REMARK VINA RESULT:     -12.0      1.413      1.806
REMARK  Name = 51039095
REMARK  7 active torsions:
REMARK  status: ('A' for Active; 'I' for Inactive)
REMARK    1  A    between atoms: C_5  and  C_16
REMARK    2  A    between atoms: C_6  and  C_27
REMARK    3  A    between atoms: C_11  and  N_17
REMARK    4  A    between atoms: C_27  and  C_28
REMARK    5  A    between atoms: C_28  and  C_29
REMARK    6  A    between atoms: C_32  and  O_35
REMARK    7  A    between atoms: C_33  and  O_37
REMARK                            x       y       z     vdW  Elec       q    Type
REMARK                         _______ _______ _______ _____ _____    ______ ____
ROOT
ATOM      1  O   UNL     1      34.006 -13.811 -21.360  0.00  0.00    -0.270 OA
ATOM      2  N   UNL     1      33.703 -14.123 -23.665  0.00  0.00    -0.265 N 
ATOM      3  N   UNL     1      34.493 -17.320 -24.765  0.00  0.00    -0.239 N 
ATOM      4  N   UNL     1      34.064 -16.078 -25.044  0.00  0.00    -0.166 NA
ATOM      5  C   UNL     1      33.680 -13.379 -22.477  0.00  0.00    +0.251 C 
ATOM      6  C   UNL     1      34.781 -17.521 -23.446  0.00  0.00    +0.046 C 
ATOM      7  C   UNL     1      34.085 -15.475 -23.853  0.00  0.00    +0.153 C 
ATOM      8  C   UNL     1      34.523 -16.325 -22.820  0.00  0.00    +0.048 C 
ATOM      9  H   UNL     1      33.417 -13.644 -24.476  0.00  0.00    +0.157 HD
ATOM     10  H   UNL     1      34.589 -18.022 -25.449  0.00  0.00    +0.174 HD
ENDROOT
BRANCH   5  16
ATOM     11  C   UNL     1      32.468  -9.329 -22.850  0.00  0.00    +0.048 C 
ATOM     12  C   UNL     1      33.471  -9.836 -23.677  0.00  0.00    +0.015 C 
ATOM     13  C   UNL     1      31.861 -10.153 -21.902  0.00  0.00    +0.015 C 
ATOM     14  C   UNL     1      33.869 -11.167 -23.554  0.00  0.00    +0.006 C 
ATOM     15  C   UNL     1      32.260 -11.485 -21.780  0.00  0.00    +0.006 C 
ATOM     16  C   UNL     1      33.263 -11.992 -22.606  0.00  0.00    +0.054 C 
BRANCH  11  17
ATOM     17  N   UNL     1      32.067  -7.994 -22.973  0.00  0.00    -0.312 N 
ATOM     18  N   UNL     1      31.473  -5.215 -23.185  0.00  0.00    +0.389 N 
ATOM     19  C   UNL     1      30.833  -6.026 -22.144  0.00  0.00    -0.042 C 
ATOM     20  C   UNL     1      31.701  -6.012 -24.395  0.00  0.00    -0.042 C 
ATOM     21  C   UNL     1      31.713  -7.228 -21.772  0.00  0.00    +0.069 C 
ATOM     22  C   UNL     1      32.610  -7.211 -24.091  0.00  0.00    +0.069 C 
ATOM     23  C   UNL     1      32.325  -5.122 -25.468  0.00  0.00    -0.022 C 
ATOM     24  C   UNL     1      30.572  -5.153 -20.918  0.00  0.00    -0.022 C 
ATOM     25  H   UNL     1      32.368  -4.870 -22.837  0.00  0.00    -0.084 HD
ATOM     26  H   UNL     1      30.860  -4.434 -23.416  0.00  0.00    -0.084 HD
ENDBRANCH  11  17
ENDBRANCH   5  16
BRANCH   6  27
ATOM     27  C   UNL     1      35.265 -18.813 -22.937  0.00  0.00    +0.047 C 
BRANCH  27  28
ATOM     28  C   UNL     1      36.086 -18.727 -21.625  0.00  0.00    +0.033 C 
BRANCH  28  29
ATOM     29  C   UNL     1      35.676 -19.763 -20.606  0.00  0.00    -0.016 C 
ATOM     30  C   UNL     1      36.642 -20.384 -19.814  0.00  0.00    +0.033 C 
ATOM     31  C   UNL     1      34.331 -20.096 -20.454  0.00  0.00    +0.033 C 
ATOM     32  C   UNL     1      33.950 -21.052 -19.512  0.00  0.00    +0.141 C 
ATOM     33  C   UNL     1      36.262 -21.339 -18.871  0.00  0.00    +0.141 C 
ATOM     34  C   UNL     1      34.917 -21.674 -18.720  0.00  0.00    +0.074 C 
BRANCH  32  35
ATOM     35  O   UNL     1      32.637 -21.378 -19.363  0.00  0.00    -0.471 OA
ATOM     36  C   UNL     1      32.257 -21.990 -18.131  0.00  0.00    +0.252 C 
ENDBRANCH  32  35
BRANCH  33  37
ATOM     37  O   UNL     1      37.204 -21.945 -18.098  0.00  0.00    -0.471 OA
ATOM     38  C   UNL     1      37.165 -21.676 -16.697  0.00  0.00    +0.252 C 
ENDBRANCH  33  37
ENDBRANCH  28  29
ENDBRANCH  27  28
ENDBRANCH   6  27
TORSDOF 7
ENDMDL
MODEL 3
REMARK VINA RESULT:     -12.0      1.416      2.560
REMARK  Name = 51039095
REMARK  7 active torsions:
REMARK  status: ('A' for Active; 'I' for Inactive)
REMARK    1  A    between atoms: C_5  and  C_16
REMARK    2  A    between atoms: C_6  and  C_27
REMARK    3  A    between atoms: C_11  and  N_17
REMARK    4  A    between atoms: C_27  and  C_28
REMARK    5  A    between atoms: C_28  and  C_29
REMARK    6  A    between atoms: C_32  and  O_35
REMARK    7  A    between atoms: C_33  and  O_37
REMARK                            x       y       z     vdW  Elec       q    Type
REMARK                         _______ _______ _______ _____ _____    ______ ____
ROOT
ATOM      1  O   UNL     1      34.011 -13.802 -21.373  0.00  0.00    -0.270 OA
ATOM      2  N   UNL     1      33.708 -14.110 -23.679  0.00  0.00    -0.265 N 
ATOM      3  N   UNL     1      34.491 -17.308 -24.782  0.00  0.00    -0.239 N 
ATOM      4  N   UNL     1      34.064 -16.064 -25.060  0.00  0.00    -0.166 NA
ATOM      5  C   UNL     1      33.687 -13.368 -22.490  0.00  0.00    +0.251 C 
ATOM      6  C   UNL     1      34.779 -17.510 -23.464  0.00  0.00    +0.046 C 
ATOM      7  C   UNL     1      34.087 -15.462 -23.868  0.00  0.00    +0.153 C 
ATOM      8  C   UNL     1      34.523 -16.315 -22.836  0.00  0.00    +0.048 C 
ATOM      9  H   UNL     1      33.423 -13.629 -24.489  0.00  0.00    +0.157 HD
ATOM     10  H   UNL     1      34.585 -18.009 -25.467  0.00  0.00    +0.174 HD
ENDROOT
BRANCH   5  16
ATOM     11  C   UNL     1      32.483  -9.315 -22.858  0.00  0.00    +0.048 C 
ATOM     12  C   UNL     1      33.474  -9.827 -23.696  0.00  0.00    +0.015 C 
ATOM     13  C   UNL     1      31.887 -10.134 -21.900  0.00  0.00    +0.015 C 
ATOM     14  C   UNL     1      33.869 -11.159 -23.575  0.00  0.00    +0.006 C 
ATOM     15  C   UNL     1      32.283 -11.466 -21.779  0.00  0.00    +0.006 C 
ATOM     16  C   UNL     1      33.273 -11.979 -22.617  0.00  0.00    +0.054 C 
BRANCH  11  17
ATOM     17  N   UNL     1      32.086  -7.979 -22.979  0.00  0.00    -0.312 N 
ATOM     18  N   UNL     1      31.498  -5.197 -23.188  0.00  0.00    +0.389 N 
ATOM     19  C   UNL     1      30.857  -6.008 -22.147  0.00  0.00    -0.042 C 
ATOM     20  C   UNL     1      31.722  -5.994 -24.399  0.00  0.00    -0.042 C 
ATOM     21  C   UNL     1      31.736  -7.213 -21.777  0.00  0.00    +0.069 C 
ATOM     22  C   UNL     1      32.629  -7.196 -24.097  0.00  0.00    +0.069 C 
ATOM     23  C   UNL     1      32.347  -5.105 -25.473  0.00  0.00    -0.022 C 
ATOM     24  C   UNL     1      30.601  -5.135 -20.920  0.00  0.00    -0.022 C 
ATOM     25  H   UNL     1      32.395  -4.855 -22.841  0.00  0.00    -0.084 HD
ATOM     26  H   UNL     1      30.886  -4.415 -23.418  0.00  0.00    -0.084 HD
ENDBRANCH  11  17
ENDBRANCH   5  16
BRANCH   6  27
ATOM     27  C   UNL     1      35.259 -18.805 -22.956  0.00  0.00    +0.047 C 
BRANCH  27  28
ATOM     28  C   UNL     1      36.084 -18.722 -21.646  0.00  0.00    +0.033 C 
BRANCH  28  29
ATOM     29  C   UNL     1      35.670 -19.754 -20.624  0.00  0.00    -0.016 C 
ATOM     30  C   UNL     1      34.323 -20.083 -20.469  0.00  0.00    +0.033 C 
ATOM     31  C   UNL     1      36.635 -20.380 -19.837  0.00  0.00    +0.033 C 
ATOM     32  C   UNL     1      36.255 -21.333 -18.892  0.00  0.00    +0.141 C 
ATOM     33  C   UNL     1      33.943 -21.036 -19.526  0.00  0.00    +0.141 C 
ATOM     34  C   UNL     1      34.908 -21.662 -18.737  0.00  0.00    +0.074 C 
BRANCH  32  35
ATOM     35  O   UNL     1      37.197 -21.945 -18.123  0.00  0.00    -0.471 OA
ATOM     36  C   UNL     1      37.139 -21.708 -16.718  0.00  0.00    +0.252 C 
ENDBRANCH  32  35
BRANCH  33  37
ATOM     37  O   UNL     1      32.629 -21.358 -19.375  0.00  0.00    -0.471 OA
ATOM     38  C   UNL     1      32.249 -21.976 -18.146  0.00  0.00    +0.252 C 
ENDBRANCH  33  37
ENDBRANCH  28  29
ENDBRANCH  27  28
ENDBRANCH   6  27
TORSDOF 7
ENDMDL
MODEL 4
REMARK VINA RESULT:     -11.8      4.523     13.617
REMARK  Name = 51039095
REMARK  7 active torsions:
REMARK  status: ('A' for Active; 'I' for Inactive)
REMARK    1  A    between atoms: C_5  and  C_16
REMARK    2  A    between atoms: C_6  and  C_27
REMARK    3  A    between atoms: C_11  and  N_17
REMARK    4  A    between atoms: C_27  and  C_28
REMARK    5  A    between atoms: C_28  and  C_29
REMARK    6  A    between atoms: C_32  and  O_35
REMARK    7  A    between atoms: C_33  and  O_37
REMARK                            x       y       z     vdW  Elec       q    Type
REMARK                         _______ _______ _______ _____ _____    ______ ____
ROOT
ATOM      1  O   UNL     1      34.011 -21.423 -19.395  0.00  0.00    -0.270 OA
ATOM      2  N   UNL     1      36.095 -20.362 -19.589  0.00  0.00    -0.265 N 
ATOM      3  N   UNL     1      36.361 -18.286 -22.359  0.00  0.00    -0.239 N 
ATOM      4  N   UNL     1      36.919 -18.818 -21.258  0.00  0.00    -0.166 NA
ATOM      5  C   UNL     1      35.160 -21.209 -18.977  0.00  0.00    +0.251 C 
ATOM      6  C   UNL     1      35.079 -18.697 -22.580  0.00  0.00    +0.046 C 
ATOM      7  C   UNL     1      35.948 -19.593 -20.770  0.00  0.00    +0.153 C 
ATOM      8  C   UNL     1      34.778 -19.558 -21.552  0.00  0.00    +0.048 C 
ATOM      9  H   UNL     1      36.969 -20.293 -19.141  0.00  0.00    +0.157 HD
ATOM     10  H   UNL     1      36.834 -17.658 -22.951  0.00  0.00    +0.174 HD
ENDROOT
BRANCH   5  16
ATOM     11  C   UNL     1      36.485 -23.203 -15.472  0.00  0.00    +0.048 C 
ATOM     12  C   UNL     1      35.160 -23.333 -15.890  0.00  0.00    +0.015 C 
ATOM     13  C   UNL     1      37.375 -22.419 -16.206  0.00  0.00    +0.015 C 
ATOM     14  C   UNL     1      34.726 -22.678 -17.042  0.00  0.00    +0.006 C 
ATOM     15  C   UNL     1      36.939 -21.764 -17.358  0.00  0.00    +0.006 C 
ATOM     16  C   UNL     1      35.615 -21.893 -17.777  0.00  0.00    +0.054 C 
BRANCH  11  17
ATOM     17  N   UNL     1      36.923 -23.860 -14.317  0.00  0.00    -0.312 N 
ATOM     18  N   UNL     1      37.737 -25.397 -12.059  0.00  0.00    +0.389 N 
ATOM     19  C   UNL     1      36.757 -24.318 -11.900  0.00  0.00    -0.042 C 
ATOM     20  C   UNL     1      38.705 -25.064 -13.109  0.00  0.00    -0.042 C 
ATOM     21  C   UNL     1      35.988 -24.082 -13.208  0.00  0.00    +0.069 C 
ATOM     22  C   UNL     1      37.996 -24.855 -14.455  0.00  0.00    +0.069 C 
ATOM     23  C   UNL     1      39.734 -26.188 -13.214  0.00  0.00    -0.022 C 
ATOM     24  C   UNL     1      35.794 -24.680 -10.770  0.00  0.00    -0.022 C 
ATOM     25  H   UNL     1      37.250 -26.257 -12.313  0.00  0.00    -0.084 HD
ATOM     26  H   UNL     1      38.236 -25.520 -11.178  0.00  0.00    -0.084 HD
ENDBRANCH  11  17
ENDBRANCH   5  16
BRANCH   6  27
ATOM     27  C   UNL     1      34.293 -18.230 -23.733  0.00  0.00    +0.047 C 
BRANCH  27  28
ATOM     28  C   UNL     1      34.920 -17.042 -24.506  0.00  0.00    +0.033 C 
BRANCH  28  29
ATOM     29  C   UNL     1      34.404 -15.700 -24.043  0.00  0.00    -0.016 C 
ATOM     30  C   UNL     1      33.951 -14.767 -24.975  0.00  0.00    +0.033 C 
ATOM     31  C   UNL     1      34.379 -15.396 -22.683  0.00  0.00    +0.033 C 
ATOM     32  C   UNL     1      33.903 -14.158 -22.253  0.00  0.00    +0.141 C 
ATOM     33  C   UNL     1      33.474 -13.529 -24.546  0.00  0.00    +0.141 C 
ATOM     34  C   UNL     1      33.450 -13.223 -23.185  0.00  0.00    +0.074 C 
BRANCH  32  35
ATOM     35  O   UNL     1      33.878 -13.860 -20.925  0.00  0.00    -0.471 OA
ATOM     36  C   UNL     1      32.594 -13.723 -20.316  0.00  0.00    +0.252 C 
ENDBRANCH  32  35
BRANCH  33  37
ATOM     37  O   UNL     1      33.031 -12.618 -25.455  0.00  0.00    -0.471 OA
ATOM     38  C   UNL     1      33.629 -11.323 -25.420  0.00  0.00    +0.252 C 
ENDBRANCH  33  37
ENDBRANCH  28  29
ENDBRANCH  27  28
ENDBRANCH   6  27
TORSDOF 7
ENDMDL
MODEL 5
REMARK VINA RESULT:     -11.8      4.553     13.636
REMARK  Name = 51039095
REMARK  7 active torsions:
REMARK  status: ('A' for Active; 'I' for Inactive)
REMARK    1  A    between atoms: C_5  and  C_16
REMARK    2  A    between atoms: C_6  and  C_27
REMARK    3  A    between atoms: C_11  and  N_17
REMARK    4  A    between atoms: C_27  and  C_28
REMARK    5  A    between atoms: C_28  and  C_29
REMARK    6  A    between atoms: C_32  and  O_35
REMARK    7  A    between atoms: C_33  and  O_37
REMARK                            x       y       z     vdW  Elec       q    Type
REMARK                         _______ _______ _______ _____ _____    ______ ____
ROOT
ATOM      1  O   UNL     1      33.980 -21.451 -19.353  0.00  0.00    -0.270 OA
ATOM      2  N   UNL     1      36.062 -20.391 -19.562  0.00  0.00    -0.265 N 
ATOM      3  N   UNL     1      36.313 -18.325 -22.341  0.00  0.00    -0.239 N 
ATOM      4  N   UNL     1      36.877 -18.851 -21.241  0.00  0.00    -0.166 NA
ATOM      5  C   UNL     1      35.131 -21.235 -18.942  0.00  0.00    +0.251 C 
ATOM      6  C   UNL     1      35.030 -18.737 -22.554  0.00  0.00    +0.046 C 
ATOM      7  C   UNL     1      35.909 -19.625 -20.744  0.00  0.00    +0.153 C 
ATOM      8  C   UNL     1      34.735 -19.594 -21.521  0.00  0.00    +0.048 C 
ATOM      9  H   UNL     1      36.938 -20.319 -19.118  0.00  0.00    +0.157 HD
ATOM     10  H   UNL     1      36.782 -17.698 -22.937  0.00  0.00    +0.174 HD
ENDROOT
BRANCH   5  16
ATOM     11  C   UNL     1      36.475 -23.216 -15.437  0.00  0.00    +0.048 C 
ATOM     12  C   UNL     1      35.154 -23.367 -15.860  0.00  0.00    +0.015 C 
ATOM     13  C   UNL     1      37.355 -22.415 -16.165  0.00  0.00    +0.015 C 
ATOM     14  C   UNL     1      34.713 -22.716 -17.012  0.00  0.00    +0.006 C 
ATOM     15  C   UNL     1      36.912 -21.765 -17.317  0.00  0.00    +0.006 C 
ATOM     16  C   UNL     1      35.593 -21.915 -17.741  0.00  0.00    +0.054 C 
BRANCH  11  17
ATOM     17  N   UNL     1      36.919 -23.868 -14.281  0.00  0.00    -0.312 N 
ATOM     18  N   UNL     1      37.747 -25.397 -12.023  0.00  0.00    +0.389 N 
ATOM     19  C   UNL     1      36.759 -24.325 -11.863  0.00  0.00    -0.042 C 
ATOM     20  C   UNL     1      38.712 -25.057 -13.074  0.00  0.00    -0.042 C 
ATOM     21  C   UNL     1      35.987 -24.097 -13.171  0.00  0.00    +0.069 C 
ATOM     22  C   UNL     1      37.999 -24.854 -14.419  0.00  0.00    +0.069 C 
ATOM     23  C   UNL     1      39.750 -26.173 -13.179  0.00  0.00    -0.022 C 
ATOM     24  C   UNL     1      35.799 -24.694 -10.732  0.00  0.00    -0.022 C 
ATOM     25  H   UNL     1      37.267 -26.261 -12.275  0.00  0.00    -0.084 HD
ATOM     26  H   UNL     1      38.248 -25.515 -11.142  0.00  0.00    -0.084 HD
ENDBRANCH  11  17
ENDBRANCH   5  16
BRANCH   6  27
ATOM     27  C   UNL     1      34.238 -18.274 -23.705  0.00  0.00    +0.047 C 
BRANCH  27  28
ATOM     28  C   UNL     1      34.876 -17.110 -24.504  0.00  0.00    +0.033 C 
BRANCH  28  29
ATOM     29  C   UNL     1      34.369 -15.754 -24.074  0.00  0.00    -0.016 C 
ATOM     30  C   UNL     1      34.372 -15.403 -22.724  0.00  0.00    +0.033 C 
ATOM     31  C   UNL     1      33.900 -14.851 -25.028  0.00  0.00    +0.033 C 
ATOM     32  C   UNL     1      33.433 -13.598 -24.632  0.00  0.00    +0.141 C 
ATOM     33  C   UNL     1      33.906 -14.150 -22.328  0.00  0.00    +0.141 C 
ATOM     34  C   UNL     1      33.435 -13.247 -23.282  0.00  0.00    +0.074 C 
BRANCH  32  35
ATOM     35  O   UNL     1      32.975 -12.716 -25.563  0.00  0.00    -0.471 OA
ATOM     36  C   UNL     1      33.525 -11.400 -25.533  0.00  0.00    +0.252 C 
ENDBRANCH  32  35
BRANCH  33  37
ATOM     37  O   UNL     1      33.909 -13.807 -21.011  0.00  0.00    -0.471 OA
ATOM     38  C   UNL     1      32.640 -13.654 -20.377  0.00  0.00    +0.252 C 
ENDBRANCH  33  37
ENDBRANCH  28  29
ENDBRANCH  27  28
ENDBRANCH   6  27
TORSDOF 7
ENDMDL
MODEL 6
REMARK VINA RESULT:     -11.6      0.262      1.470
REMARK  Name = 51039095
REMARK  7 active torsions:
REMARK  status: ('A' for Active; 'I' for Inactive)
REMARK    1  A    between atoms: C_5  and  C_16
REMARK    2  A    between atoms: C_6  and  C_27
REMARK    3  A    between atoms: C_11  and  N_17
REMARK    4  A    between atoms: C_27  and  C_28
REMARK    5  A    between atoms: C_28  and  C_29
REMARK    6  A    between atoms: C_32  and  O_35
REMARK    7  A    between atoms: C_33  and  O_37
REMARK                            x       y       z     vdW  Elec       q    Type
REMARK                         _______ _______ _______ _____ _____    ______ ____
ROOT
ATOM      1  O   UNL     1      33.891 -13.982 -24.024  0.00  0.00    -0.270 OA
ATOM      2  N   UNL     1      34.247 -13.878 -21.707  0.00  0.00    -0.265 N 
ATOM      3  N   UNL     1      35.227 -16.898 -20.300  0.00  0.00    -0.239 N 
ATOM      4  N   UNL     1      34.930 -15.596 -20.147  0.00  0.00    -0.166 NA
ATOM      5  C   UNL     1      33.909 -13.345 -22.959  0.00  0.00    +0.251 C 
ATOM      6  C   UNL     1      35.124 -17.338 -21.588  0.00  0.00    +0.046 C 
ATOM      7  C   UNL     1      34.628 -15.205 -21.387  0.00  0.00    +0.153 C 
ATOM      8  C   UNL     1      34.732 -16.248 -22.327  0.00  0.00    +0.048 C 
ATOM      9  H   UNL     1      34.215 -13.249 -20.951  0.00  0.00    +0.157 HD
ATOM     10  H   UNL     1      35.495 -17.479 -19.553  0.00  0.00    +0.174 HD
ENDROOT
BRANCH   5  16
ATOM     11  C   UNL     1      32.798  -9.249 -22.988  0.00  0.00    +0.048 C 
ATOM     12  C   UNL     1      32.077 -10.162 -22.218  0.00  0.00    +0.015 C 
ATOM     13  C   UNL     1      33.885  -9.681 -23.748  0.00  0.00    +0.015 C 
ATOM     14  C   UNL     1      32.443 -11.507 -22.209  0.00  0.00    +0.006 C 
ATOM     15  C   UNL     1      34.250 -11.028 -23.738  0.00  0.00    +0.006 C 
ATOM     16  C   UNL     1      33.530 -11.941 -22.968  0.00  0.00    +0.054 C 
BRANCH  11  17
ATOM     17  N   UNL     1      32.433  -7.898 -22.999  0.00  0.00    -0.312 N 
ATOM     18  N   UNL     1      31.468  -5.217 -23.032  0.00  0.00    +0.389 N 
ATOM     19  C   UNL     1      32.364  -5.689 -24.093  0.00  0.00    -0.042 C 
ATOM     20  C   UNL     1      31.789  -5.866 -21.757  0.00  0.00    -0.042 C 
ATOM     21  C   UNL     1      32.235  -7.208 -24.279  0.00  0.00    +0.069 C 
ATOM     22  C   UNL     1      31.640  -7.390 -21.872  0.00  0.00    +0.069 C 
ATOM     23  C   UNL     1      30.867  -5.316 -20.671  0.00  0.00    -0.022 C 
ATOM     24  C   UNL     1      32.028  -4.960 -25.393  0.00  0.00    -0.022 C 
ATOM     25  H   UNL     1      30.504  -5.435 -23.286  0.00  0.00    -0.084 HD
ATOM     26  H   UNL     1      31.585  -4.209 -22.928  0.00  0.00    -0.084 HD
ENDBRANCH  11  17
ENDBRANCH   5  16
BRANCH   6  27
ATOM     27  C   UNL     1      35.408 -18.732 -21.965  0.00  0.00    +0.047 C 
BRANCH  27  28
ATOM     28  C   UNL     1      34.232 -19.716 -21.742  0.00  0.00    +0.033 C 
BRANCH  28  29
ATOM     29  C   UNL     1      34.373 -20.526 -20.476  0.00  0.00    -0.016 C 
ATOM     30  C   UNL     1      35.637 -20.750 -19.928  0.00  0.00    +0.033 C 
ATOM     31  C   UNL     1      33.241 -21.048 -19.853  0.00  0.00    +0.033 C 
ATOM     32  C   UNL     1      33.370 -21.796 -18.683  0.00  0.00    +0.141 C 
ATOM     33  C   UNL     1      35.767 -21.497 -18.758  0.00  0.00    +0.141 C 
ATOM     34  C   UNL     1      34.634 -22.021 -18.135  0.00  0.00    +0.074 C 
BRANCH  32  35
ATOM     35  O   UNL     1      32.265 -22.307 -18.074  0.00  0.00    -0.471 OA
ATOM     36  C   UNL     1      32.474 -23.073 -16.889  0.00  0.00    +0.252 C 
ENDBRANCH  32  35
BRANCH  33  37
ATOM     37  O   UNL     1      36.999 -21.715 -18.223  0.00  0.00    -0.471 OA
ATOM     38  C   UNL     1      37.069 -21.902 -16.810  0.00  0.00    +0.252 C 
ENDBRANCH  33  37
ENDBRANCH  28  29
ENDBRANCH  27  28
ENDBRANCH   6  27
TORSDOF 7
ENDMDL
MODEL 7
REMARK VINA RESULT:     -11.6      0.252      2.352
REMARK  Name = 51039095
REMARK  7 active torsions:
REMARK  status: ('A' for Active; 'I' for Inactive)
REMARK    1  A    between atoms: C_5  and  C_16
REMARK    2  A    between atoms: C_6  and  C_27
REMARK    3  A    between atoms: C_11  and  N_17
REMARK    4  A    between atoms: C_27  and  C_28
REMARK    5  A    between atoms: C_28  and  C_29
REMARK    6  A    between atoms: C_32  and  O_35
REMARK    7  A    between atoms: C_33  and  O_37
REMARK                            x       y       z     vdW  Elec       q    Type
REMARK                         _______ _______ _______ _____ _____    ______ ____
ROOT
ATOM      1  O   UNL     1      33.813 -13.978 -24.039  0.00  0.00    -0.270 OA
ATOM      2  N   UNL     1      34.240 -13.838 -21.736  0.00  0.00    -0.265 N 
ATOM      3  N   UNL     1      35.258 -16.838 -20.314  0.00  0.00    -0.239 N 
ATOM      4  N   UNL     1      34.968 -15.533 -20.171  0.00  0.00    -0.166 NA
ATOM      5  C   UNL     1      33.864 -13.324 -22.985  0.00  0.00    +0.251 C 
ATOM      6  C   UNL     1      35.116 -17.298 -21.591  0.00  0.00    +0.046 C 
ATOM      7  C   UNL     1      34.629 -15.161 -21.408  0.00  0.00    +0.153 C 
ATOM      8  C   UNL     1      34.703 -16.219 -22.334  0.00  0.00    +0.048 C 
ATOM      9  H   UNL     1      34.232 -13.198 -20.989  0.00  0.00    +0.157 HD
ATOM     10  H   UNL     1      35.548 -17.408 -19.566  0.00  0.00    +0.174 HD
ENDROOT
BRANCH   5  16
ATOM     11  C   UNL     1      32.759  -9.227 -23.045  0.00  0.00    +0.048 C 
ATOM     12  C   UNL     1      32.014 -10.140 -22.297  0.00  0.00    +0.015 C 
ATOM     13  C   UNL     1      33.868  -9.660 -23.772  0.00  0.00    +0.015 C 
ATOM     14  C   UNL     1      32.378 -11.486 -22.278  0.00  0.00    +0.006 C 
ATOM     15  C   UNL     1      34.231 -11.007 -23.751  0.00  0.00    +0.006 C 
ATOM     16  C   UNL     1      33.487 -11.919 -23.005  0.00  0.00    +0.054 C 
BRANCH  11  17
ATOM     17  N   UNL     1      32.395  -7.876 -23.065  0.00  0.00    -0.312 N 
ATOM     18  N   UNL     1      31.434  -5.193 -23.126  0.00  0.00    +0.389 N 
ATOM     19  C   UNL     1      32.366  -5.664 -24.156  0.00  0.00    -0.042 C 
ATOM     20  C   UNL     1      31.710  -5.846 -21.842  0.00  0.00    -0.042 C 
ATOM     21  C   UNL     1      32.243  -7.183 -24.349  0.00  0.00    +0.069 C 
ATOM     22  C   UNL     1      31.563  -7.369 -21.965  0.00  0.00    +0.069 C 
ATOM     23  C   UNL     1      30.751  -5.297 -20.787  0.00  0.00    -0.022 C 
ATOM     24  C   UNL     1      32.077  -4.932 -25.465  0.00  0.00    -0.022 C 
ATOM     25  H   UNL     1      30.479  -5.411 -23.414  0.00  0.00    -0.084 HD
ATOM     26  H   UNL     1      31.548  -4.186 -23.015  0.00  0.00    -0.084 HD
ENDBRANCH  11  17
ENDBRANCH   5  16
BRANCH   6  27
ATOM     27  C   UNL     1      35.386 -18.697 -21.954  0.00  0.00    +0.047 C 
BRANCH  27  28
ATOM     28  C   UNL     1      34.192 -19.663 -21.745  0.00  0.00    +0.033 C 
BRANCH  28  29
ATOM     29  C   UNL     1      34.320 -20.493 -20.490  0.00  0.00    -0.016 C 
ATOM     30  C   UNL     1      33.177 -20.982 -19.857  0.00  0.00    +0.033 C 
ATOM     31  C   UNL     1      35.581 -20.773 -19.965  0.00  0.00    +0.033 C 
ATOM     32  C   UNL     1      35.701 -21.540 -18.806  0.00  0.00    +0.141 C 
ATOM     33  C   UNL     1      33.296 -21.750 -18.699  0.00  0.00    +0.141 C 
ATOM     34  C   UNL     1      34.557 -22.028 -18.173  0.00  0.00    +0.074 C 
BRANCH  32  35
ATOM     35  O   UNL     1      36.932 -21.813 -18.293  0.00  0.00    -0.471 OA
ATOM     36  C   UNL     1      37.053 -21.823 -16.872  0.00  0.00    +0.252 C 
ENDBRANCH  32  35
BRANCH  33  37
ATOM     37  O   UNL     1      32.181 -22.228 -18.081  0.00  0.00    -0.471 OA
ATOM     38  C   UNL     1      32.375 -22.983 -16.886  0.00  0.00    +0.252 C 
ENDBRANCH  33  37
ENDBRANCH  28  29
ENDBRANCH  27  28
ENDBRANCH   6  27
TORSDOF 7
ENDMDL
MODEL 8
REMARK VINA RESULT:     -11.4      4.695     13.497
REMARK  Name = 51039095
REMARK  7 active torsions:
REMARK  status: ('A' for Active; 'I' for Inactive)
REMARK    1  A    between atoms: C_5  and  C_16
REMARK    2  A    between atoms: C_6  and  C_27
REMARK    3  A    between atoms: C_11  and  N_17
REMARK    4  A    between atoms: C_27  and  C_28
REMARK    5  A    between atoms: C_28  and  C_29
REMARK    6  A    between atoms: C_32  and  O_35
REMARK    7  A    between atoms: C_33  and  O_37
REMARK                            x       y       z     vdW  Elec       q    Type
REMARK                         _______ _______ _______ _____ _____    ______ ____
ROOT
ATOM      1  O   UNL     1      33.795 -21.330 -19.614  0.00  0.00    -0.270 OA
ATOM      2  N   UNL     1      35.919 -20.360 -19.847  0.00  0.00    -0.265 N 
ATOM      3  N   UNL     1      36.226 -18.301 -22.626  0.00  0.00    -0.239 N 
ATOM      4  N   UNL     1      36.779 -18.855 -21.533  0.00  0.00    -0.166 NA
ATOM      5  C   UNL     1      34.959 -21.165 -19.216  0.00  0.00    +0.251 C 
ATOM      6  C   UNL     1      34.923 -18.657 -22.823  0.00  0.00    +0.046 C 
ATOM      7  C   UNL     1      35.785 -19.587 -21.026  0.00  0.00    +0.153 C 
ATOM      8  C   UNL     1      34.604 -19.502 -21.789  0.00  0.00    +0.048 C 
ATOM      9  H   UNL     1      36.802 -20.328 -19.413  0.00  0.00    +0.157 HD
ATOM     10  H   UNL     1      36.715 -17.695 -23.227  0.00  0.00    +0.174 HD
ENDROOT
BRANCH   5  16
ATOM     11  C   UNL     1      36.257 -23.209 -15.731  0.00  0.00    +0.048 C 
ATOM     12  C   UNL     1      34.937 -23.336 -16.163  0.00  0.00    +0.015 C 
ATOM     13  C   UNL     1      37.152 -22.412 -16.445  0.00  0.00    +0.015 C 
ATOM     14  C   UNL     1      34.511 -22.664 -17.308  0.00  0.00    +0.006 C 
ATOM     15  C   UNL     1      36.725 -21.740 -17.590  0.00  0.00    +0.006 C 
ATOM     16  C   UNL     1      35.405 -21.866 -18.023  0.00  0.00    +0.054 C 
BRANCH  11  17
ATOM     17  N   UNL     1      36.686 -23.883 -14.582  0.00  0.00    -0.312 N 
ATOM     18  N   UNL     1      37.629 -25.049 -12.158  0.00  0.00    +0.389 N 
ATOM     19  C   UNL     1      38.205 -25.457 -13.443  0.00  0.00    -0.042 C 
ATOM     20  C   UNL     1      36.208 -24.718 -12.310  0.00  0.00    -0.042 C 
ATOM     21  C   UNL     1      38.080 -24.330 -14.480  0.00  0.00    +0.069 C 
ATOM     22  C   UNL     1      36.023 -23.567 -13.310  0.00  0.00    +0.069 C 
ATOM     23  C   UNL     1      35.634 -24.342 -10.946  0.00  0.00    -0.022 C 
ATOM     24  C   UNL     1      39.671 -25.835 -13.237  0.00  0.00    -0.022 C 
ATOM     25  H   UNL     1      38.129 -24.229 -11.813  0.00  0.00    -0.084 HD
ATOM     26  H   UNL     1      37.718 -25.820 -11.498  0.00  0.00    -0.084 HD
ENDBRANCH  11  17
ENDBRANCH   5  16
BRANCH   6  27
ATOM     27  C   UNL     1      34.139 -18.158 -23.964  0.00  0.00    +0.047 C 
BRANCH  27  28
ATOM     28  C   UNL     1      34.745 -16.922 -24.676  0.00  0.00    +0.033 C 
BRANCH  28  29
ATOM     29  C   UNL     1      34.360 -15.618 -24.021  0.00  0.00    -0.016 C 
ATOM     30  C   UNL     1      33.779 -14.600 -24.778  0.00  0.00    +0.033 C 
ATOM     31  C   UNL     1      34.584 -15.431 -22.657  0.00  0.00    +0.033 C 
ATOM     32  C   UNL     1      34.228 -14.226 -22.050  0.00  0.00    +0.141 C 
ATOM     33  C   UNL     1      33.423 -13.396 -24.171  0.00  0.00    +0.141 C 
ATOM     34  C   UNL     1      33.648 -13.208 -22.808  0.00  0.00    +0.074 C 
BRANCH  32  35
ATOM     35  O   UNL     1      34.446 -14.043 -20.719  0.00  0.00    -0.471 OA
ATOM     36  C   UNL     1      34.465 -15.211 -19.899  0.00  0.00    +0.252 C 
ENDBRANCH  32  35
BRANCH  33  37
ATOM     37  O   UNL     1      32.855 -12.403 -24.909  0.00  0.00    -0.471 OA
ATOM     38  C   UNL     1      33.660 -11.812 -25.929  0.00  0.00    +0.252 C 
ENDBRANCH  33  37
ENDBRANCH  28  29
ENDBRANCH  27  28
ENDBRANCH   6  27
TORSDOF 7
ENDMDL
MODEL 9
REMARK VINA RESULT:     -10.4      4.379     13.013
REMARK  Name = 51039095
REMARK  7 active torsions:
REMARK  status: ('A' for Active; 'I' for Inactive)
REMARK    1  A    between atoms: C_5  and  C_16
REMARK    2  A    between atoms: C_6  and  C_27
REMARK    3  A    between atoms: C_11  and  N_17
REMARK    4  A    between atoms: C_27  and  C_28
REMARK    5  A    between atoms: C_28  and  C_29
REMARK    6  A    between atoms: C_32  and  O_35
REMARK    7  A    between atoms: C_33  and  O_37
REMARK                            x       y       z     vdW  Elec       q    Type
REMARK                         _______ _______ _______ _____ _____    ______ ____
ROOT
ATOM      1  O   UNL     1      32.919 -20.570 -20.943  0.00  0.00    -0.270 OA
ATOM      2  N   UNL     1      35.043 -19.762 -20.359  0.00  0.00    -0.265 N 
ATOM      3  N   UNL     1      36.387 -17.548 -22.671  0.00  0.00    -0.239 N 
ATOM      4  N   UNL     1      36.505 -18.218 -21.512  0.00  0.00    -0.166 NA
ATOM      5  C   UNL     1      33.885 -20.528 -20.164  0.00  0.00    +0.251 C 
ATOM      6  C   UNL     1      35.213 -17.782 -23.326  0.00  0.00    +0.046 C 
ATOM      7  C   UNL     1      35.360 -18.900 -21.438  0.00  0.00    +0.153 C 
ATOM      8  C   UNL     1      34.516 -18.668 -22.541  0.00  0.00    +0.048 C 
ATOM      9  H   UNL     1      35.726 -19.832 -19.653  0.00  0.00    +0.157 HD
ATOM     10  H   UNL     1      37.083 -16.943 -23.014  0.00  0.00    +0.174 HD
ENDROOT
BRANCH   5  16
ATOM     11  C   UNL     1      33.807 -22.906 -16.650  0.00  0.00    +0.048 C 
ATOM     12  C   UNL     1      32.612 -22.515 -17.254  0.00  0.00    +0.015 C 
ATOM     13  C   UNL     1      35.028 -22.516 -17.200  0.00  0.00    +0.015 C 
ATOM     14  C   UNL     1      32.638 -21.734 -18.409  0.00  0.00    +0.006 C 
ATOM     15  C   UNL     1      35.053 -21.734 -18.356  0.00  0.00    +0.006 C 
ATOM     16  C   UNL     1      33.859 -21.344 -18.960  0.00  0.00    +0.054 C 
BRANCH  11  17
ATOM     17  N   UNL     1      33.783 -23.690 -15.491  0.00  0.00    -0.312 N 
ATOM     18  N   UNL     1      33.696 -25.091 -13.010  0.00  0.00    +0.389 N 
ATOM     19  C   UNL     1      34.909 -25.129 -13.835  0.00  0.00    -0.042 C 
ATOM     20  C   UNL     1      32.500 -25.017 -13.855  0.00  0.00    -0.042 C 
ATOM     21  C   UNL     1      35.013 -23.872 -14.710  0.00  0.00    +0.069 C 
ATOM     22  C   UNL     1      32.529 -23.755 -14.728  0.00  0.00    +0.069 C 
ATOM     23  C   UNL     1      31.259 -25.026 -12.964  0.00  0.00    -0.022 C 
ATOM     24  C   UNL     1      36.130 -25.250 -12.924  0.00  0.00    -0.022 C 
ATOM     25  H   UNL     1      33.729 -24.271 -12.404  0.00  0.00    -0.084 HD
ATOM     26  H   UNL     1      33.652 -25.942 -12.451  0.00  0.00    -0.084 HD
ENDBRANCH  11  17
ENDBRANCH   5  16
BRANCH   6  27
ATOM     27  C   UNL     1      34.892 -17.143 -24.612  0.00  0.00    +0.047 C 
BRANCH  27  28
ATOM     28  C   UNL     1      33.516 -16.432 -24.657  0.00  0.00    +0.033 C 
BRANCH  28  29
ATOM     29  C   UNL     1      33.566 -15.020 -24.125  0.00  0.00    -0.016 C 
ATOM     30  C   UNL     1      33.619 -14.793 -22.750  0.00  0.00    +0.033 C 
ATOM     31  C   UNL     1      33.561 -13.942 -25.009  0.00  0.00    +0.033 C 
ATOM     32  C   UNL     1      33.608 -12.637 -24.520  0.00  0.00    +0.141 C 
ATOM     33  C   UNL     1      33.667 -13.489 -22.259  0.00  0.00    +0.141 C 
ATOM     34  C   UNL     1      33.661 -12.410 -23.144  0.00  0.00    +0.074 C 
BRANCH  32  35
ATOM     35  O   UNL     1      33.604 -11.584 -25.383  0.00  0.00    -0.471 OA
ATOM     36  C   UNL     1      34.698 -10.672 -25.297  0.00  0.00    +0.252 C 
ENDBRANCH  32  35
BRANCH  33  37
ATOM     37  O   UNL     1      33.719 -13.267 -20.917  0.00  0.00    -0.471 OA
ATOM     38  C   UNL     1      32.502 -13.412 -20.187  0.00  0.00    +0.252 C 
ENDBRANCH  33  37
ENDBRANCH  28  29
ENDBRANCH  27  28
ENDBRANCH   6  27
TORSDOF 7
ENDMDL
