MODEL 1
REMARK VINA RESULT:     -12.2      0.000      0.000
REMARK  Name = 5288607
REMARK  4 active torsions:
REMARK  status: ('A' for Active; 'I' for Inactive)
REMARK    1  A    between atoms: N_2  and  C_19
REMARK    2  A    between atoms: C_3  and  C_6
REMARK    3  A    between atoms: C_5  and  C_16
REMARK    4  A    between atoms: C_19  and  C_21
REMARK                            x       y       z     vdW  Elec       q    Type
REMARK                         _______ _______ _______ _____ _____    ______ ____
ROOT
ATOM      1  O   UNL     1      34.444 -16.454 -25.349  0.00  0.00    -0.270 OA
ATOM      2  N   UNL     1      33.673 -14.665 -24.080  0.00  0.00    -0.270 N 
ATOM      3  C   UNL     1      34.275 -15.915 -24.255  0.00  0.00    +0.249 C 
ATOM      4  C   UNL     1      33.205 -13.928 -25.247  0.00  0.00    +0.116 C 
ENDROOT
BRANCH   3   6
ATOM      5  C   UNL     1      35.003 -17.938 -23.040  0.00  0.00    +0.006 C 
ATOM      6  C   UNL     1      34.699 -16.619 -23.008  0.00  0.00    +0.058 C 
BRANCH   5  16
ATOM      7  O   UNL     1      36.274 -22.538 -16.994  0.00  0.00    -0.275 OA
ATOM      8  N   UNL     1      36.640 -20.945 -18.606  0.00  0.00    -0.270 N 
ATOM      9  N   UNL     1      37.101 -19.356 -20.297  0.00  0.00    -0.229 NA
ATOM     10  C   UNL     1      33.943 -21.232 -19.431  0.00  0.00    +0.039 C 
ATOM     11  C   UNL     1      34.906 -20.360 -20.181  0.00  0.00    +0.010 C 
ATOM     12  C   UNL     1      34.670 -22.393 -18.770  0.00  0.00    +0.090 C 
ATOM     13  C   UNL     1      36.215 -20.208 -19.728  0.00  0.00    +0.130 C 
ATOM     14  C   UNL     1      34.499 -19.600 -21.279  0.00  0.00    +0.000 C 
ATOM     15  C   UNL     1      35.909 -21.956 -18.015  0.00  0.00    +0.227 C 
ATOM     16  C   UNL     1      35.397 -18.736 -21.893  0.00  0.00    +0.019 C 
ATOM     17  C   UNL     1      36.674 -18.649 -21.366  0.00  0.00    +0.100 C 
ATOM     18  H   UNL     1      37.518 -20.726 -18.218  0.00  0.00    +0.156 HD
ENDBRANCH   5  16
ENDBRANCH   3   6
BRANCH   2  19
ATOM     19  C   UNL     1      33.432 -14.022 -22.791  0.00  0.00    +0.122 C 
BRANCH  19  21
ATOM     20  N   UNL     1      33.979 -10.524 -23.680  0.00  0.00    -0.284 N 
ATOM     21  C   UNL     1      33.455 -12.541 -22.957  0.00  0.00    +0.014 C 
ATOM     22  C   UNL     1      32.664 -11.610 -22.243  0.00  0.00    +0.013 C 
ATOM     23  C   UNL     1      33.012 -10.344 -22.717  0.00  0.00    +0.051 C 
ATOM     24  C   UNL     1      34.254 -11.856 -23.831  0.00  0.00    +0.063 C 
ATOM     25  C   UNL     1      31.681 -11.711 -21.239  0.00  0.00    +0.001 C 
ATOM     26  C   UNL     1      32.424  -9.169 -22.235  0.00  0.00    +0.015 C 
ATOM     27  C   UNL     1      34.622  -9.467 -24.434  0.00  0.00    +0.117 C 
ATOM     28  C   UNL     1      31.086 -10.545 -20.746  0.00  0.00    +0.000 C 
ATOM     29  C   UNL     1      31.452  -9.295 -21.238  0.00  0.00    +0.001 C 
ENDBRANCH  19  21
ENDBRANCH   2  19
TORSDOF 4
ENDMDL
MODEL 2
REMARK VINA RESULT:     -12.2      0.866      1.919
REMARK  Name = 5288607
REMARK  4 active torsions:
REMARK  status: ('A' for Active; 'I' for Inactive)
REMARK    1  A    between atoms: N_2  and  C_19
REMARK    2  A    between atoms: C_3  and  C_6
REMARK    3  A    between atoms: C_5  and  C_16
REMARK    4  A    between atoms: C_19  and  C_21
REMARK                            x       y       z     vdW  Elec       q    Type
REMARK                         _______ _______ _______ _____ _____    ______ ____
ROOT
ATOM      1  O   UNL     1      33.627 -16.533 -25.167  0.00  0.00    -0.270 OA
ATOM      2  N   UNL     1      34.063 -14.471 -24.187  0.00  0.00    -0.270 N 
ATOM      3  C   UNL     1      34.070 -15.868 -24.230  0.00  0.00    +0.249 C 
ATOM      4  C   UNL     1      33.502 -13.724 -25.305  0.00  0.00    +0.116 C 
ENDROOT
BRANCH   3   6
ATOM      5  C   UNL     1      34.747 -17.908 -23.014  0.00  0.00    +0.006 C 
ATOM      6  C   UNL     1      34.634 -16.559 -23.032  0.00  0.00    +0.058 C 
BRANCH   5  16
ATOM      7  O   UNL     1      36.614 -22.478 -17.100  0.00  0.00    -0.275 OA
ATOM      8  N   UNL     1      36.800 -20.856 -18.715  0.00  0.00    -0.270 N 
ATOM      9  N   UNL     1      37.076 -19.232 -20.413  0.00  0.00    -0.229 NA
ATOM     10  C   UNL     1      34.078 -21.280 -19.384  0.00  0.00    +0.039 C 
ATOM     11  C   UNL     1      34.947 -20.353 -20.179  0.00  0.00    +0.010 C 
ATOM     12  C   UNL     1      34.903 -22.406 -18.778  0.00  0.00    +0.090 C 
ATOM     13  C   UNL     1      36.271 -20.134 -19.802  0.00  0.00    +0.130 C 
ATOM     14  C   UNL     1      34.437 -19.608 -21.243  0.00  0.00    +0.000 C 
ATOM     15  C   UNL     1      36.159 -21.908 -18.093  0.00  0.00    +0.227 C 
ATOM     16  C   UNL     1      35.250 -18.693 -21.900  0.00  0.00    +0.019 C 
ATOM     17  C   UNL     1      36.549 -18.541 -21.448  0.00  0.00    +0.100 C 
ATOM     18  H   UNL     1      37.686 -20.592 -18.376  0.00  0.00    +0.156 HD
ENDBRANCH   5  16
ENDBRANCH   3   6
BRANCH   2  19
ATOM     19  C   UNL     1      34.553 -13.662 -23.073  0.00  0.00    +0.122 C 
BRANCH  19  21
ATOM     20  N   UNL     1      31.822 -11.467 -22.046  0.00  0.00    -0.284 N 
ATOM     21  C   UNL     1      33.587 -12.563 -22.789  0.00  0.00    +0.014 C 
ATOM     22  C   UNL     1      33.715 -11.215 -23.200  0.00  0.00    +0.013 C 
ATOM     23  C   UNL     1      32.590 -10.543 -22.719  0.00  0.00    +0.051 C 
ATOM     24  C   UNL     1      32.422 -12.697 -22.085  0.00  0.00    +0.063 C 
ATOM     25  C   UNL     1      34.675 -10.491 -23.934  0.00  0.00    +0.001 C 
ATOM     26  C   UNL     1      32.376  -9.177 -22.936  0.00  0.00    +0.015 C 
ATOM     27  C   UNL     1      30.562 -11.192 -21.387  0.00  0.00    +0.117 C 
ATOM     28  C   UNL     1      34.475  -9.125 -24.159  0.00  0.00    +0.000 C 
ATOM     29  C   UNL     1      33.343  -8.480 -23.667  0.00  0.00    +0.001 C 
ENDBRANCH  19  21
ENDBRANCH   2  19
TORSDOF 4
ENDMDL
MODEL 3
REMARK VINA RESULT:     -11.7      1.303      1.761
REMARK  Name = 5288607
REMARK  4 active torsions:
REMARK  status: ('A' for Active; 'I' for Inactive)
REMARK    1  A    between atoms: N_2  and  C_19
REMARK    2  A    between atoms: C_3  and  C_6
REMARK    3  A    between atoms: C_5  and  C_16
REMARK    4  A    between atoms: C_19  and  C_21
REMARK                            x       y       z     vdW  Elec       q    Type
REMARK                         _______ _______ _______ _____ _____    ______ ____
ROOT
ATOM      1  O   UNL     1      34.149 -18.171 -24.924  0.00  0.00    -0.270 OA
ATOM      2  N   UNL     1      34.330 -16.105 -23.874  0.00  0.00    -0.270 N 
ATOM      3  C   UNL     1      34.443 -17.496 -23.936  0.00  0.00    +0.249 C 
ATOM      4  C   UNL     1      33.834 -15.376 -25.035  0.00  0.00    +0.116 C 
ENDROOT
BRANCH   3   6
ATOM      5  C   UNL     1      34.312 -19.287 -22.241  0.00  0.00    +0.006 C 
ATOM      6  C   UNL     1      34.928 -18.171 -22.695  0.00  0.00    +0.058 C 
BRANCH   5  16
ATOM      7  O   UNL     1      35.360 -23.395 -15.810  0.00  0.00    -0.275 OA
ATOM      8  N   UNL     1      35.824 -22.026 -17.593  0.00  0.00    -0.270 N 
ATOM      9  N   UNL     1      36.376 -20.679 -19.458  0.00  0.00    -0.229 NA
ATOM     10  C   UNL     1      33.070 -22.056 -18.267  0.00  0.00    +0.039 C 
ATOM     11  C   UNL     1      34.086 -21.387 -19.144  0.00  0.00    +0.010 C 
ATOM     12  C   UNL     1      33.689 -23.227 -17.520  0.00  0.00    +0.090 C 
ATOM     13  C   UNL     1      35.428 -21.354 -18.766  0.00  0.00    +0.130 C 
ATOM     14  C   UNL     1      33.712 -20.694 -20.296  0.00  0.00    +0.000 C 
ATOM     15  C   UNL     1      35.011 -22.875 -16.869  0.00  0.00    +0.227 C 
ATOM     16  C   UNL     1      34.671 -20.012 -21.035  0.00  0.00    +0.019 C 
ATOM     17  C   UNL     1      35.977 -20.032 -20.576  0.00  0.00    +0.100 C 
ATOM     18  H   UNL     1      36.741 -21.879 -17.268  0.00  0.00    +0.156 HD
ENDBRANCH   5  16
ENDBRANCH   3   6
BRANCH   2  19
ATOM     19  C   UNL     1      34.640 -15.287 -22.704  0.00  0.00    +0.122 C 
BRANCH  19  21
ATOM     20  N   UNL     1      33.517 -11.965 -23.719  0.00  0.00    -0.284 N 
ATOM     21  C   UNL     1      34.044 -13.931 -22.867  0.00  0.00    +0.014 C 
ATOM     22  C   UNL     1      33.210 -13.269 -21.935  0.00  0.00    +0.013 C 
ATOM     23  C   UNL     1      32.890 -12.031 -22.495  0.00  0.00    +0.051 C 
ATOM     24  C   UNL     1      34.221 -13.116 -23.951  0.00  0.00    +0.063 C 
ATOM     25  C   UNL     1      32.689 -13.595 -20.667  0.00  0.00    +0.001 C 
ATOM     26  C   UNL     1      32.071 -11.098 -21.848  0.00  0.00    +0.015 C 
ATOM     27  C   UNL     1      33.450 -10.848 -24.638  0.00  0.00    +0.117 C 
ATOM     28  C   UNL     1      31.870 -12.673 -20.008  0.00  0.00    +0.000 C 
ATOM     29  C   UNL     1      31.566 -11.444 -20.590  0.00  0.00    +0.001 C 
ENDBRANCH  19  21
ENDBRANCH   2  19
TORSDOF 4
ENDMDL
MODEL 4
REMARK VINA RESULT:     -11.3      5.989     12.498
REMARK  Name = 5288607
REMARK  4 active torsions:
REMARK  status: ('A' for Active; 'I' for Inactive)
REMARK    1  A    between atoms: N_2  and  C_19
REMARK    2  A    between atoms: C_3  and  C_6
REMARK    3  A    between atoms: C_5  and  C_16
REMARK    4  A    between atoms: C_19  and  C_21
REMARK                            x       y       z     vdW  Elec       q    Type
REMARK                         _______ _______ _______ _____ _____    ______ ____
ROOT
ATOM      1  O   UNL     1      30.827 -24.393 -16.033  0.00  0.00    -0.270 OA
ATOM      2  N   UNL     1      32.180 -24.026 -14.179  0.00  0.00    -0.270 N 
ATOM      3  C   UNL     1      31.764 -23.803 -15.495  0.00  0.00    +0.249 C 
ATOM      4  C   UNL     1      31.481 -25.013 -13.367  0.00  0.00    +0.116 C 
ENDROOT
BRANCH   3   6
ATOM      5  C   UNL     1      33.476 -23.206 -17.172  0.00  0.00    +0.006 C 
ATOM      6  C   UNL     1      32.552 -22.798 -16.270  0.00  0.00    +0.058 C 
BRANCH   5  16
ATOM      7  O   UNL     1      37.226 -18.348 -21.827  0.00  0.00    -0.275 OA
ATOM      8  N   UNL     1      36.851 -19.869 -20.149  0.00  0.00    -0.270 N 
ATOM      9  N   UNL     1      36.505 -21.371 -18.354  0.00  0.00    -0.229 NA
ATOM     10  C   UNL     1      34.169 -20.111 -21.037  0.00  0.00    +0.039 C 
ATOM     11  C   UNL     1      34.650 -20.798 -19.794  0.00  0.00    +0.010 C 
ATOM     12  C   UNL     1      34.942 -18.822 -21.275  0.00  0.00    +0.090 C 
ATOM     13  C   UNL     1      35.985 -20.693 -19.404  0.00  0.00    +0.130 C 
ATOM     14  C   UNL     1      33.816 -21.639 -19.056  0.00  0.00    +0.000 C 
ATOM     15  C   UNL     1      36.440 -19.005 -21.145  0.00  0.00    +0.227 C 
ATOM     16  C   UNL     1      34.322 -22.328 -17.961  0.00  0.00    +0.019 C 
ATOM     17  C   UNL     1      35.662 -22.164 -17.657  0.00  0.00    +0.100 C 
ATOM     18  H   UNL     1      37.813 -19.913 -19.946  0.00  0.00    +0.156 HD
ENDBRANCH   5  16
ENDBRANCH   3   6
BRANCH   2  19
ATOM     19  C   UNL     1      33.309 -23.363 -13.531  0.00  0.00    +0.122 C 
BRANCH  19  21
ATOM     20  N   UNL     1      35.974 -25.727 -14.327  0.00  0.00    -0.284 N 
ATOM     21  C   UNL     1      34.516 -24.232 -13.614  0.00  0.00    +0.014 C 
ATOM     22  C   UNL     1      35.581 -24.272 -12.683  0.00  0.00    +0.013 C 
ATOM     23  C   UNL     1      36.489 -25.222 -13.154  0.00  0.00    +0.051 C 
ATOM     24  C   UNL     1      34.776 -25.131 -14.613  0.00  0.00    +0.063 C 
ATOM     25  C   UNL     1      35.871 -23.594 -11.482  0.00  0.00    +0.001 C 
ATOM     26  C   UNL     1      37.677 -25.530 -12.482  0.00  0.00    +0.015 C 
ATOM     27  C   UNL     1      36.598 -26.742 -15.150  0.00  0.00    +0.117 C 
ATOM     28  C   UNL     1      37.054 -23.892 -10.798  0.00  0.00    +0.000 C 
ATOM     29  C   UNL     1      37.942 -24.845 -11.292  0.00  0.00    +0.001 C 
ENDBRANCH  19  21
ENDBRANCH   2  19
TORSDOF 4
ENDMDL
MODEL 5
REMARK VINA RESULT:     -11.2      5.945     11.971
REMARK  Name = 5288607
REMARK  4 active torsions:
REMARK  status: ('A' for Active; 'I' for Inactive)
REMARK    1  A    between atoms: N_2  and  C_19
REMARK    2  A    between atoms: C_3  and  C_6
REMARK    3  A    between atoms: C_5  and  C_16
REMARK    4  A    between atoms: C_19  and  C_21
REMARK                            x       y       z     vdW  Elec       q    Type
REMARK                         _______ _______ _______ _____ _____    ______ ____
ROOT
ATOM      1  O   UNL     1      32.953  -7.521 -19.171  0.00  0.00    -0.270 OA
ATOM      2  N   UNL     1      31.826  -9.361 -20.035  0.00  0.00    -0.270 N 
ATOM      3  C   UNL     1      32.375  -8.078 -20.105  0.00  0.00    +0.249 C 
ATOM      4  C   UNL     1      31.925 -10.114 -18.791  0.00  0.00    +0.116 C 
ENDROOT
BRANCH   3   6
ATOM      5  C   UNL     1      33.288  -6.955 -22.107  0.00  0.00    +0.006 C 
ATOM      6  C   UNL     1      32.204  -7.362 -21.404  0.00  0.00    +0.058 C 
BRANCH   5  16
ATOM      7  O   UNL     1      33.976  -3.155 -28.772  0.00  0.00    -0.275 OA
ATOM      8  N   UNL     1      33.001  -4.122 -26.931  0.00  0.00    -0.270 N 
ATOM      9  N   UNL     1      31.939  -5.174 -25.097  0.00  0.00    -0.229 NA
ATOM     10  C   UNL     1      35.589  -4.666 -25.909  0.00  0.00    +0.039 C 
ATOM     11  C   UNL     1      34.353  -5.163 -25.222  0.00  0.00    +0.010 C 
ATOM     12  C   UNL     1      35.365  -4.556 -27.410  0.00  0.00    +0.090 C 
ATOM     13  C   UNL     1      33.092  -4.846 -25.726  0.00  0.00    +0.130 C 
ATOM     14  C   UNL     1      34.419  -5.859 -24.014  0.00  0.00    +0.000 C 
ATOM     15  C   UNL     1      34.072  -3.849 -27.759  0.00  0.00    +0.227 C 
ATOM     16  C   UNL     1      33.249  -6.226 -23.362  0.00  0.00    +0.019 C 
ATOM     17  C   UNL     1      32.045  -5.859 -23.938  0.00  0.00    +0.100 C 
ATOM     18  H   UNL     1      32.115  -3.789 -27.201  0.00  0.00    +0.156 HD
ENDBRANCH   5  16
ENDBRANCH   3   6
BRANCH   2  19
ATOM     19  C   UNL     1      31.107 -10.028 -21.118  0.00  0.00    +0.122 C 
BRANCH  19  21
ATOM     20  N   UNL     1      33.417 -11.293 -23.646  0.00  0.00    -0.284 N 
ATOM     21  C   UNL     1      32.071 -10.771 -21.977  0.00  0.00    +0.014 C 
ATOM     22  C   UNL     1      32.621 -12.046 -21.703  0.00  0.00    +0.013 C 
ATOM     23  C   UNL     1      33.468 -12.353 -22.770  0.00  0.00    +0.051 C 
ATOM     24  C   UNL     1      32.570 -10.328 -23.171  0.00  0.00    +0.063 C 
ATOM     25  C   UNL     1      32.489 -12.975 -20.652  0.00  0.00    +0.001 C 
ATOM     26  C   UNL     1      34.192 -13.549 -22.839  0.00  0.00    +0.015 C 
ATOM     27  C   UNL     1      34.148 -11.197 -24.892  0.00  0.00    +0.117 C 
ATOM     28  C   UNL     1      33.206 -14.176 -20.708  0.00  0.00    +0.000 C 
ATOM     29  C   UNL     1      34.043 -14.456 -21.785  0.00  0.00    +0.001 C 
ENDBRANCH  19  21
ENDBRANCH   2  19
TORSDOF 4
ENDMDL
MODEL 6
REMARK VINA RESULT:     -10.9      5.937     12.306
REMARK  Name = 5288607
REMARK  4 active torsions:
REMARK  status: ('A' for Active; 'I' for Inactive)
REMARK    1  A    between atoms: N_2  and  C_19
REMARK    2  A    between atoms: C_3  and  C_6
REMARK    3  A    between atoms: C_5  and  C_16
REMARK    4  A    between atoms: C_19  and  C_21
REMARK                            x       y       z     vdW  Elec       q    Type
REMARK                         _______ _______ _______ _____ _____    ______ ____
ROOT
ATOM      1  O   UNL     1      32.851  -7.742 -19.056  0.00  0.00    -0.270 OA
ATOM      2  N   UNL     1      31.773  -9.595 -19.952  0.00  0.00    -0.270 N 
ATOM      3  C   UNL     1      32.241  -8.279 -19.981  0.00  0.00    +0.249 C 
ATOM      4  C   UNL     1      32.002 -10.410 -18.766  0.00  0.00    +0.116 C 
ENDROOT
BRANCH   3   6
ATOM      5  C   UNL     1      32.782  -6.528 -21.638  0.00  0.00    +0.006 C 
ATOM      6  C   UNL     1      31.938  -7.501 -21.220  0.00  0.00    +0.058 C 
BRANCH   5  16
ATOM      7  O   UNL     1      32.479  -2.413 -28.142  0.00  0.00    -0.275 OA
ATOM      8  N   UNL     1      31.898  -3.224 -26.074  0.00  0.00    -0.270 N 
ATOM      9  N   UNL     1      31.208  -4.086 -23.982  0.00  0.00    -0.229 NA
ATOM     10  C   UNL     1      34.336  -4.670 -26.011  0.00  0.00    +0.039 C 
ATOM     11  C   UNL     1      33.303  -4.825 -24.936  0.00  0.00    +0.010 C 
ATOM     12  C   UNL     1      33.683  -4.326 -27.341  0.00  0.00    +0.090 C 
ATOM     13  C   UNL     1      32.131  -4.070 -24.973  0.00  0.00    +0.130 C 
ATOM     14  C   UNL     1      33.524  -5.638 -23.823  0.00  0.00    +0.000 C 
ATOM     15  C   UNL     1      32.664  -3.211 -27.223  0.00  0.00    +0.227 C 
ATOM     16  C   UNL     1      32.581  -5.687 -22.804  0.00  0.00    +0.019 C 
ATOM     17  C   UNL     1      31.452  -4.897 -22.928  0.00  0.00    +0.100 C 
ATOM     18  H   UNL     1      31.139  -2.600 -26.020  0.00  0.00    +0.156 HD
ENDBRANCH   5  16
ENDBRANCH   3   6
BRANCH   2  19
ATOM     19  C   UNL     1      31.019 -10.242 -21.023  0.00  0.00    +0.122 C 
BRANCH  19  21
ATOM     20  N   UNL     1      33.014 -12.864 -22.597  0.00  0.00    -0.284 N 
ATOM     21  C   UNL     1      31.931 -11.100 -21.831  0.00  0.00    +0.014 C 
ATOM     22  C   UNL     1      32.770 -10.665 -22.884  0.00  0.00    +0.013 C 
ATOM     23  C   UNL     1      33.443 -11.795 -23.352  0.00  0.00    +0.051 C 
ATOM     24  C   UNL     1      32.096 -12.449 -21.670  0.00  0.00    +0.063 C 
ATOM     25  C   UNL     1      33.028  -9.421 -23.494  0.00  0.00    +0.001 C 
ATOM     26  C   UNL     1      34.365 -11.744 -24.403  0.00  0.00    +0.015 C 
ATOM     27  C   UNL     1      33.460 -14.233 -22.749  0.00  0.00    +0.117 C 
ATOM     28  C   UNL     1      33.948  -9.354 -24.545  0.00  0.00    +0.000 C 
ATOM     29  C   UNL     1      34.606 -10.498 -24.992  0.00  0.00    +0.001 C 
ENDBRANCH  19  21
ENDBRANCH   2  19
TORSDOF 4
ENDMDL
MODEL 7
REMARK VINA RESULT:     -10.8      6.406     11.743
REMARK  Name = 5288607
REMARK  4 active torsions:
REMARK  status: ('A' for Active; 'I' for Inactive)
REMARK    1  A    between atoms: N_2  and  C_19
REMARK    2  A    between atoms: C_3  and  C_6
REMARK    3  A    between atoms: C_5  and  C_16
REMARK    4  A    between atoms: C_19  and  C_21
REMARK                            x       y       z     vdW  Elec       q    Type
REMARK                         _______ _______ _______ _____ _____    ______ ____
ROOT
ATOM      1  O   UNL     1      37.605 -22.881 -12.346  0.00  0.00    -0.270 OA
ATOM      2  N   UNL     1      36.408 -24.640 -13.281  0.00  0.00    -0.270 N 
ATOM      3  C   UNL     1      36.946 -23.351 -13.275  0.00  0.00    +0.249 C 
ATOM      4  C   UNL     1      36.621 -25.509 -12.131  0.00  0.00    +0.116 C 
ENDROOT
BRANCH   3   6
ATOM      5  C   UNL     1      37.631 -22.254 -15.379  0.00  0.00    +0.006 C 
ATOM      6  C   UNL     1      36.655 -22.512 -14.476  0.00  0.00    +0.058 C 
BRANCH   5  16
ATOM      7  O   UNL     1      36.195 -18.470 -21.933  0.00  0.00    -0.275 OA
ATOM      8  N   UNL     1      37.156 -19.004 -19.917  0.00  0.00    -0.270 N 
ATOM      9  N   UNL     1      38.122 -19.460 -17.806  0.00  0.00    -0.229 NA
ATOM     10  C   UNL     1      35.627 -21.391 -19.877  0.00  0.00    +0.039 C 
ATOM     11  C   UNL     1      36.480 -20.985 -18.713  0.00  0.00    +0.010 C 
ATOM     12  C   UNL     1      35.119 -20.168 -20.626  0.00  0.00    +0.090 C 
ATOM     13  C   UNL     1      37.252 -19.826 -18.778  0.00  0.00    +0.130 C 
ATOM     14  C   UNL     1      36.610 -21.798 -17.586  0.00  0.00    +0.000 C 
ATOM     15  C   UNL     1      36.214 -19.161 -20.914  0.00  0.00    +0.227 C 
ATOM     16  C   UNL     1      37.479 -21.431 -16.566  0.00  0.00    +0.019 C 
ATOM     17  C   UNL     1      38.208 -20.266 -16.725  0.00  0.00    +0.100 C 
ATOM     18  H   UNL     1      37.804 -18.268 -20.008  0.00  0.00    +0.156 HD
ENDBRANCH   5  16
ENDBRANCH   3   6
BRANCH   2  19
ATOM     19  C   UNL     1      35.594 -25.206 -14.355  0.00  0.00    +0.122 C 
BRANCH  19  21
ATOM     20  N   UNL     1      32.230 -24.020 -13.579  0.00  0.00    -0.284 N 
ATOM     21  C   UNL     1      34.224 -24.623 -14.307  0.00  0.00    +0.014 C 
ATOM     22  C   UNL     1      33.568 -23.948 -15.363  0.00  0.00    +0.013 C 
ATOM     23  C   UNL     1      32.311 -23.577 -14.880  0.00  0.00    +0.051 C 
ATOM     24  C   UNL     1      33.388 -24.658 -13.224  0.00  0.00    +0.063 C 
ATOM     25  C   UNL     1      33.912 -23.610 -16.687  0.00  0.00    +0.001 C 
ATOM     26  C   UNL     1      31.378 -22.881 -15.658  0.00  0.00    +0.015 C 
ATOM     27  C   UNL     1      31.091 -23.845 -12.702  0.00  0.00    +0.117 C 
ATOM     28  C   UNL     1      32.990 -22.916 -17.477  0.00  0.00    +0.000 C 
ATOM     29  C   UNL     1      31.743 -22.558 -16.969  0.00  0.00    +0.001 C 
ENDBRANCH  19  21
ENDBRANCH   2  19
TORSDOF 4
ENDMDL
MODEL 8
REMARK VINA RESULT:     -10.7      2.283      9.538
REMARK  Name = 5288607
REMARK  4 active torsions:
REMARK  status: ('A' for Active; 'I' for Inactive)
REMARK    1  A    between atoms: N_2  and  C_19
REMARK    2  A    between atoms: C_3  and  C_6
REMARK    3  A    between atoms: C_5  and  C_16
REMARK    4  A    between atoms: C_19  and  C_21
REMARK                            x       y       z     vdW  Elec       q    Type
REMARK                         _______ _______ _______ _____ _____    ______ ____
ROOT
ATOM      1  O   UNL     1      34.557 -17.201 -25.036  0.00  0.00    -0.270 OA
ATOM      2  N   UNL     1      35.099 -17.899 -22.887  0.00  0.00    -0.270 N 
ATOM      3  C   UNL     1      34.715 -16.952 -23.841  0.00  0.00    +0.249 C 
ATOM      4  C   UNL     1      35.336 -19.275 -23.301  0.00  0.00    +0.116 C 
ENDROOT
BRANCH   3   6
ATOM      5  C   UNL     1      33.557 -14.771 -23.872  0.00  0.00    +0.006 C 
ATOM      6  C   UNL     1      34.523 -15.558 -23.341  0.00  0.00    +0.058 C 
BRANCH   5  16
ATOM      7  O   UNL     1      31.716  -7.801 -21.156  0.00  0.00    -0.275 OA
ATOM      8  N   UNL     1      32.600  -9.417 -22.527  0.00  0.00    -0.270 N 
ATOM      9  N   UNL     1      33.602 -11.038 -23.929  0.00  0.00    -0.229 NA
ATOM     10  C   UNL     1      31.338 -11.391 -20.931  0.00  0.00    +0.039 C 
ATOM     11  C   UNL     1      32.266 -11.760 -22.049  0.00  0.00    +0.010 C 
ATOM     12  C   UNL     1      31.728 -10.050 -20.327  0.00  0.00    +0.090 C 
ATOM     13  C   UNL     1      32.841 -10.768 -22.842  0.00  0.00    +0.130 C 
ATOM     14  C   UNL     1      32.498 -13.093 -22.395  0.00  0.00    +0.000 C 
ATOM     15  C   UNL     1      31.975  -8.985 -21.375  0.00  0.00    +0.227 C 
ATOM     16  C   UNL     1      33.294 -13.394 -23.492  0.00  0.00    +0.019 C 
ATOM     17  C   UNL     1      33.815 -12.340 -24.222  0.00  0.00    +0.100 C 
ATOM     18  H   UNL     1      32.897  -8.736 -23.173  0.00  0.00    +0.156 HD
ENDBRANCH   5  16
ENDBRANCH   3   6
BRANCH   2  19
ATOM     19  C   UNL     1      35.325 -17.620 -21.470  0.00  0.00    +0.122 C 
BRANCH  19  21
ATOM     20  N   UNL     1      36.494 -20.583 -19.685  0.00  0.00    -0.284 N 
ATOM     21  C   UNL     1      35.525 -18.900 -20.734  0.00  0.00    +0.014 C 
ATOM     22  C   UNL     1      34.510 -19.806 -20.347  0.00  0.00    +0.013 C 
ATOM     23  C   UNL     1      35.145 -20.860 -19.687  0.00  0.00    +0.051 C 
ATOM     24  C   UNL     1      36.732 -19.394 -20.320  0.00  0.00    +0.063 C 
ATOM     25  C   UNL     1      33.108 -19.841 -20.488  0.00  0.00    +0.001 C 
ATOM     26  C   UNL     1      34.446 -21.952 -19.159  0.00  0.00    +0.015 C 
ATOM     27  C   UNL     1      37.522 -21.418 -19.101  0.00  0.00    +0.117 C 
ATOM     28  C   UNL     1      32.396 -20.927 -19.966  0.00  0.00    +0.000 C 
ATOM     29  C   UNL     1      33.056 -21.964 -19.312  0.00  0.00    +0.001 C 
ENDBRANCH  19  21
ENDBRANCH   2  19
TORSDOF 4
ENDMDL
MODEL 9
REMARK VINA RESULT:     -10.7      6.217     11.853
REMARK  Name = 5288607
REMARK  4 active torsions:
REMARK  status: ('A' for Active; 'I' for Inactive)
REMARK    1  A    between atoms: N_2  and  C_19
REMARK    2  A    between atoms: C_3  and  C_6
REMARK    3  A    between atoms: C_5  and  C_16
REMARK    4  A    between atoms: C_19  and  C_21
REMARK                            x       y       z     vdW  Elec       q    Type
REMARK                         _______ _______ _______ _____ _____    ______ ____
ROOT
ATOM      1  O   UNL     1      30.747 -24.769 -15.838  0.00  0.00    -0.270 OA
ATOM      2  N   UNL     1      32.255 -23.995 -14.247  0.00  0.00    -0.270 N 
ATOM      3  C   UNL     1      31.603 -23.958 -15.483  0.00  0.00    +0.249 C 
ATOM      4  C   UNL     1      31.924 -25.049 -13.297  0.00  0.00    +0.116 C 
ENDROOT
BRANCH   3   6
ATOM      5  C   UNL     1      32.874 -23.128 -17.431  0.00  0.00    +0.006 C 
ATOM      6  C   UNL     1      32.022 -22.866 -16.413  0.00  0.00    +0.058 C 
BRANCH   5  16
ATOM      7  O   UNL     1      36.355 -18.167 -22.186  0.00  0.00    -0.275 OA
ATOM      8  N   UNL     1      34.678 -19.308 -21.111  0.00  0.00    -0.270 N 
ATOM      9  N   UNL     1      32.913 -20.512 -20.094  0.00  0.00    -0.229 NA
ATOM     10  C   UNL     1      36.636 -20.547 -19.478  0.00  0.00    +0.039 C 
ATOM     11  C   UNL     1      35.190 -20.936 -19.403  0.00  0.00    +0.010 C 
ATOM     12  C   UNL     1      36.995 -20.071 -20.877  0.00  0.00    +0.090 C 
ATOM     13  C   UNL     1      34.244 -20.281 -20.190  0.00  0.00    +0.130 C 
ATOM     14  C   UNL     1      34.735 -21.879 -18.480  0.00  0.00    +0.000 C 
ATOM     15  C   UNL     1      36.000 -19.071 -21.429  0.00  0.00    +0.227 C 
ATOM     16  C   UNL     1      33.376 -22.149 -18.379  0.00  0.00    +0.019 C 
ATOM     17  C   UNL     1      32.514 -21.442 -19.199  0.00  0.00    +0.100 C 
ATOM     18  H   UNL     1      33.992 -18.761 -21.557  0.00  0.00    +0.156 HD
ENDBRANCH   5  16
ENDBRANCH   3   6
BRANCH   2  19
ATOM     19  C   UNL     1      33.296 -23.065 -13.818  0.00  0.00    +0.122 C 
BRANCH  19  21
ATOM     20  N   UNL     1      36.251 -25.190 -13.532  0.00  0.00    -0.284 N 
ATOM     21  C   UNL     1      34.624 -23.739 -13.872  0.00  0.00    +0.014 C 
ATOM     22  C   UNL     1      35.761 -23.285 -14.583  0.00  0.00    +0.013 C 
ATOM     23  C   UNL     1      36.774 -24.218 -14.353  0.00  0.00    +0.051 C 
ATOM     24  C   UNL     1      34.945 -24.906 -13.235  0.00  0.00    +0.063 C 
ATOM     25  C   UNL     1      36.036 -22.174 -15.404  0.00  0.00    +0.001 C 
ATOM     26  C   UNL     1      38.054 -24.094 -14.905  0.00  0.00    +0.015 C 
ATOM     27  C   UNL     1      36.965 -26.352 -13.044  0.00  0.00    +0.117 C 
ATOM     28  C   UNL     1      37.311 -22.036 -15.962  0.00  0.00    +0.000 C 
ATOM     29  C   UNL     1      38.303 -22.982 -15.716  0.00  0.00    +0.001 C 
ENDBRANCH  19  21
ENDBRANCH   2  19
TORSDOF 4
ENDMDL
