MODEL 1
REMARK VINA RESULT:     -11.5      0.000      0.000
REMARK  Name = 25195365
REMARK  5 active torsions:
REMARK  status: ('A' for Active; 'I' for Inactive)
REMARK    1  A    between atoms: C_1  and  C_3
REMARK    2  A    between atoms: C_1  and  C_17
REMARK    3  A    between atoms: C_4  and  C_9
REMARK    4  A    between atoms: C_6  and  O_15
REMARK    5  A    between atoms: C_18  and  C_23
REMARK                            x       y       z     vdW  Elec       q    Type
REMARK                         _______ _______ _______ _____ _____    ______ ____
ROOT
ATOM      1  C   UNL     1      32.903 -23.252 -17.126  0.00  0.00    +0.086 C 
ATOM      2  C   UNL     1      31.518 -22.908 -16.547  0.00  0.00    +0.019 C 
ENDROOT
BRANCH   1   3
ATOM      3  C   UNL     1      33.352 -22.284 -18.168  0.00  0.00    -0.007 C 
ATOM      4  C   UNL     1      34.188 -20.473 -20.118  0.00  0.00    +0.034 C 
ATOM      5  C   UNL     1      34.709 -22.148 -18.457  0.00  0.00    +0.034 C 
ATOM      6  C   UNL     1      35.128 -21.243 -19.432  0.00  0.00    +0.138 C 
ATOM      7  C   UNL     1      32.413 -21.514 -18.854  0.00  0.00    -0.003 C 
ATOM      8  C   UNL     1      32.831 -20.609 -19.829  0.00  0.00    +0.003 C 
BRANCH   4   9
ATOM      9  C   UNL     1      34.601 -19.527 -21.132  0.00  0.00    +0.003 C 
ATOM     10  C   UNL     1      34.251 -19.737 -22.466  0.00  0.00    +0.000 C 
ATOM     11  C   UNL     1      35.350 -18.405 -20.777  0.00  0.00    +0.000 C 
ATOM     12  C   UNL     1      34.648 -18.825 -23.444  0.00  0.00    +0.000 C 
ATOM     13  C   UNL     1      35.747 -17.493 -21.755  0.00  0.00    +0.000 C 
ATOM     14  C   UNL     1      35.396 -17.704 -23.088  0.00  0.00    +0.000 C 
ENDBRANCH   4   9
BRANCH   6  15
ATOM     15  O   UNL     1      36.461 -21.131 -19.695  0.00  0.00    -0.471 OA
ATOM     16  C   UNL     1      37.302 -20.721 -18.619  0.00  0.00    +0.252 C 
ENDBRANCH   6  15
ENDBRANCH   1   3
BRANCH   1  17
ATOM     17  C   UNL     1      33.886 -23.382 -16.019  0.00  0.00    -0.087 C 
ATOM     18  C   UNL     1      34.664 -23.480 -15.108  0.00  0.00    -0.076 C 
BRANCH  18  23
ATOM     19  N   UNL     1      37.781 -23.218 -13.112  0.00  0.00    -0.336 NA
ATOM     20  N   UNL     1      36.094 -24.307 -11.778  0.00  0.00    -0.317 NA
ATOM     21  N   UNL     1      33.931 -24.690 -12.653  0.00  0.00    -0.334 N 
ATOM     22  N   UNL     1      38.245 -23.921 -10.922  0.00  0.00    -0.283 N 
ATOM     23  C   UNL     1      35.585 -23.599 -14.021  0.00  0.00    +0.179 C 
ATOM     24  C   UNL     1      36.879 -23.129 -14.111  0.00  0.00    +0.120 C 
ATOM     25  C   UNL     1      35.245 -24.184 -12.819  0.00  0.00    +0.186 C 
ATOM     26  C   UNL     1      37.374 -22.473 -15.360  0.00  0.00    +0.064 C 
ATOM     27  C   UNL     1      37.328 -23.810 -11.990  0.00  0.00    +0.196 C 
ATOM     28  H   UNL     1      33.670 -25.112 -11.802  0.00  0.00    +0.144 HD
ATOM     29  H   UNL     1      33.280 -24.620 -13.388  0.00  0.00    +0.144 HD
ATOM     30  H   UNL     1      39.161 -23.575 -11.021  0.00  0.00    +0.156 HD
ATOM     31  H   UNL     1      37.968 -24.345 -10.077  0.00  0.00    +0.156 HD
ENDBRANCH  18  23
ENDBRANCH   1  17
TORSDOF 5
ENDMDL
MODEL 2
REMARK VINA RESULT:     -10.7      4.922      7.799
REMARK  Name = 25195365
REMARK  5 active torsions:
REMARK  status: ('A' for Active; 'I' for Inactive)
REMARK    1  A    between atoms: C_1  and  C_3
REMARK    2  A    between atoms: C_1  and  C_17
REMARK    3  A    between atoms: C_4  and  C_9
REMARK    4  A    between atoms: C_6  and  O_15
REMARK    5  A    between atoms: C_18  and  C_23
REMARK                            x       y       z     vdW  Elec       q    Type
REMARK                         _______ _______ _______ _____ _____    ______ ____
ROOT
ATOM      1  C   UNL     1      35.315 -17.996 -23.237  0.00  0.00    +0.086 C 
ATOM      2  C   UNL     1      34.902 -18.647 -24.571  0.00  0.00    +0.019 C 
ENDROOT
BRANCH   1   3
ATOM      3  C   UNL     1      34.737 -16.633 -23.055  0.00  0.00    -0.007 C 
ATOM      4  C   UNL     1      33.657 -14.084 -22.714  0.00  0.00    +0.034 C 
ATOM      5  C   UNL     1      34.055 -16.018 -24.105  0.00  0.00    +0.034 C 
ATOM      6  C   UNL     1      33.515 -14.743 -23.935  0.00  0.00    +0.138 C 
ATOM      7  C   UNL     1      34.879 -15.973 -21.835  0.00  0.00    -0.003 C 
ATOM      8  C   UNL     1      34.339 -14.699 -21.664  0.00  0.00    +0.003 C 
BRANCH   4   9
ATOM      9  C   UNL     1      33.105 -12.761 -22.516  0.00  0.00    +0.003 C 
ATOM     10  C   UNL     1      33.613 -11.679 -23.235  0.00  0.00    +0.000 C 
ATOM     11  C   UNL     1      32.065 -12.567 -21.607  0.00  0.00    +0.000 C 
ATOM     12  C   UNL     1      33.080 -10.404 -23.045  0.00  0.00    +0.000 C 
ATOM     13  C   UNL     1      31.533 -11.292 -21.417  0.00  0.00    +0.000 C 
ATOM     14  C   UNL     1      32.041 -10.211 -22.136  0.00  0.00    +0.000 C 
ENDBRANCH   4   9
BRANCH   6  15
ATOM     15  O   UNL     1      32.851 -14.167 -24.977  0.00  0.00    -0.471 OA
ATOM     16  C   UNL     1      33.646 -13.562 -25.995  0.00  0.00    +0.252 C 
ENDBRANCH   6  15
ENDBRANCH   1   3
BRANCH   1  17
ATOM     17  C   UNL     1      34.973 -18.906 -22.114  0.00  0.00    -0.087 C 
ATOM     18  C   UNL     1      34.699 -19.661 -21.219  0.00  0.00    -0.076 C 
BRANCH  18  23
ATOM     19  N   UNL     1      35.097 -21.980 -18.349  0.00  0.00    -0.336 NA
ATOM     20  N   UNL     1      32.752 -21.780 -18.866  0.00  0.00    -0.317 NA
ATOM     21  N   UNL     1      32.024 -20.394 -20.639  0.00  0.00    -0.334 N 
ATOM     22  N   UNL     1      33.486 -23.151 -17.109  0.00  0.00    -0.283 N 
ATOM     23  C   UNL     1      34.378 -20.564 -20.158  0.00  0.00    +0.179 C 
ATOM     24  C   UNL     1      35.354 -21.125 -19.361  0.00  0.00    +0.120 C 
ATOM     25  C   UNL     1      33.081 -20.931 -19.861  0.00  0.00    +0.186 C 
ATOM     26  C   UNL     1      36.799 -20.809 -19.578  0.00  0.00    +0.064 C 
ATOM     27  C   UNL     1      33.793 -22.259 -18.160  0.00  0.00    +0.196 C 
ATOM     28  H   UNL     1      31.093 -20.644 -20.443  0.00  0.00    +0.144 HD
ATOM     29  H   UNL     1      32.223 -19.771 -21.375  0.00  0.00    +0.144 HD
ATOM     30  H   UNL     1      34.208 -23.532 -16.560  0.00  0.00    +0.156 HD
ATOM     31  H   UNL     1      32.549 -23.391 -16.925  0.00  0.00    +0.156 HD
ENDBRANCH  18  23
ENDBRANCH   1  17
TORSDOF 5
ENDMDL
MODEL 3
REMARK VINA RESULT:     -10.5      5.111      8.266
REMARK  Name = 25195365
REMARK  5 active torsions:
REMARK  status: ('A' for Active; 'I' for Inactive)
REMARK    1  A    between atoms: C_1  and  C_3
REMARK    2  A    between atoms: C_1  and  C_17
REMARK    3  A    between atoms: C_4  and  C_9
REMARK    4  A    between atoms: C_6  and  O_15
REMARK    5  A    between atoms: C_18  and  C_23
REMARK                            x       y       z     vdW  Elec       q    Type
REMARK                         _______ _______ _______ _____ _____    ______ ____
ROOT
ATOM      1  C   UNL     1      34.454 -17.569 -24.244  0.00  0.00    +0.086 C 
ATOM      2  C   UNL     1      33.253 -18.297 -24.876  0.00  0.00    +0.019 C 
ENDROOT
BRANCH   1   3
ATOM      3  C   UNL     1      34.184 -16.125 -23.985  0.00  0.00    -0.007 C 
ATOM      4  C   UNL     1      33.679 -13.425 -23.503  0.00  0.00    +0.034 C 
ATOM      5  C   UNL     1      34.512 -15.564 -22.751  0.00  0.00    +0.034 C 
ATOM      6  C   UNL     1      34.259 -14.214 -22.509  0.00  0.00    +0.138 C 
ATOM      7  C   UNL     1      33.604 -15.336 -24.978  0.00  0.00    -0.003 C 
ATOM      8  C   UNL     1      33.352 -13.986 -24.737  0.00  0.00    +0.003 C 
BRANCH   4   9
ATOM      9  C   UNL     1      33.407 -12.022 -23.272  0.00  0.00    +0.003 C 
ATOM     10  C   UNL     1      32.400 -11.643 -22.385  0.00  0.00    +0.000 C 
ATOM     11  C   UNL     1      34.153 -11.048 -23.937  0.00  0.00    +0.000 C 
ATOM     12  C   UNL     1      32.138 -10.291 -22.163  0.00  0.00    +0.000 C 
ATOM     13  C   UNL     1      33.891  -9.696 -23.715  0.00  0.00    +0.000 C 
ATOM     14  C   UNL     1      32.884  -9.319 -22.828  0.00  0.00    +0.000 C 
ENDBRANCH   4   9
BRANCH   6  15
ATOM     15  O   UNL     1      34.590 -13.691 -21.294  0.00  0.00    -0.471 OA
ATOM     16  C   UNL     1      34.391 -14.525 -20.155  0.00  0.00    +0.252 C 
ENDBRANCH   6  15
ENDBRANCH   1   3
BRANCH   1  17
ATOM     17  C   UNL     1      34.883 -18.290 -23.018  0.00  0.00    -0.087 C 
ATOM     18  C   UNL     1      35.221 -18.893 -22.035  0.00  0.00    -0.076 C 
BRANCH  18  23
ATOM     19  N   UNL     1      35.070 -21.084 -19.043  0.00  0.00    -0.336 NA
ATOM     20  N   UNL     1      37.324 -20.268 -19.294  0.00  0.00    -0.317 NA
ATOM     21  N   UNL     1      37.889 -18.825 -21.081  0.00  0.00    -0.334 N 
ATOM     22  N   UNL     1      36.750 -21.701 -17.526  0.00  0.00    -0.283 N 
ATOM     23  C   UNL     1      35.624 -19.616 -20.869  0.00  0.00    +0.179 C 
ATOM     24  C   UNL     1      34.735 -20.386 -20.148  0.00  0.00    +0.120 C 
ATOM     25  C   UNL     1      36.918 -19.595 -20.391  0.00  0.00    +0.186 C 
ATOM     26  C   UNL     1      33.301 -20.493 -20.560  0.00  0.00    +0.064 C 
ATOM     27  C   UNL     1      36.362 -20.982 -18.678  0.00  0.00    +0.196 C 
ATOM     28  H   UNL     1      38.817 -18.797 -20.755  0.00  0.00    +0.144 HD
ATOM     29  H   UNL     1      37.633 -18.318 -21.886  0.00  0.00    +0.144 HD
ATOM     30  H   UNL     1      36.089 -22.239 -17.036  0.00  0.00    +0.156 HD
ATOM     31  H   UNL     1      37.684 -21.662 -17.213  0.00  0.00    +0.156 HD
ENDBRANCH  18  23
ENDBRANCH   1  17
TORSDOF 5
ENDMDL
MODEL 4
REMARK VINA RESULT:     -10.5      4.551      7.362
REMARK  Name = 25195365
REMARK  5 active torsions:
REMARK  status: ('A' for Active; 'I' for Inactive)
REMARK    1  A    between atoms: C_1  and  C_3
REMARK    2  A    between atoms: C_1  and  C_17
REMARK    3  A    between atoms: C_4  and  C_9
REMARK    4  A    between atoms: C_6  and  O_15
REMARK    5  A    between atoms: C_18  and  C_23
REMARK                            x       y       z     vdW  Elec       q    Type
REMARK                         _______ _______ _______ _____ _____    ______ ____
ROOT
ATOM      1  C   UNL     1      35.247 -18.418 -23.428  0.00  0.00    +0.086 C 
ATOM      2  C   UNL     1      34.709 -19.125 -24.687  0.00  0.00    +0.019 C 
ENDROOT
BRANCH   1   3
ATOM      3  C   UNL     1      34.770 -17.011 -23.307  0.00  0.00    -0.007 C 
ATOM      4  C   UNL     1      33.878 -14.377 -23.081  0.00  0.00    +0.034 C 
ATOM      5  C   UNL     1      34.974 -16.304 -22.121  0.00  0.00    +0.034 C 
ATOM      6  C   UNL     1      34.528 -14.987 -22.008  0.00  0.00    +0.138 C 
ATOM      7  C   UNL     1      34.119 -16.400 -24.379  0.00  0.00    -0.003 C 
ATOM      8  C   UNL     1      33.673 -15.084 -24.266  0.00  0.00    +0.003 C 
BRANCH   4   9
ATOM      9  C   UNL     1      33.406 -13.013 -22.984  0.00  0.00    +0.003 C 
ATOM     10  C   UNL     1      33.961 -12.023 -23.797  0.00  0.00    +0.000 C 
ATOM     11  C   UNL     1      32.395 -12.686 -22.080  0.00  0.00    +0.000 C 
ATOM     12  C   UNL     1      33.506 -10.708 -23.704  0.00  0.00    +0.000 C 
ATOM     13  C   UNL     1      31.941 -11.370 -21.987  0.00  0.00    +0.000 C 
ATOM     14  C   UNL     1      32.496 -10.382 -22.799  0.00  0.00    +0.000 C 
ENDBRANCH   4   9
BRANCH   6  15
ATOM     15  O   UNL     1      34.742 -14.320 -20.839  0.00  0.00    -0.471 OA
ATOM     16  C   UNL     1      34.066 -14.808 -19.682  0.00  0.00    +0.252 C 
ENDBRANCH   6  15
ENDBRANCH   1   3
BRANCH   1  17
ATOM     17  C   UNL     1      34.921 -19.229 -22.227  0.00  0.00    -0.087 C 
ATOM     18  C   UNL     1      34.652 -19.903 -21.269  0.00  0.00    -0.076 C 
BRANCH  18  23
ATOM     19  N   UNL     1      35.064 -22.013 -18.243  0.00  0.00    -0.336 NA
ATOM     20  N   UNL     1      32.711 -21.762 -18.701  0.00  0.00    -0.317 NA
ATOM     21  N   UNL     1      31.973 -20.487 -20.551  0.00  0.00    -0.334 N 
ATOM     22  N   UNL     1      33.455 -23.025 -16.867  0.00  0.00    -0.283 N 
ATOM     23  C   UNL     1      34.334 -20.710 -20.132  0.00  0.00    +0.179 C 
ATOM     24  C   UNL     1      35.316 -21.246 -19.325  0.00  0.00    +0.120 C 
ATOM     25  C   UNL     1      33.037 -21.004 -19.768  0.00  0.00    +0.186 C 
ATOM     26  C   UNL     1      36.764 -21.004 -19.611  0.00  0.00    +0.064 C 
ATOM     27  C   UNL     1      33.758 -22.227 -17.993  0.00  0.00    +0.196 C 
ATOM     28  H   UNL     1      31.041 -20.686 -20.307  0.00  0.00    +0.144 HD
ATOM     29  H   UNL     1      32.169 -19.929 -21.338  0.00  0.00    +0.144 HD
ATOM     30  H   UNL     1      34.181 -23.391 -16.314  0.00  0.00    +0.156 HD
ATOM     31  H   UNL     1      32.516 -23.214 -16.636  0.00  0.00    +0.156 HD
ENDBRANCH  18  23
ENDBRANCH   1  17
TORSDOF 5
ENDMDL
MODEL 5
REMARK VINA RESULT:     -10.3      4.769      8.757
REMARK  Name = 25195365
REMARK  5 active torsions:
REMARK  status: ('A' for Active; 'I' for Inactive)
REMARK    1  A    between atoms: C_1  and  C_3
REMARK    2  A    between atoms: C_1  and  C_17
REMARK    3  A    between atoms: C_4  and  C_9
REMARK    4  A    between atoms: C_6  and  O_15
REMARK    5  A    between atoms: C_18  and  C_23
REMARK                            x       y       z     vdW  Elec       q    Type
REMARK                         _______ _______ _______ _____ _____    ______ ____
ROOT
ATOM      1  C   UNL     1      36.740 -21.902 -17.561  0.00  0.00    +0.086 C 
ATOM      2  C   UNL     1      37.661 -21.071 -16.648  0.00  0.00    +0.019 C 
ENDROOT
BRANCH   1   3
ATOM      3  C   UNL     1      35.542 -22.431 -16.846  0.00  0.00    -0.007 C 
ATOM      4  C   UNL     1      33.301 -23.419 -15.511  0.00  0.00    +0.034 C 
ATOM      5  C   UNL     1      35.621 -22.747 -15.490  0.00  0.00    +0.034 C 
ATOM      6  C   UNL     1      34.501 -23.241 -14.822  0.00  0.00    +0.138 C 
ATOM      7  C   UNL     1      34.342 -22.610 -17.535  0.00  0.00    -0.003 C 
ATOM      8  C   UNL     1      33.222 -23.103 -16.867  0.00  0.00    +0.003 C 
BRANCH   4   9
ATOM      9  C   UNL     1      32.127 -23.932 -14.838  0.00  0.00    +0.003 C 
ATOM     10  C   UNL     1      30.855 -23.554 -15.269  0.00  0.00    +0.000 C 
ATOM     11  C   UNL     1      32.267 -24.803 -13.758  0.00  0.00    +0.000 C 
ATOM     12  C   UNL     1      29.724 -24.049 -14.621  0.00  0.00    +0.000 C 
ATOM     13  C   UNL     1      31.135 -25.297 -13.109  0.00  0.00    +0.000 C 
ATOM     14  C   UNL     1      29.864 -24.920 -13.541  0.00  0.00    +0.000 C 
ENDBRANCH   4   9
BRANCH   6  15
ATOM     15  O   UNL     1      34.606 -23.540 -13.496  0.00  0.00    -0.471 OA
ATOM     16  C   UNL     1      35.891 -23.937 -13.022  0.00  0.00    +0.252 C 
ENDBRANCH   6  15
ENDBRANCH   1   3
BRANCH   1  17
ATOM     17  C   UNL     1      36.373 -21.101 -18.757  0.00  0.00    -0.087 C 
ATOM     18  C   UNL     1      36.057 -20.465 -19.727  0.00  0.00    -0.076 C 
BRANCH  18  23
ATOM     19  N   UNL     1      33.976 -19.028 -22.443  0.00  0.00    -0.336 NA
ATOM     20  N   UNL     1      36.228 -18.197 -22.667  0.00  0.00    -0.317 NA
ATOM     21  N   UNL     1      37.911 -18.854 -21.141  0.00  0.00    -0.334 N 
ATOM     22  N   UNL     1      34.548 -17.551 -24.175  0.00  0.00    -0.283 N 
ATOM     23  C   UNL     1      35.675 -19.709 -20.878  0.00  0.00    +0.179 C 
ATOM     24  C   UNL     1      34.382 -19.724 -21.361  0.00  0.00    +0.120 C 
ATOM     25  C   UNL     1      36.563 -18.919 -21.579  0.00  0.00    +0.186 C 
ATOM     26  C   UNL     1      33.322 -20.541 -20.693  0.00  0.00    +0.064 C 
ATOM     27  C   UNL     1      34.937 -18.295 -23.038  0.00  0.00    +0.196 C 
ATOM     28  H   UNL     1      38.559 -18.296 -21.628  0.00  0.00    +0.144 HD
ATOM     29  H   UNL     1      38.196 -19.367 -20.350  0.00  0.00    +0.144 HD
ATOM     30  H   UNL     1      33.618 -17.586 -24.491  0.00  0.00    +0.156 HD
ATOM     31  H   UNL     1      35.210 -16.998 -24.650  0.00  0.00    +0.156 HD
ENDBRANCH  18  23
ENDBRANCH   1  17
TORSDOF 5
ENDMDL
MODEL 6
REMARK VINA RESULT:     -10.2      4.933      8.021
REMARK  Name = 25195365
REMARK  5 active torsions:
REMARK  status: ('A' for Active; 'I' for Inactive)
REMARK    1  A    between atoms: C_1  and  C_3
REMARK    2  A    between atoms: C_1  and  C_17
REMARK    3  A    between atoms: C_4  and  C_9
REMARK    4  A    between atoms: C_6  and  O_15
REMARK    5  A    between atoms: C_18  and  C_23
REMARK                            x       y       z     vdW  Elec       q    Type
REMARK                         _______ _______ _______ _____ _____    ______ ____
ROOT
ATOM      1  C   UNL     1      35.177 -17.795 -23.529  0.00  0.00    +0.086 C 
ATOM      2  C   UNL     1      34.527 -18.500 -24.735  0.00  0.00    +0.019 C 
ENDROOT
BRANCH   1   3
ATOM      3  C   UNL     1      34.614 -16.437 -23.280  0.00  0.00    -0.007 C 
ATOM      4  C   UNL     1      33.560 -13.897 -22.813  0.00  0.00    +0.034 C 
ATOM      5  C   UNL     1      33.924 -15.771 -24.293  0.00  0.00    +0.034 C 
ATOM      6  C   UNL     1      33.397 -14.500 -24.060  0.00  0.00    +0.138 C 
ATOM      7  C   UNL     1      34.777 -15.832 -22.034  0.00  0.00    -0.003 C 
ATOM      8  C   UNL     1      34.249 -14.563 -21.800  0.00  0.00    +0.003 C 
BRANCH   4   9
ATOM      9  C   UNL     1      33.022 -12.579 -22.550  0.00  0.00    +0.003 C 
ATOM     10  C   UNL     1      33.538 -11.469 -23.219  0.00  0.00    +0.000 C 
ATOM     11  C   UNL     1      31.987 -12.419 -21.628  0.00  0.00    +0.000 C 
ATOM     12  C   UNL     1      33.019 -10.199 -22.966  0.00  0.00    +0.000 C 
ATOM     13  C   UNL     1      31.469 -11.149 -21.375  0.00  0.00    +0.000 C 
ATOM     14  C   UNL     1      31.985 -10.040 -22.044  0.00  0.00    +0.000 C 
ENDBRANCH   4   9
BRANCH   6  15
ATOM     15  O   UNL     1      32.727 -13.873 -25.067  0.00  0.00    -0.471 OA
ATOM     16  C   UNL     1      33.514 -13.288 -26.103  0.00  0.00    +0.252 C 
ENDBRANCH   6  15
ENDBRANCH   1   3
BRANCH   1  17
ATOM     17  C   UNL     1      35.084 -18.671 -22.333  0.00  0.00    -0.087 C 
ATOM     18  C   UNL     1      35.012 -19.398 -21.379  0.00  0.00    -0.076 C 
BRANCH  18  23
ATOM     19  N   UNL     1      33.610 -21.633 -18.768  0.00  0.00    -0.336 NA
ATOM     20  N   UNL     1      35.988 -21.440 -18.429  0.00  0.00    -0.317 NA
ATOM     21  N   UNL     1      37.305 -20.104 -19.869  0.00  0.00    -0.334 N 
ATOM     22  N   UNL     1      34.671 -22.763 -17.006  0.00  0.00    -0.283 N 
ATOM     23  C   UNL     1      34.932 -20.268 -20.246  0.00  0.00    +0.179 C 
ATOM     24  C   UNL     1      33.733 -20.809 -19.829  0.00  0.00    +0.120 C 
ATOM     25  C   UNL     1      36.037 -20.622 -19.500  0.00  0.00    +0.186 C 
ATOM     26  C   UNL     1      32.460 -20.504 -20.551  0.00  0.00    +0.064 C 
ATOM     27  C   UNL     1      34.761 -21.903 -18.123  0.00  0.00    +0.196 C 
ATOM     28  H   UNL     1      38.105 -20.345 -19.349  0.00  0.00    +0.144 HD
ATOM     29  H   UNL     1      37.384 -19.503 -20.645  0.00  0.00    +0.144 HD
ATOM     30  H   UNL     1      33.799 -23.130 -16.738  0.00  0.00    +0.156 HD
ATOM     31  H   UNL     1      35.481 -22.995 -16.497  0.00  0.00    +0.156 HD
ENDBRANCH  18  23
ENDBRANCH   1  17
TORSDOF 5
ENDMDL
MODEL 7
REMARK VINA RESULT:     -10.1     10.473     13.702
REMARK  Name = 25195365
REMARK  5 active torsions:
REMARK  status: ('A' for Active; 'I' for Inactive)
REMARK    1  A    between atoms: C_1  and  C_3
REMARK    2  A    between atoms: C_1  and  C_17
REMARK    3  A    between atoms: C_4  and  C_9
REMARK    4  A    between atoms: C_6  and  O_15
REMARK    5  A    between atoms: C_18  and  C_23
REMARK                            x       y       z     vdW  Elec       q    Type
REMARK                         _______ _______ _______ _____ _____    ______ ____
ROOT
ATOM      1  C   UNL     1      31.537 -10.761 -21.176  0.00  0.00    +0.086 C 
ATOM      2  C   UNL     1      31.673 -10.573 -19.653  0.00  0.00    +0.019 C 
ENDROOT
BRANCH   1   3
ATOM      3  C   UNL     1      31.982  -9.566 -21.948  0.00  0.00    -0.007 C 
ATOM      4  C   UNL     1      32.816  -7.330 -23.394  0.00  0.00    +0.034 C 
ATOM      5  C   UNL     1      32.026  -8.314 -21.334  0.00  0.00    +0.034 C 
ATOM      6  C   UNL     1      32.442  -7.196 -22.057  0.00  0.00    +0.138 C 
ATOM      7  C   UNL     1      32.355  -9.699 -23.286  0.00  0.00    -0.003 C 
ATOM      8  C   UNL     1      32.772  -8.582 -24.008  0.00  0.00    +0.003 C 
BRANCH   4   9
ATOM      9  C   UNL     1      33.250  -6.183 -24.162  0.00  0.00    +0.003 C 
ATOM     10  C   UNL     1      34.596  -6.037 -24.497  0.00  0.00    +0.000 C 
ATOM     11  C   UNL     1      32.322  -5.224 -24.569  0.00  0.00    +0.000 C 
ATOM     12  C   UNL     1      35.015  -4.932 -25.238  0.00  0.00    +0.000 C 
ATOM     13  C   UNL     1      32.741  -4.119 -25.310  0.00  0.00    +0.000 C 
ATOM     14  C   UNL     1      34.087  -3.973 -25.644  0.00  0.00    +0.000 C 
ENDBRANCH   4   9
BRANCH   6  15
ATOM     15  O   UNL     1      32.477  -5.985 -21.431  0.00  0.00    -0.471 OA
ATOM     16  C   UNL     1      31.229  -5.444 -21.000  0.00  0.00    +0.252 C 
ENDBRANCH   6  15
ENDBRANCH   1   3
BRANCH   1  17
ATOM     17  C   UNL     1      32.252 -11.997 -21.590  0.00  0.00    -0.087 C 
ATOM     18  C   UNL     1      32.848 -12.983 -21.932  0.00  0.00    -0.076 C 
BRANCH  18  23
ATOM     19  N   UNL     1      34.974 -16.020 -21.779  0.00  0.00    -0.336 NA
ATOM     20  N   UNL     1      34.240 -15.701 -24.052  0.00  0.00    -0.317 NA
ATOM     21  N   UNL     1      32.852 -13.873 -24.623  0.00  0.00    -0.334 N 
ATOM     22  N   UNL     1      35.616 -17.512 -23.473  0.00  0.00    -0.283 N 
ATOM     23  C   UNL     1      33.562 -14.153 -22.338  0.00  0.00    +0.179 C 
ATOM     24  C   UNL     1      34.286 -14.910 -21.441  0.00  0.00    +0.120 C 
ATOM     25  C   UNL     1      33.575 -14.601 -23.643  0.00  0.00    +0.186 C 
ATOM     26  C   UNL     1      34.354 -14.532 -19.995  0.00  0.00    +0.064 C 
ATOM     27  C   UNL     1      34.908 -16.354 -23.082  0.00  0.00    +0.196 C 
ATOM     28  H   UNL     1      32.849 -14.177 -25.559  0.00  0.00    +0.144 HD
ATOM     29  H   UNL     1      32.353 -13.064 -24.365  0.00  0.00    +0.144 HD
ATOM     30  H   UNL     1      36.122 -18.027 -22.805  0.00  0.00    +0.156 HD
ATOM     31  H   UNL     1      35.603 -17.803 -24.413  0.00  0.00    +0.156 HD
ENDBRANCH  18  23
ENDBRANCH   1  17
TORSDOF 5
ENDMDL
MODEL 8
REMARK VINA RESULT:      -9.9      8.582     12.126
REMARK  Name = 25195365
REMARK  5 active torsions:
REMARK  status: ('A' for Active; 'I' for Inactive)
REMARK    1  A    between atoms: C_1  and  C_3
REMARK    2  A    between atoms: C_1  and  C_17
REMARK    3  A    between atoms: C_4  and  C_9
REMARK    4  A    between atoms: C_6  and  O_15
REMARK    5  A    between atoms: C_18  and  C_23
REMARK                            x       y       z     vdW  Elec       q    Type
REMARK                         _______ _______ _______ _____ _____    ______ ____
ROOT
ATOM      1  C   UNL     1      33.918 -12.369 -24.800  0.00  0.00    +0.086 C 
ATOM      2  C   UNL     1      32.876 -12.754 -25.867  0.00  0.00    +0.019 C 
ENDROOT
BRANCH   1   3
ATOM      3  C   UNL     1      33.507 -11.187 -23.990  0.00  0.00    -0.007 C 
ATOM      4  C   UNL     1      32.740  -8.975 -22.474  0.00  0.00    +0.034 C 
ATOM      5  C   UNL     1      32.543 -11.326 -22.991  0.00  0.00    +0.034 C 
ATOM      6  C   UNL     1      32.159 -10.220 -22.233  0.00  0.00    +0.138 C 
ATOM      7  C   UNL     1      34.087  -9.941 -24.230  0.00  0.00    -0.003 C 
ATOM      8  C   UNL     1      33.704  -8.836 -23.472  0.00  0.00    +0.003 C 
BRANCH   4   9
ATOM      9  C   UNL     1      32.355  -7.814 -21.700  0.00  0.00    +0.003 C 
ATOM     10  C   UNL     1      31.469  -6.880 -22.237  0.00  0.00    +0.000 C 
ATOM     11  C   UNL     1      32.870  -7.630 -20.416  0.00  0.00    +0.000 C 
ATOM     12  C   UNL     1      31.098  -5.762 -21.491  0.00  0.00    +0.000 C 
ATOM     13  C   UNL     1      32.498  -6.511 -19.670  0.00  0.00    +0.000 C 
ATOM     14  C   UNL     1      31.613  -5.577 -20.208  0.00  0.00    +0.000 C 
ENDBRANCH   4   9
BRANCH   6  15
ATOM     15  O   UNL     1      31.216 -10.385 -21.263  0.00  0.00    -0.471 OA
ATOM     16  C   UNL     1      31.576 -11.185 -20.139  0.00  0.00    +0.252 C 
ENDBRANCH   6  15
ENDBRANCH   1   3
BRANCH   1  17
ATOM     17  C   UNL     1      34.223 -13.553 -23.955  0.00  0.00    -0.087 C 
ATOM     18  C   UNL     1      34.481 -14.520 -23.290  0.00  0.00    -0.076 C 
BRANCH  18  23
ATOM     19  N   UNL     1      35.093 -16.686 -20.339  0.00  0.00    -0.336 NA
ATOM     20  N   UNL     1      35.396 -17.996 -22.340  0.00  0.00    -0.317 NA
ATOM     21  N   UNL     1      35.106 -17.018 -24.474  0.00  0.00    -0.334 N 
ATOM     22  N   UNL     1      35.680 -18.955 -20.216  0.00  0.00    -0.283 N 
ATOM     23  C   UNL     1      34.793 -15.672 -22.502  0.00  0.00    +0.179 C 
ATOM     24  C   UNL     1      34.805 -15.626 -21.123  0.00  0.00    +0.120 C 
ATOM     25  C   UNL     1      35.099 -16.895 -23.061  0.00  0.00    +0.186 C 
ATOM     26  C   UNL     1      34.491 -14.360 -20.392  0.00  0.00    +0.064 C 
ATOM     27  C   UNL     1      35.375 -17.823 -21.004  0.00  0.00    +0.196 C 
ATOM     28  H   UNL     1      35.323 -17.882 -24.891  0.00  0.00    +0.144 HD
ATOM     29  H   UNL     1      34.895 -16.238 -25.036  0.00  0.00    +0.144 HD
ATOM     30  H   UNL     1      35.679 -18.886 -19.235  0.00  0.00    +0.156 HD
ATOM     31  H   UNL     1      35.894 -19.813 -20.650  0.00  0.00    +0.156 HD
ENDBRANCH  18  23
ENDBRANCH   1  17
TORSDOF 5
ENDMDL
MODEL 9
REMARK VINA RESULT:      -9.8      6.006      9.667
REMARK  Name = 25195365
REMARK  5 active torsions:
REMARK  status: ('A' for Active; 'I' for Inactive)
REMARK    1  A    between atoms: C_1  and  C_3
REMARK    2  A    between atoms: C_1  and  C_17
REMARK    3  A    between atoms: C_4  and  C_9
REMARK    4  A    between atoms: C_6  and  O_15
REMARK    5  A    between atoms: C_18  and  C_23
REMARK                            x       y       z     vdW  Elec       q    Type
REMARK                         _______ _______ _______ _____ _____    ______ ____
ROOT
ATOM      1  C   UNL     1      36.161 -19.019 -21.978  0.00  0.00    +0.086 C 
ATOM      2  C   UNL     1      37.666 -18.808 -21.728  0.00  0.00    +0.019 C 
ENDROOT
BRANCH   1   3
ATOM      3  C   UNL     1      35.506 -19.835 -20.916  0.00  0.00    -0.007 C 
ATOM      4  C   UNL     1      34.281 -21.361 -18.928  0.00  0.00    +0.034 C 
ATOM      5  C   UNL     1      36.285 -20.526 -19.988  0.00  0.00    +0.034 C 
ATOM      6  C   UNL     1      35.672 -21.290 -18.994  0.00  0.00    +0.138 C 
ATOM      7  C   UNL     1      34.115 -19.907 -20.849  0.00  0.00    -0.003 C 
ATOM      8  C   UNL     1      33.502 -20.669 -19.856  0.00  0.00    +0.003 C 
BRANCH   4   9
ATOM      9  C   UNL     1      33.625 -22.147 -17.906  0.00  0.00    +0.003 C 
ATOM     10  C   UNL     1      34.382 -22.941 -17.044  0.00  0.00    +0.000 C 
ATOM     11  C   UNL     1      32.236 -22.112 -17.781  0.00  0.00    +0.000 C 
ATOM     12  C   UNL     1      33.750 -23.699 -16.058  0.00  0.00    +0.000 C 
ATOM     13  C   UNL     1      31.604 -22.870 -16.795  0.00  0.00    +0.000 C 
ATOM     14  C   UNL     1      32.362 -23.663 -15.934  0.00  0.00    +0.000 C 
ENDBRANCH   4   9
BRANCH   6  15
ATOM     15  O   UNL     1      36.457 -21.955 -18.099  0.00  0.00    -0.471 OA
ATOM     16  C   UNL     1      37.225 -21.161 -17.197  0.00  0.00    +0.252 C 
ENDBRANCH   6  15
ENDBRANCH   1   3
BRANCH   1  17
ATOM     17  C   UNL     1      35.499 -17.701 -22.164  0.00  0.00    -0.087 C 
ATOM     18  C   UNL     1      34.985 -16.625 -22.315  0.00  0.00    -0.076 C 
BRANCH  18  23
ATOM     19  N   UNL     1      33.600 -13.264 -21.570  0.00  0.00    -0.336 NA
ATOM     20  N   UNL     1      33.393 -13.682 -23.935  0.00  0.00    -0.317 NA
ATOM     21  N   UNL     1      34.151 -15.719 -24.868  0.00  0.00    -0.334 N 
ATOM     22  N   UNL     1      32.645 -11.664 -22.997  0.00  0.00    -0.283 N 
ATOM     23  C   UNL     1      34.379 -15.343 -22.500  0.00  0.00    +0.179 C 
ATOM     24  C   UNL     1      34.168 -14.481 -21.444  0.00  0.00    +0.120 C 
ATOM     25  C   UNL     1      33.967 -14.886 -23.734  0.00  0.00    +0.186 C 
ATOM     26  C   UNL     1      34.569 -14.856 -20.053  0.00  0.00    +0.064 C 
ATOM     27  C   UNL     1      33.243 -12.933 -22.826  0.00  0.00    +0.196 C 
ATOM     28  H   UNL     1      33.863 -15.410 -25.757  0.00  0.00    +0.144 HD
ATOM     29  H   UNL     1      34.566 -16.606 -24.764  0.00  0.00    +0.144 HD
ATOM     30  H   UNL     1      32.511 -11.075 -22.221  0.00  0.00    +0.156 HD
ATOM     31  H   UNL     1      32.364 -11.370 -23.894  0.00  0.00    +0.156 HD
ENDBRANCH  18  23
ENDBRANCH   1  17
TORSDOF 5
ENDMDL
