MODEL 1
REMARK VINA RESULT:     -11.2      0.000      0.000
REMARK  Name = 104758
REMARK  11 active torsions:
REMARK  status: ('A' for Active; 'I' for Inactive)
REMARK    1  A    between atoms: C_2  and  N_21
REMARK    2  A    between atoms: C_3  and  C_8
REMARK    3  A    between atoms: N_7  and  CA_10
REMARK    4  A    between atoms: CA_10  and  C_12
REMARK    5  A    between atoms: CA_10  and  CB_15
REMARK    6  A    between atoms: C_12  and  O_13
REMARK    7  A    between atoms: CB_15  and  CG_16
REMARK    8  A    between atoms: CG_16  and  CD_18
REMARK    9  A    between atoms: CD_18  and  OE1_19
REMARK   10  A    between atoms: N_21  and  C_23
REMARK   11  A    between atoms: C_23  and  C_27
REMARK                            x       y       z     vdW  Elec       q    Type
REMARK                         _______ _______ _______ _____ _____    ______ ____
ROOT
ATOM      1  S   UNL     1      35.144 -21.443 -19.097  0.00  0.00    -0.068 S 
ATOM      2  C   UNL     1      34.836 -20.270 -20.305  0.00  0.00    +0.079 C 
ATOM      3  C   UNL     1      33.474 -21.776 -18.918  0.00  0.00    +0.084 C 
ATOM      4  C   UNL     1      33.489 -20.136 -20.564  0.00  0.00    +0.022 C 
ATOM      5  C   UNL     1      32.701 -21.009 -19.761  0.00  0.00    +0.013 C 
ENDROOT
BRANCH   3   8
ATOM      6  O   UNL     1      33.596 -23.886 -17.847  0.00  0.00    -0.270 OA
ATOM      7  N   UNL     1      31.959 -22.436 -17.144  0.00  0.00    -0.293 N 
ATOM      8  C   ACE A   0      33.060 -22.757 -17.968  0.00  0.00    +0.252 C 
ATOM      9  H   UNL     1      31.546 -21.549 -17.247  0.00  0.00    +0.150 HD
BRANCH   7  10
ATOM     10  CA  UNL     1      31.406 -23.336 -16.158  0.00  0.00    +0.172 C 
BRANCH  10  12
ATOM     11  OXT UNL     1      29.305 -22.155 -16.503  0.00  0.00    -0.248 OA
ATOM     12  C   UNL     1      29.900 -23.176 -16.184  0.00  0.00    +0.332 C 
BRANCH  12  13
ATOM     13  O   UNL     1      29.262 -24.326 -15.845  0.00  0.00    -0.479 OA
ATOM     14  H   UNL     1      28.403 -24.502 -16.177  0.00  0.00    +0.295 HD
ENDBRANCH  12  13
ENDBRANCH  10  12
BRANCH  10  15
ATOM     15  CB  UNL     1      32.024 -23.144 -14.768  0.00  0.00    +0.043 C 
BRANCH  15  16
ATOM     16  CG  UNL     1      32.246 -24.423 -13.951  0.00  0.00    +0.112 C 
BRANCH  16  18
ATOM     17  OE2 UNL     1      30.749 -24.288 -12.033  0.00  0.00    -0.250 OA
ATOM     18  CD  UNL     1      31.062 -24.812 -13.093  0.00  0.00    +0.314 C 
BRANCH  18  19
ATOM     19  OE1 UNL     1      30.385 -25.865 -13.622  0.00  0.00    -0.480 OA
ATOM     20  HE1 UNL     1      29.680 -26.257 -13.144  0.00  0.00    +0.295 HD
ENDBRANCH  18  19
ENDBRANCH  16  18
ENDBRANCH  15  16
ENDBRANCH  10  15
ENDBRANCH   7  10
ENDBRANCH   3   8
BRANCH   2  21
ATOM     21  N   UNL     1      35.868 -19.568 -20.915  0.00  0.00    -0.297 N 
ATOM     22  C   UNL     1      37.149 -19.376 -20.232  0.00  0.00    +0.113 C 
BRANCH  21  23
ATOM     23  C   UNL     1      35.735 -19.004 -22.240  0.00  0.00    +0.118 C 
BRANCH  23  27
ATOM     24  O   UNL     1      33.870 -15.507 -25.534  0.00  0.00    -0.209 OA
ATOM     25  N   UNL     1      33.957 -13.607 -22.005  0.00  0.00    -0.290 N 
ATOM     26  N   UNL     1      33.470 -13.592 -24.338  0.00  0.00    -0.322 NA
ATOM     27  C   UNL     1      35.271 -17.588 -22.174  0.00  0.00    -0.002 C 
ATOM     28  C   UNL     1      34.382 -15.623 -23.255  0.00  0.00    +0.108 C 
ATOM     29  C   UNL     1      34.815 -16.949 -23.328  0.00  0.00    +0.011 C 
ATOM     30  C   UNL     1      34.400 -14.931 -22.036  0.00  0.00    +0.062 C 
ATOM     31  C   UNL     1      35.291 -16.905 -20.956  0.00  0.00    -0.001 C 
ATOM     32  C   UNL     1      34.857 -15.580 -20.886  0.00  0.00    +0.015 C 
ATOM     33  C   UNL     1      33.888 -14.906 -24.464  0.00  0.00    +0.207 C 
ATOM     34  C   UNL     1      33.521 -13.022 -23.170  0.00  0.00    +0.174 C 
ATOM     35  C   UNL     1      33.056 -11.589 -23.071  0.00  0.00    +0.085 C 
ATOM     36  H   UNL     1      33.959 -13.099 -21.162  0.00  0.00    +0.154 HD
ENDBRANCH  23  27
ENDBRANCH  21  23
ENDBRANCH   2  21
TORSDOF 11
ENDMDL
MODEL 2
REMARK VINA RESULT:     -11.2      3.550     10.951
REMARK  Name = 104758
REMARK  11 active torsions:
REMARK  status: ('A' for Active; 'I' for Inactive)
REMARK    1  A    between atoms: C_2  and  N_21
REMARK    2  A    between atoms: C_3  and  C_8
REMARK    3  A    between atoms: N_7  and  CA_10
REMARK    4  A    between atoms: CA_10  and  C_12
REMARK    5  A    between atoms: CA_10  and  CB_15
REMARK    6  A    between atoms: C_12  and  O_13
REMARK    7  A    between atoms: CB_15  and  CG_16
REMARK    8  A    between atoms: CG_16  and  CD_18
REMARK    9  A    between atoms: CD_18  and  OE1_19
REMARK   10  A    between atoms: N_21  and  C_23
REMARK   11  A    between atoms: C_23  and  C_27
REMARK                            x       y       z     vdW  Elec       q    Type
REMARK                         _______ _______ _______ _____ _____    ______ ____
ROOT
ATOM      1  S   UNL     1      34.188 -16.083 -24.186  0.00  0.00    -0.068 S 
ATOM      2  C   UNL     1      34.796 -16.957 -22.845  0.00  0.00    +0.079 C 
ATOM      3  C   UNL     1      34.130 -14.630 -23.281  0.00  0.00    +0.084 C 
ATOM      4  C   UNL     1      34.950 -16.157 -21.734  0.00  0.00    +0.022 C 
ATOM      5  C   UNL     1      34.565 -14.809 -21.987  0.00  0.00    +0.013 C 
ENDROOT
BRANCH   3   8
ATOM      6  O   UNL     1      33.129 -13.409 -25.048  0.00  0.00    -0.270 OA
ATOM      7  N   UNL     1      33.851 -12.223 -23.218  0.00  0.00    -0.293 N 
ATOM      8  C   ACE A   0      33.664 -13.438 -23.912  0.00  0.00    +0.252 C 
ATOM      9  H   UNL     1      34.271 -12.256 -22.329  0.00  0.00    +0.150 HD
BRANCH   7  10
ATOM     10  CA  UNL     1      33.460 -10.933 -23.740  0.00  0.00    +0.172 C 
BRANCH  10  12
ATOM     11  OXT UNL     1      34.965 -10.530 -25.610  0.00  0.00    -0.248 OA
ATOM     12  C   UNL     1      34.664 -10.337 -24.440  0.00  0.00    +0.332 C 
BRANCH  12  13
ATOM     13  O   UNL     1      35.371  -9.515 -23.622  0.00  0.00    -0.479 OA
ATOM     14  H   UNL     1      35.427  -9.700 -22.705  0.00  0.00    +0.295 HD
ENDBRANCH  12  13
ENDBRANCH  10  12
BRANCH  10  15
ATOM     15  CB  UNL     1      32.854 -10.020 -22.667  0.00  0.00    +0.043 C 
BRANCH  15  16
ATOM     16  CG  UNL     1      31.481 -10.440 -22.128  0.00  0.00    +0.112 C 
BRANCH  16  18
ATOM     17  OE2 UNL     1      31.591 -10.783 -19.718  0.00  0.00    -0.250 OA
ATOM     18  CD  UNL     1      31.549 -11.246 -20.849  0.00  0.00    +0.314 C 
BRANCH  18  19
ATOM     19  OE1 UNL     1      31.599 -12.581 -21.101  0.00  0.00    -0.480 OA
ATOM     20  HE1 UNL     1      32.412 -13.042 -21.023  0.00  0.00    +0.295 HD
ENDBRANCH  18  19
ENDBRANCH  16  18
ENDBRANCH  15  16
ENDBRANCH  10  15
ENDBRANCH   7  10
ENDBRANCH   3   8
BRANCH   2  21
ATOM     21  N   UNL     1      35.080 -18.313 -22.931  0.00  0.00    -0.297 N 
ATOM     22  C   UNL     1      34.564 -19.118 -24.041  0.00  0.00    +0.113 C 
BRANCH  21  23
ATOM     23  C   UNL     1      35.896 -18.992 -21.948  0.00  0.00    +0.118 C 
BRANCH  23  27
ATOM     24  O   UNL     1      36.674 -22.111 -17.921  0.00  0.00    -0.209 OA
ATOM     25  N   UNL     1      32.692 -22.055 -18.384  0.00  0.00    -0.290 N 
ATOM     26  N   UNL     1      34.616 -22.832 -17.211  0.00  0.00    -0.322 NA
ATOM     27  C   UNL     1      35.052 -19.795 -21.016  0.00  0.00    -0.002 C 
ATOM     28  C   UNL     1      34.851 -21.294 -19.137  0.00  0.00    +0.108 C 
ATOM     29  C   UNL     1      35.651 -20.546 -20.005  0.00  0.00    +0.011 C 
ATOM     30  C   UNL     1      33.456 -21.295 -19.273  0.00  0.00    +0.062 C 
ATOM     31  C   UNL     1      33.663 -19.791 -21.157  0.00  0.00    -0.001 C 
ATOM     32  C   UNL     1      32.866 -20.538 -20.289  0.00  0.00    +0.015 C 
ATOM     33  C   UNL     1      35.453 -22.109 -18.045  0.00  0.00    +0.207 C 
ATOM     34  C   UNL     1      33.331 -22.780 -17.406  0.00  0.00    +0.174 C 
ATOM     35  C   UNL     1      32.450 -23.581 -16.479  0.00  0.00    +0.085 C 
ATOM     36  H   UNL     1      31.711 -22.072 -18.458  0.00  0.00    +0.154 HD
ENDBRANCH  23  27
ENDBRANCH  21  23
ENDBRANCH   2  21
TORSDOF 11
ENDMDL
MODEL 3
REMARK VINA RESULT:     -11.2      3.525     10.870
REMARK  Name = 104758
REMARK  11 active torsions:
REMARK  status: ('A' for Active; 'I' for Inactive)
REMARK    1  A    between atoms: C_2  and  N_21
REMARK    2  A    between atoms: C_3  and  C_8
REMARK    3  A    between atoms: N_7  and  CA_10
REMARK    4  A    between atoms: CA_10  and  C_12
REMARK    5  A    between atoms: CA_10  and  CB_15
REMARK    6  A    between atoms: C_12  and  O_13
REMARK    7  A    between atoms: CB_15  and  CG_16
REMARK    8  A    between atoms: CG_16  and  CD_18
REMARK    9  A    between atoms: CD_18  and  OE1_19
REMARK   10  A    between atoms: N_21  and  C_23
REMARK   11  A    between atoms: C_23  and  C_27
REMARK                            x       y       z     vdW  Elec       q    Type
REMARK                         _______ _______ _______ _____ _____    ______ ____
ROOT
ATOM      1  S   UNL     1      34.459 -15.800 -24.114  0.00  0.00    -0.068 S 
ATOM      2  C   UNL     1      34.934 -16.668 -22.716  0.00  0.00    +0.079 C 
ATOM      3  C   UNL     1      34.161 -14.384 -23.200  0.00  0.00    +0.084 C 
ATOM      4  C   UNL     1      34.865 -15.893 -21.579  0.00  0.00    +0.022 C 
ATOM      5  C   UNL     1      34.418 -14.570 -21.860  0.00  0.00    +0.013 C 
ENDROOT
BRANCH   3   8
ATOM      6  O   UNL     1      33.155 -13.216 -24.999  0.00  0.00    -0.270 OA
ATOM      7  N   UNL     1      33.904 -11.973 -23.219  0.00  0.00    -0.293 N 
ATOM      8  C   ACE A   0      33.700 -13.210 -23.868  0.00  0.00    +0.252 C 
ATOM      9  H   UNL     1      34.332 -11.980 -22.332  0.00  0.00    +0.150 HD
BRANCH   7  10
ATOM     10  CA  UNL     1      33.520 -10.699 -23.782  0.00  0.00    +0.172 C 
BRANCH  10  12
ATOM     11  OXT UNL     1      35.095 -10.306 -25.597  0.00  0.00    -0.248 OA
ATOM     12  C   UNL     1      34.746 -10.101 -24.442  0.00  0.00    +0.332 C 
BRANCH  12  13
ATOM     13  O   UNL     1      35.413  -9.263 -23.607  0.00  0.00    -0.479 OA
ATOM     14  H   UNL     1      35.249  -9.290 -22.685  0.00  0.00    +0.295 HD
ENDBRANCH  12  13
ENDBRANCH  10  12
BRANCH  10  15
ATOM     15  CB  UNL     1      32.858  -9.773 -22.754  0.00  0.00    +0.043 C 
BRANCH  15  16
ATOM     16  CG  UNL     1      31.461 -10.191 -22.279  0.00  0.00    +0.112 C 
BRANCH  16  18
ATOM     17  OE2 UNL     1      31.488 -10.518 -19.865  0.00  0.00    -0.250 OA
ATOM     18  CD  UNL     1      31.467 -10.989 -20.993  0.00  0.00    +0.314 C 
BRANCH  18  19
ATOM     19  OE1 UNL     1      31.488 -12.326 -21.235  0.00  0.00    -0.480 OA
ATOM     20  HE1 UNL     1      30.998 -12.681 -21.951  0.00  0.00    +0.295 HD
ENDBRANCH  18  19
ENDBRANCH  16  18
ENDBRANCH  15  16
ENDBRANCH  10  15
ENDBRANCH   7  10
ENDBRANCH   3   8
BRANCH   2  21
ATOM     21  N   UNL     1      35.331 -17.997 -22.788  0.00  0.00    -0.297 N 
ATOM     22  C   UNL     1      34.598 -18.955 -23.618  0.00  0.00    +0.113 C 
BRANCH  21  23
ATOM     23  C   UNL     1      36.478 -18.496 -22.061  0.00  0.00    +0.118 C 
BRANCH  23  27
ATOM     24  O   UNL     1      32.062 -20.568 -20.401  0.00  0.00    -0.209 OA
ATOM     25  N   UNL     1      34.876 -22.222 -18.074  0.00  0.00    -0.290 N 
ATOM     26  N   UNL     1      32.584 -22.000 -18.689  0.00  0.00    -0.322 NA
ATOM     27  C   UNL     1      36.063 -19.473 -21.014  0.00  0.00    -0.002 C 
ATOM     28  C   UNL     1      34.336 -20.714 -19.874  0.00  0.00    +0.108 C 
ATOM     29  C   UNL     1      34.714 -19.797 -20.858  0.00  0.00    +0.011 C 
ATOM     30  C   UNL     1      35.296 -21.309 -19.045  0.00  0.00    +0.062 C 
ATOM     31  C   UNL     1      37.024 -20.063 -20.191  0.00  0.00    -0.001 C 
ATOM     32  C   UNL     1      36.643 -20.978 -19.209  0.00  0.00    +0.015 C 
ATOM     33  C   UNL     1      32.907 -21.086 -19.677  0.00  0.00    +0.207 C 
ATOM     34  C   UNL     1      33.536 -22.505 -17.960  0.00  0.00    +0.174 C 
ATOM     35  C   UNL     1      33.147 -23.498 -16.892  0.00  0.00    +0.085 C 
ATOM     36  H   UNL     1      35.531 -22.654 -17.480  0.00  0.00    +0.154 HD
ENDBRANCH  23  27
ENDBRANCH  21  23
ENDBRANCH   2  21
TORSDOF 11
ENDMDL
MODEL 4
REMARK VINA RESULT:     -11.1      1.080      1.630
REMARK  Name = 104758
REMARK  11 active torsions:
REMARK  status: ('A' for Active; 'I' for Inactive)
REMARK    1  A    between atoms: C_2  and  N_21
REMARK    2  A    between atoms: C_3  and  C_8
REMARK    3  A    between atoms: N_7  and  CA_10
REMARK    4  A    between atoms: CA_10  and  C_12
REMARK    5  A    between atoms: CA_10  and  CB_15
REMARK    6  A    between atoms: C_12  and  O_13
REMARK    7  A    between atoms: CB_15  and  CG_16
REMARK    8  A    between atoms: CG_16  and  CD_18
REMARK    9  A    between atoms: CD_18  and  OE1_19
REMARK   10  A    between atoms: N_21  and  C_23
REMARK   11  A    between atoms: C_23  and  C_27
REMARK                            x       y       z     vdW  Elec       q    Type
REMARK                         _______ _______ _______ _____ _____    ______ ____
ROOT
ATOM      1  S   UNL     1      35.176 -21.466 -19.135  0.00  0.00    -0.068 S 
ATOM      2  C   UNL     1      34.829 -20.273 -20.314  0.00  0.00    +0.079 C 
ATOM      3  C   UNL     1      33.513 -21.807 -18.912  0.00  0.00    +0.084 C 
ATOM      4  C   UNL     1      33.476 -20.140 -20.531  0.00  0.00    +0.022 C 
ATOM      5  C   UNL     1      32.713 -21.028 -19.719  0.00  0.00    +0.013 C 
ENDROOT
BRANCH   3   8
ATOM      6  O   UNL     1      33.593 -23.972 -17.953  0.00  0.00    -0.270 OA
ATOM      7  N   UNL     1      32.144 -22.454 -17.019  0.00  0.00    -0.293 N 
ATOM      8  C   ACE A   0      33.129 -22.805 -17.967  0.00  0.00    +0.252 C 
ATOM      9  H   UNL     1      31.787 -21.537 -17.039  0.00  0.00    +0.150 HD
BRANCH   7  10
ATOM     10  CA  UNL     1      31.632 -23.364 -16.020  0.00  0.00    +0.172 C 
BRANCH  10  12
ATOM     11  OXT UNL     1      29.477 -22.477 -16.723  0.00  0.00    -0.248 OA
ATOM     12  C   UNL     1      30.124 -23.218 -15.997  0.00  0.00    +0.332 C 
BRANCH  12  13
ATOM     13  O   UNL     1      29.549 -24.047 -15.087  0.00  0.00    -0.479 OA
ATOM     14  H   UNL     1      28.781 -23.775 -14.623  0.00  0.00    +0.295 HD
ENDBRANCH  12  13
ENDBRANCH  10  12
BRANCH  10  15
ATOM     15  CB  UNL     1      32.293 -23.172 -14.650  0.00  0.00    +0.043 C 
BRANCH  15  16
ATOM     16  CG  UNL     1      33.315 -24.243 -14.244  0.00  0.00    +0.112 C 
BRANCH  16  18
ATOM     17  OE2 UNL     1      35.503 -24.665 -15.229  0.00  0.00    -0.250 OA
ATOM     18  CD  UNL     1      34.736 -23.912 -14.645  0.00  0.00    +0.314 C 
BRANCH  18  19
ATOM     19  OE1 UNL     1      35.093 -22.665 -14.239  0.00  0.00    -0.480 OA
ATOM     20  HE1 UNL     1      34.867 -21.920 -14.761  0.00  0.00    +0.295 HD
ENDBRANCH  18  19
ENDBRANCH  16  18
ENDBRANCH  15  16
ENDBRANCH  10  15
ENDBRANCH   7  10
ENDBRANCH   3   8
BRANCH   2  21
ATOM     21  N   UNL     1      35.841 -19.558 -20.941  0.00  0.00    -0.297 N 
ATOM     22  C   UNL     1      37.130 -19.346 -20.280  0.00  0.00    +0.113 C 
BRANCH  21  23
ATOM     23  C   UNL     1      35.679 -18.999 -22.265  0.00  0.00    +0.118 C 
BRANCH  23  27
ATOM     24  O   UNL     1      33.862 -15.469 -25.550  0.00  0.00    -0.209 OA
ATOM     25  N   UNL     1      33.946 -13.588 -22.011  0.00  0.00    -0.290 N 
ATOM     26  N   UNL     1      33.471 -13.558 -24.347  0.00  0.00    -0.322 NA
ATOM     27  C   UNL     1      35.226 -17.579 -22.194  0.00  0.00    -0.002 C 
ATOM     28  C   UNL     1      34.360 -15.601 -23.269  0.00  0.00    +0.108 C 
ATOM     29  C   UNL     1      34.783 -16.931 -23.347  0.00  0.00    +0.011 C 
ATOM     30  C   UNL     1      34.378 -14.916 -22.046  0.00  0.00    +0.062 C 
ATOM     31  C   UNL     1      35.246 -16.904 -20.973  0.00  0.00    -0.001 C 
ATOM     32  C   UNL     1      34.823 -15.576 -20.898  0.00  0.00    +0.015 C 
ATOM     33  C   UNL     1      33.879 -14.874 -24.477  0.00  0.00    +0.207 C 
ATOM     34  C   UNL     1      33.520 -12.994 -23.175  0.00  0.00    +0.174 C 
ATOM     35  C   UNL     1      33.068 -11.557 -23.071  0.00  0.00    +0.085 C 
ATOM     36  H   UNL     1      33.947 -13.085 -21.165  0.00  0.00    +0.154 HD
ENDBRANCH  23  27
ENDBRANCH  21  23
ENDBRANCH   2  21
TORSDOF 11
ENDMDL
MODEL 5
REMARK VINA RESULT:     -10.9      1.593      2.402
REMARK  Name = 104758
REMARK  11 active torsions:
REMARK  status: ('A' for Active; 'I' for Inactive)
REMARK    1  A    between atoms: C_2  and  N_21
REMARK    2  A    between atoms: C_3  and  C_8
REMARK    3  A    between atoms: N_7  and  CA_10
REMARK    4  A    between atoms: CA_10  and  C_12
REMARK    5  A    between atoms: CA_10  and  CB_15
REMARK    6  A    between atoms: C_12  and  O_13
REMARK    7  A    between atoms: CB_15  and  CG_16
REMARK    8  A    between atoms: CG_16  and  CD_18
REMARK    9  A    between atoms: CD_18  and  OE1_19
REMARK   10  A    between atoms: N_21  and  C_23
REMARK   11  A    between atoms: C_23  and  C_27
REMARK                            x       y       z     vdW  Elec       q    Type
REMARK                         _______ _______ _______ _____ _____    ______ ____
ROOT
ATOM      1  S   UNL     1      35.183 -21.408 -19.393  0.00  0.00    -0.068 S 
ATOM      2  C   UNL     1      34.767 -20.179 -20.511  0.00  0.00    +0.079 C 
ATOM      3  C   UNL     1      33.537 -21.716 -19.037  0.00  0.00    +0.084 C 
ATOM      4  C   UNL     1      33.403 -20.010 -20.608  0.00  0.00    +0.022 C 
ATOM      5  C   UNL     1      32.691 -20.901 -19.755  0.00  0.00    +0.013 C 
ENDROOT
BRANCH   3   8
ATOM      6  O   UNL     1      33.702 -23.883 -18.093  0.00  0.00    -0.270 OA
ATOM      7  N   UNL     1      32.251 -22.406 -17.100  0.00  0.00    -0.293 N 
ATOM      8  C   ACE A   0      33.211 -22.729 -18.085  0.00  0.00    +0.252 C 
ATOM      9  H   UNL     1      31.871 -21.498 -17.103  0.00  0.00    +0.150 HD
BRANCH   7  10
ATOM     10  CA  UNL     1      31.796 -23.333 -16.090  0.00  0.00    +0.172 C 
BRANCH  10  12
ATOM     11  OXT UNL     1      29.582 -22.584 -16.770  0.00  0.00    -0.248 OA
ATOM     12  C   UNL     1      30.293 -23.189 -15.978  0.00  0.00    +0.332 C 
BRANCH  12  13
ATOM     13  O   UNL     1      29.798 -23.850 -14.899  0.00  0.00    -0.479 OA
ATOM     14  H   UNL     1      30.320 -24.497 -14.466  0.00  0.00    +0.295 HD
ENDBRANCH  12  13
ENDBRANCH  10  12
BRANCH  10  15
ATOM     15  CB  UNL     1      32.534 -23.164 -14.756  0.00  0.00    +0.043 C 
BRANCH  15  16
ATOM     16  CG  UNL     1      33.607 -24.217 -14.447  0.00  0.00    +0.112 C 
BRANCH  16  18
ATOM     17  OE2 UNL     1      35.863 -24.495 -15.325  0.00  0.00    -0.250 OA
ATOM     18  CD  UNL     1      35.010 -23.784 -14.812  0.00  0.00    +0.314 C 
BRANCH  18  19
ATOM     19  OE1 UNL     1      35.241 -22.491 -14.462  0.00  0.00    -0.480 OA
ATOM     20  HE1 UNL     1      35.992 -22.273 -13.944  0.00  0.00    +0.295 HD
ENDBRANCH  18  19
ENDBRANCH  16  18
ENDBRANCH  15  16
ENDBRANCH  10  15
ENDBRANCH   7  10
ENDBRANCH   3   8
BRANCH   2  21
ATOM     21  N   UNL     1      35.739 -19.472 -21.207  0.00  0.00    -0.297 N 
ATOM     22  C   UNL     1      36.900 -18.913 -20.512  0.00  0.00    +0.113 C 
BRANCH  21  23
ATOM     23  C   UNL     1      35.660 -19.260 -22.635  0.00  0.00    +0.118 C 
BRANCH  23  27
ATOM     24  O   UNL     1      34.820 -14.893 -20.032  0.00  0.00    -0.209 OA
ATOM     25  N   UNL     1      33.748 -14.031 -23.797  0.00  0.00    -0.290 N 
ATOM     26  N   UNL     1      34.013 -13.354 -21.527  0.00  0.00    -0.322 NA
ATOM     27  C   UNL     1      35.157 -17.890 -22.945  0.00  0.00    -0.002 C 
ATOM     28  C   UNL     1      34.596 -15.655 -22.231  0.00  0.00    +0.108 C 
ATOM     29  C   UNL     1      35.067 -16.935 -21.931  0.00  0.00    +0.011 C 
ATOM     30  C   UNL     1      34.214 -15.323 -23.539  0.00  0.00    +0.062 C 
ATOM     31  C   UNL     1      34.778 -17.566 -24.249  0.00  0.00    -0.001 C 
ATOM     32  C   UNL     1      34.308 -16.286 -24.546  0.00  0.00    +0.015 C 
ATOM     33  C   UNL     1      34.486 -14.608 -21.178  0.00  0.00    +0.207 C 
ATOM     34  C   UNL     1      33.677 -13.128 -22.764  0.00  0.00    +0.174 C 
ATOM     35  C   UNL     1      33.165 -11.750 -23.108  0.00  0.00    +0.085 C 
ATOM     36  H   UNL     1      33.474 -13.772 -24.707  0.00  0.00    +0.154 HD
ENDBRANCH  23  27
ENDBRANCH  21  23
ENDBRANCH   2  21
TORSDOF 11
ENDMDL
MODEL 6
REMARK VINA RESULT:     -10.5      3.988      5.167
REMARK  Name = 104758
REMARK  11 active torsions:
REMARK  status: ('A' for Active; 'I' for Inactive)
REMARK    1  A    between atoms: C_2  and  N_21
REMARK    2  A    between atoms: C_3  and  C_8
REMARK    3  A    between atoms: N_7  and  CA_10
REMARK    4  A    between atoms: CA_10  and  C_12
REMARK    5  A    between atoms: CA_10  and  CB_15
REMARK    6  A    between atoms: C_12  and  O_13
REMARK    7  A    between atoms: CB_15  and  CG_16
REMARK    8  A    between atoms: CG_16  and  CD_18
REMARK    9  A    between atoms: CD_18  and  OE1_19
REMARK   10  A    between atoms: N_21  and  C_23
REMARK   11  A    between atoms: C_23  and  C_27
REMARK                            x       y       z     vdW  Elec       q    Type
REMARK                         _______ _______ _______ _____ _____    ______ ____
ROOT
ATOM      1  S   UNL     1      34.592 -22.645 -17.331  0.00  0.00    -0.068 S 
ATOM      2  C   UNL     1      35.543 -21.652 -18.352  0.00  0.00    +0.079 C 
ATOM      3  C   UNL     1      35.867 -22.793 -16.199  0.00  0.00    +0.084 C 
ATOM      4  C   UNL     1      36.804 -21.441 -17.839  0.00  0.00    +0.022 C 
ATOM      5  C   UNL     1      36.991 -22.101 -16.592  0.00  0.00    +0.013 C 
ENDROOT
BRANCH   3   8
ATOM      6  O   UNL     1      34.557 -24.069 -14.692  0.00  0.00    -0.270 OA
ATOM      7  N   UNL     1      36.774 -23.767 -14.172  0.00  0.00    -0.293 N 
ATOM      8  C   ACE A   0      35.663 -23.575 -15.022  0.00  0.00    +0.252 C 
ATOM      9  H   UNL     1      37.636 -23.375 -14.439  0.00  0.00    +0.150 HD
BRANCH   7  10
ATOM     10  CA  UNL     1      36.716 -24.507 -12.932  0.00  0.00    +0.172 C 
BRANCH  10  12
ATOM     11  OXT UNL     1      36.972 -22.739 -11.278  0.00  0.00    -0.248 OA
ATOM     12  C   UNL     1      36.258 -23.553 -11.849  0.00  0.00    +0.332 C 
BRANCH  12  13
ATOM     13  O   UNL     1      34.928 -23.672 -11.597  0.00  0.00    -0.479 OA
ATOM     14  H   UNL     1      34.609 -24.394 -11.093  0.00  0.00    +0.295 HD
ENDBRANCH  12  13
ENDBRANCH  10  12
BRANCH  10  15
ATOM     15  CB  UNL     1      38.033 -25.224 -12.609  0.00  0.00    +0.043 C 
BRANCH  15  16
ATOM     16  CG  UNL     1      38.636 -26.059 -13.745  0.00  0.00    +0.112 C 
BRANCH  16  18
ATOM     17  OE2 UNL     1      40.999 -25.805 -14.283  0.00  0.00    -0.250 OA
ATOM     18  CD  UNL     1      39.844 -25.421 -14.396  0.00  0.00    +0.314 C 
BRANCH  18  19
ATOM     19  OE1 UNL     1      39.501 -24.316 -15.111  0.00  0.00    -0.480 OA
ATOM     20  HE1 UNL     1      38.781 -24.351 -15.710  0.00  0.00    +0.295 HD
ENDBRANCH  18  19
ENDBRANCH  16  18
ENDBRANCH  15  16
ENDBRANCH  10  15
ENDBRANCH   7  10
ENDBRANCH   3   8
BRANCH   2  21
ATOM     21  N   UNL     1      35.042 -21.150 -19.547  0.00  0.00    -0.297 N 
ATOM     22  C   UNL     1      33.613 -20.874 -19.703  0.00  0.00    +0.113 C 
BRANCH  21  23
ATOM     23  C   UNL     1      35.896 -20.870 -20.680  0.00  0.00    +0.118 C 
BRANCH  23  27
ATOM     24  O   UNL     1      33.659 -19.073 -24.961  0.00  0.00    -0.209 OA
ATOM     25  N   UNL     1      34.702 -15.782 -22.923  0.00  0.00    -0.290 N 
ATOM     26  N   UNL     1      33.708 -16.784 -24.844  0.00  0.00    -0.322 NA
ATOM     27  C   UNL     1      35.585 -19.533 -21.265  0.00  0.00    -0.002 C 
ATOM     28  C   UNL     1      34.655 -18.188 -23.039  0.00  0.00    +0.108 C 
ATOM     29  C   UNL     1      34.942 -19.445 -22.500  0.00  0.00    +0.011 C 
ATOM     30  C   UNL     1      35.007 -17.018 -22.351  0.00  0.00    +0.062 C 
ATOM     31  C   UNL     1      35.938 -18.372 -20.574  0.00  0.00    -0.001 C 
ATOM     32  C   UNL     1      35.650 -17.118 -21.115  0.00  0.00    +0.015 C 
ATOM     33  C   UNL     1      33.970 -18.052 -24.354  0.00  0.00    +0.207 C 
ATOM     34  C   UNL     1      34.069 -15.749 -24.144  0.00  0.00    +0.174 C 
ATOM     35  C   UNL     1      33.768 -14.382 -24.709  0.00  0.00    +0.085 C 
ATOM     36  H   UNL     1      34.937 -14.946 -22.460  0.00  0.00    +0.154 HD
ENDBRANCH  23  27
ENDBRANCH  21  23
ENDBRANCH   2  21
TORSDOF 11
ENDMDL
MODEL 7
REMARK VINA RESULT:     -10.5      3.729      4.718
REMARK  Name = 104758
REMARK  11 active torsions:
REMARK  status: ('A' for Active; 'I' for Inactive)
REMARK    1  A    between atoms: C_2  and  N_21
REMARK    2  A    between atoms: C_3  and  C_8
REMARK    3  A    between atoms: N_7  and  CA_10
REMARK    4  A    between atoms: CA_10  and  C_12
REMARK    5  A    between atoms: CA_10  and  CB_15
REMARK    6  A    between atoms: C_12  and  O_13
REMARK    7  A    between atoms: CB_15  and  CG_16
REMARK    8  A    between atoms: CG_16  and  CD_18
REMARK    9  A    between atoms: CD_18  and  OE1_19
REMARK   10  A    between atoms: N_21  and  C_23
REMARK   11  A    between atoms: C_23  and  C_27
REMARK                            x       y       z     vdW  Elec       q    Type
REMARK                         _______ _______ _______ _____ _____    ______ ____
ROOT
ATOM      1  S   UNL     1      36.697 -21.732 -17.841  0.00  0.00    -0.068 S 
ATOM      2  C   UNL     1      35.091 -21.736 -18.437  0.00  0.00    +0.079 C 
ATOM      3  C   UNL     1      36.254 -22.680 -16.486  0.00  0.00    +0.084 C 
ATOM      4  C   UNL     1      34.239 -22.444 -17.619  0.00  0.00    +0.022 C 
ATOM      5  C   UNL     1      34.913 -22.992 -16.490  0.00  0.00    +0.013 C 
ENDROOT
BRANCH   3   8
ATOM      6  O   UNL     1      38.448 -22.654 -15.592  0.00  0.00    -0.270 OA
ATOM      7  N   UNL     1      36.869 -23.904 -14.486  0.00  0.00    -0.293 N 
ATOM      8  C   ACE A   0      37.254 -23.039 -15.533  0.00  0.00    +0.252 C 
ATOM      9  H   UNL     1      35.931 -24.200 -14.450  0.00  0.00    +0.150 HD
BRANCH   7  10
ATOM     10  CA  UNL     1      37.775 -24.380 -13.465  0.00  0.00    +0.172 C 
BRANCH  10  12
ATOM     11  OXT UNL     1      38.486 -26.677 -13.087  0.00  0.00    -0.248 OA
ATOM     12  C   UNL     1      37.598 -25.880 -13.358  0.00  0.00    +0.332 C 
BRANCH  12  13
ATOM     13  O   UNL     1      36.308 -26.254 -13.563  0.00  0.00    -0.479 OA
ATOM     14  H   UNL     1      35.810 -26.625 -12.861  0.00  0.00    +0.295 HD
ENDBRANCH  12  13
ENDBRANCH  10  12
BRANCH  10  15
ATOM     15  CB  UNL     1      37.605 -23.640 -12.133  0.00  0.00    +0.043 C 
BRANCH  15  16
ATOM     16  CG  UNL     1      36.162 -23.479 -11.636  0.00  0.00    +0.112 C 
BRANCH  16  18
ATOM     17  OE2 UNL     1      36.250 -24.342  -9.359  0.00  0.00    -0.250 OA
ATOM     18  CD  UNL     1      35.803 -24.406 -10.496  0.00  0.00    +0.314 C 
BRANCH  18  19
ATOM     19  OE1 UNL     1      34.933 -25.372 -10.891  0.00  0.00    -0.480 OA
ATOM     20  HE1 UNL     1      35.008 -26.241 -10.546  0.00  0.00    +0.295 HD
ENDBRANCH  18  19
ENDBRANCH  16  18
ENDBRANCH  15  16
ENDBRANCH  10  15
ENDBRANCH   7  10
ENDBRANCH   3   8
BRANCH   2  21
ATOM     21  N   UNL     1      34.753 -21.081 -19.614  0.00  0.00    -0.297 N 
ATOM     22  C   UNL     1      33.372 -20.668 -19.871  0.00  0.00    +0.113 C 
BRANCH  21  23
ATOM     23  C   UNL     1      35.734 -20.771 -20.631  0.00  0.00    +0.118 C 
BRANCH  23  27
ATOM     24  O   UNL     1      33.693 -19.057 -25.041  0.00  0.00    -0.209 OA
ATOM     25  N   UNL     1      34.659 -15.727 -23.028  0.00  0.00    -0.290 N 
ATOM     26  N   UNL     1      33.746 -16.767 -24.969  0.00  0.00    -0.322 NA
ATOM     27  C   UNL     1      35.455 -19.446 -21.256  0.00  0.00    -0.002 C 
ATOM     28  C   UNL     1      34.608 -18.136 -23.096  0.00  0.00    +0.108 C 
ATOM     29  C   UNL     1      34.866 -19.382 -22.519  0.00  0.00    +0.011 C 
ATOM     30  C   UNL     1      34.934 -16.953 -22.417  0.00  0.00    +0.062 C 
ATOM     31  C   UNL     1      35.782 -18.273 -20.575  0.00  0.00    -0.001 C 
ATOM     32  C   UNL     1      35.523 -17.029 -21.153  0.00  0.00    +0.015 C 
ATOM     33  C   UNL     1      33.981 -18.025 -24.443  0.00  0.00    +0.207 C 
ATOM     34  C   UNL     1      34.080 -15.718 -24.275  0.00  0.00    +0.174 C 
ATOM     35  C   UNL     1      33.810 -14.362 -24.881  0.00  0.00    +0.085 C 
ATOM     36  H   UNL     1      34.878 -14.883 -22.573  0.00  0.00    +0.154 HD
ENDBRANCH  23  27
ENDBRANCH  21  23
ENDBRANCH   2  21
TORSDOF 11
ENDMDL
MODEL 8
REMARK VINA RESULT:     -10.5      3.516     11.308
REMARK  Name = 104758
REMARK  11 active torsions:
REMARK  status: ('A' for Active; 'I' for Inactive)
REMARK    1  A    between atoms: C_2  and  N_21
REMARK    2  A    between atoms: C_3  and  C_8
REMARK    3  A    between atoms: N_7  and  CA_10
REMARK    4  A    between atoms: CA_10  and  C_12
REMARK    5  A    between atoms: CA_10  and  CB_15
REMARK    6  A    between atoms: C_12  and  O_13
REMARK    7  A    between atoms: CB_15  and  CG_16
REMARK    8  A    between atoms: CG_16  and  CD_18
REMARK    9  A    between atoms: CD_18  and  OE1_19
REMARK   10  A    between atoms: N_21  and  C_23
REMARK   11  A    between atoms: C_23  and  C_27
REMARK                            x       y       z     vdW  Elec       q    Type
REMARK                         _______ _______ _______ _____ _____    ______ ____
ROOT
ATOM      1  S   UNL     1      34.960 -16.236 -22.031  0.00  0.00    -0.068 S 
ATOM      2  C   UNL     1      34.753 -17.405 -23.264  0.00  0.00    +0.079 C 
ATOM      3  C   UNL     1      34.315 -14.998 -23.021  0.00  0.00    +0.084 C 
ATOM      4  C   UNL     1      34.204 -16.862 -24.405  0.00  0.00    +0.022 C 
ATOM      5  C   UNL     1      33.950 -15.467 -24.263  0.00  0.00    +0.013 C 
ENDROOT
BRANCH   3   8
ATOM      6  O   UNL     1      34.634 -13.333 -21.366  0.00  0.00    -0.270 OA
ATOM      7  N   UNL     1      33.593 -12.702 -23.314  0.00  0.00    -0.293 N 
ATOM      8  C   ACE A   0      34.221 -13.672 -22.502  0.00  0.00    +0.252 C 
ATOM      9  H   UNL     1      33.272 -12.978 -24.203  0.00  0.00    +0.150 HD
BRANCH   7  10
ATOM     10  CA  UNL     1      33.396 -11.327 -22.914  0.00  0.00    +0.172 C 
BRANCH  10  12
ATOM     11  OXT UNL     1      31.357 -10.219 -22.178  0.00  0.00    -0.248 OA
ATOM     12  C   UNL     1      32.038 -11.233 -22.249  0.00  0.00    +0.332 C 
BRANCH  12  13
ATOM     13  O   UNL     1      31.629 -12.433 -21.761  0.00  0.00    -0.479 OA
ATOM     14  H   UNL     1      30.752 -12.538 -21.447  0.00  0.00    +0.295 HD
ENDBRANCH  12  13
ENDBRANCH  10  12
BRANCH  10  15
ATOM     15  CB  UNL     1      33.587 -10.341 -24.073  0.00  0.00    +0.043 C 
BRANCH  15  16
ATOM     16  CG  UNL     1      34.756  -9.357 -23.928  0.00  0.00    +0.112 C 
BRANCH  16  18
ATOM     17  OE2 UNL     1      35.137  -7.165 -22.934  0.00  0.00    -0.250 OA
ATOM     18  CD  UNL     1      34.362  -8.029 -23.320  0.00  0.00    +0.314 C 
BRANCH  18  19
ATOM     19  OE1 UNL     1      33.012  -7.910 -23.208  0.00  0.00    -0.480 OA
ATOM     20  HE1 UNL     1      32.619  -7.061 -23.160  0.00  0.00    +0.295 HD
ENDBRANCH  18  19
ENDBRANCH  16  18
ENDBRANCH  15  16
ENDBRANCH  10  15
ENDBRANCH   7  10
ENDBRANCH   3   8
BRANCH   2  21
ATOM     21  N   UNL     1      35.116 -18.733 -23.074  0.00  0.00    -0.297 N 
ATOM     22  C   UNL     1      34.740 -19.759 -24.048  0.00  0.00    +0.113 C 
BRANCH  21  23
ATOM     23  C   UNL     1      35.880 -19.163 -21.924  0.00  0.00    +0.118 C 
BRANCH  23  27
ATOM     24  O   UNL     1      36.615 -22.236 -17.853  0.00  0.00    -0.209 OA
ATOM     25  N   UNL     1      32.632 -22.072 -18.273  0.00  0.00    -0.290 N 
ATOM     26  N   UNL     1      34.547 -22.884 -17.108  0.00  0.00    -0.322 NA
ATOM     27  C   UNL     1      35.024 -19.925 -20.969  0.00  0.00    -0.002 C 
ATOM     28  C   UNL     1      34.803 -21.387 -19.062  0.00  0.00    +0.108 C 
ATOM     29  C   UNL     1      35.613 -20.677 -19.952  0.00  0.00    +0.011 C 
ATOM     30  C   UNL     1      33.406 -21.349 -19.183  0.00  0.00    +0.062 C 
ATOM     31  C   UNL     1      33.634 -19.883 -21.095  0.00  0.00    -0.001 C 
ATOM     32  C   UNL     1      32.827 -20.593 -20.205  0.00  0.00    +0.015 C 
ATOM     33  C   UNL     1      35.393 -22.200 -17.963  0.00  0.00    +0.207 C 
ATOM     34  C   UNL     1      33.261 -22.799 -17.290  0.00  0.00    +0.174 C 
ATOM     35  C   UNL     1      32.368 -23.559 -16.339  0.00  0.00    +0.085 C 
ATOM     36  H   UNL     1      31.649 -22.062 -18.335  0.00  0.00    +0.154 HD
ENDBRANCH  23  27
ENDBRANCH  21  23
ENDBRANCH   2  21
TORSDOF 11
ENDMDL
MODEL 9
REMARK VINA RESULT:     -10.4      5.195     11.565
REMARK  Name = 104758
REMARK  11 active torsions:
REMARK  status: ('A' for Active; 'I' for Inactive)
REMARK    1  A    between atoms: C_2  and  N_21
REMARK    2  A    between atoms: C_3  and  C_8
REMARK    3  A    between atoms: N_7  and  CA_10
REMARK    4  A    between atoms: CA_10  and  C_12
REMARK    5  A    between atoms: CA_10  and  CB_15
REMARK    6  A    between atoms: C_12  and  O_13
REMARK    7  A    between atoms: CB_15  and  CG_16
REMARK    8  A    between atoms: CG_16  and  CD_18
REMARK    9  A    between atoms: CD_18  and  OE1_19
REMARK   10  A    between atoms: N_21  and  C_23
REMARK   11  A    between atoms: C_23  and  C_27
REMARK                            x       y       z     vdW  Elec       q    Type
REMARK                         _______ _______ _______ _____ _____    ______ ____
ROOT
ATOM      1  S   UNL     1      35.839 -22.198 -16.588  0.00  0.00    -0.068 S 
ATOM      2  C   UNL     1      34.517 -23.004 -15.857  0.00  0.00    +0.079 C 
ATOM      3  C   UNL     1      35.009 -22.075 -18.080  0.00  0.00    +0.084 C 
ATOM      4  C   UNL     1      33.468 -23.175 -16.734  0.00  0.00    +0.022 C 
ATOM      5  C   UNL     1      33.753 -22.637 -18.021  0.00  0.00    +0.013 C 
ENDROOT
BRANCH   3   8
ATOM      6  O   UNL     1      36.840 -21.674 -19.529  0.00  0.00    -0.270 OA
ATOM      7  N   UNL     1      34.916 -20.477 -19.901  0.00  0.00    -0.293 N 
ATOM      8  C   ACE A   0      35.656 -21.442 -19.184  0.00  0.00    +0.252 C 
ATOM      9  H   UNL     1      33.988 -20.303 -19.622  0.00  0.00    +0.150 HD
BRANCH   7  10
ATOM     10  CA  UNL     1      35.443 -19.731 -21.021  0.00  0.00    +0.172 C 
BRANCH  10  12
ATOM     11  OXT UNL     1      35.543 -17.401 -20.323  0.00  0.00    -0.248 OA
ATOM     12  C   UNL     1      36.098 -18.481 -20.471  0.00  0.00    +0.332 C 
BRANCH  12  13
ATOM     13  O   UNL     1      37.391 -18.701 -20.115  0.00  0.00    -0.479 OA
ATOM     14  H   UNL     1      37.623 -18.768 -19.210  0.00  0.00    +0.295 HD
ENDBRANCH  12  13
ENDBRANCH  10  12
BRANCH  10  15
ATOM     15  CB  UNL     1      34.387 -19.454 -22.097  0.00  0.00    +0.043 C 
BRANCH  15  16
ATOM     16  CG  UNL     1      34.926 -19.130 -23.497  0.00  0.00    +0.112 C 
BRANCH  16  18
ATOM     17  OE2 UNL     1      33.709 -17.490 -24.826  0.00  0.00    -0.250 OA
ATOM     18  CD  UNL     1      34.560 -17.746 -23.985  0.00  0.00    +0.314 C 
BRANCH  18  19
ATOM     19  OE1 UNL     1      35.329 -16.789 -23.401  0.00  0.00    -0.480 OA
ATOM     20  HE1 UNL     1      35.847 -17.000 -22.649  0.00  0.00    +0.295 HD
ENDBRANCH  18  19
ENDBRANCH  16  18
ENDBRANCH  15  16
ENDBRANCH  10  15
ENDBRANCH   7  10
ENDBRANCH   3   8
BRANCH   2  21
ATOM     21  N   UNL     1      34.559 -23.413 -14.531  0.00  0.00    -0.297 N 
ATOM     22  C   UNL     1      33.338 -23.817 -13.831  0.00  0.00    +0.113 C 
BRANCH  21  23
ATOM     23  C   UNL     1      35.796 -23.466 -13.782  0.00  0.00    +0.118 C 
BRANCH  23  27
ATOM     24  O   UNL     1      40.816 -24.623 -13.921  0.00  0.00    -0.209 OA
ATOM     25  N   UNL     1      39.002 -27.867 -15.425  0.00  0.00    -0.290 N 
ATOM     26  N   UNL     1      41.003 -26.731 -14.803  0.00  0.00    -0.322 NA
ATOM     27  C   UNL     1      36.633 -24.622 -14.215  0.00  0.00    -0.002 C 
ATOM     28  C   UNL     1      38.796 -25.651 -14.500  0.00  0.00    +0.108 C 
ATOM     29  C   UNL     1      38.022 -24.562 -14.092  0.00  0.00    +0.011 C 
ATOM     30  C   UNL     1      38.192 -26.800 -15.030  0.00  0.00    +0.062 C 
ATOM     31  C   UNL     1      36.024 -25.763 -14.741  0.00  0.00    -0.001 C 
ATOM     32  C   UNL     1      36.801 -26.849 -15.148  0.00  0.00    +0.015 C 
ATOM     33  C   UNL     1      40.281 -25.626 -14.385  0.00  0.00    +0.207 C 
ATOM     34  C   UNL     1      40.365 -27.757 -15.285  0.00  0.00    +0.174 C 
ATOM     35  C   UNL     1      41.185 -28.944 -15.731  0.00  0.00    +0.085 C 
ATOM     36  H   UNL     1      38.602 -28.685 -15.799  0.00  0.00    +0.154 HD
ENDBRANCH  23  27
ENDBRANCH  21  23
ENDBRANCH   2  21
TORSDOF 11
ENDMDL
