MODEL 1
REMARK VINA RESULT:     -11.3      0.000      0.000
REMARK  Name = 4470378
REMARK  6 active torsions:
REMARK  status: ('A' for Active; 'I' for Inactive)
REMARK    1  A    between atoms: C_5  and  O_10
REMARK    2  A    between atoms: C_6  and  O_24
REMARK    3  A    between atoms: O_10  and  C_11
REMARK    4  A    between atoms: C_12  and  C_19
REMARK    5  A    between atoms: O_24  and  C_25
REMARK    6  A    between atoms: C_26  and  C_33
REMARK                            x       y       z     vdW  Elec       q    Type
REMARK                         _______ _______ _______ _____ _____    ______ ____
ROOT
ATOM      1  F   UNL     1      31.631 -11.946 -21.666  0.00  0.00    -0.221 F 
ATOM      2  F   UNL     1      34.390 -15.574 -20.317  0.00  0.00    -0.199 F 
ATOM      3  N   UNL     1      34.207 -13.768 -23.458  0.00  0.00    -0.331 NA
ATOM      4  C   UNL     1      32.987 -13.760 -20.943  0.00  0.00    +0.031 C 
ATOM      5  C   UNL     1      33.229 -12.889 -23.143  0.00  0.00    +0.298 C 
ATOM      6  C   UNL     1      34.551 -14.633 -22.488  0.00  0.00    +0.312 C 
ATOM      7  C   UNL     1      32.594 -12.843 -21.912  0.00  0.00    +0.270 C 
ATOM      8  C   UNL     1      33.990 -14.681 -21.230  0.00  0.00    +0.201 C 
ATOM      9  C   UNL     1      32.336 -13.757 -19.602  0.00  0.00    +0.032 C 
ENDROOT
BRANCH   5  10
ATOM     10  O   UNL     1      32.859 -11.997 -24.115  0.00  0.00    -0.428 OA
BRANCH  10  11
ATOM     11  C   UNL     1      33.556 -10.809 -24.185  0.00  0.00    +0.148 C 
ATOM     12  C   UNL     1      33.909  -8.563 -23.418  0.00  0.00    +0.032 C 
ATOM     13  C   UNL     1      33.204  -9.765 -23.345  0.00  0.00    +0.040 C 
ATOM     14  C   UNL     1      34.594 -10.685 -25.094  0.00  0.00    +0.038 C 
ATOM     15  C   UNL     1      34.957  -8.422 -24.328  0.00  0.00    +0.003 C 
ATOM     16  C   UNL     1      35.299  -9.483 -25.167  0.00  0.00    +0.003 C 
BRANCH  12  19
ATOM     17  N   UNL     1      32.954  -7.694 -21.369  0.00  0.00    -0.387 N 
ATOM     18  N   UNL     1      33.818  -6.196 -22.911  0.00  0.00    -0.345 N 
ATOM     19  C   UNL     1      33.554  -7.463 -22.549  0.00  0.00    +0.096 C 
ATOM     20  H   UNL     1      32.715  -6.940 -20.783  0.00  0.00    +0.157 HD
ATOM     21  H   UNL     1      32.753  -8.617 -21.090  0.00  0.00    +0.157 HD
ATOM     22  H   UNL     1      33.572  -5.453 -22.314  0.00  0.00    +0.144 HD
ATOM     23  H   UNL     1      34.256  -6.012 -23.773  0.00  0.00    +0.144 HD
ENDBRANCH  12  19
ENDBRANCH  10  11
ENDBRANCH   5  10
BRANCH   6  24
ATOM     24  O   UNL     1      35.551 -15.540 -22.800  0.00  0.00    -0.426 OA
BRANCH  24  25
ATOM     25  C   UNL     1      35.228 -16.862 -22.800  0.00  0.00    +0.148 C 
ATOM     26  C   UNL     1      35.231 -19.016 -21.705  0.00  0.00    +0.034 C 
ATOM     27  C   UNL     1      35.560 -17.660 -21.705  0.00  0.00    +0.040 C 
ATOM     28  C   UNL     1      34.567 -17.419 -23.894  0.00  0.00    +0.038 C 
ATOM     29  C   UNL     1      34.570 -19.573 -22.799  0.00  0.00    +0.003 C 
ATOM     30  C   UNL     1      34.237 -18.774 -23.894  0.00  0.00    +0.003 C 
BRANCH  26  33
ATOM     31  N   UNL     1      34.673 -20.770 -20.038  0.00  0.00    -0.343 N 
ATOM     32  N   UNL     1      36.767 -19.733 -20.001  0.00  0.00    -0.285 NA
ATOM     33  C   UNL     1      35.577 -19.848 -20.563  0.00  0.00    +0.117 C 
ATOM     34  H   UNL     1      34.928 -21.323 -19.265  0.00  0.00    +0.144 HD
ATOM     35  H   UNL     1      33.780 -20.869 -20.441  0.00  0.00    +0.144 HD
ATOM     36  H   UNL     1      37.003 -20.296 -19.229  0.00  0.00    +0.188 HD
ENDBRANCH  26  33
ENDBRANCH  24  25
ENDBRANCH   6  24
TORSDOF 6
ENDMDL
MODEL 2
REMARK VINA RESULT:     -11.3      0.251      8.649
REMARK  Name = 4470378
REMARK  6 active torsions:
REMARK  status: ('A' for Active; 'I' for Inactive)
REMARK    1  A    between atoms: C_5  and  O_10
REMARK    2  A    between atoms: C_6  and  O_24
REMARK    3  A    between atoms: O_10  and  C_11
REMARK    4  A    between atoms: C_12  and  C_19
REMARK    5  A    between atoms: O_24  and  C_25
REMARK    6  A    between atoms: C_26  and  C_33
REMARK                            x       y       z     vdW  Elec       q    Type
REMARK                         _______ _______ _______ _____ _____    ______ ____
ROOT
ATOM      1  F   UNL     1      34.368 -15.568 -20.394  0.00  0.00    -0.221 F 
ATOM      2  F   UNL     1      31.605 -11.870 -21.527  0.00  0.00    -0.199 F 
ATOM      3  N   UNL     1      34.163 -13.597 -23.433  0.00  0.00    -0.331 NA
ATOM      4  C   UNL     1      32.963 -13.721 -20.911  0.00  0.00    +0.031 C 
ATOM      5  C   UNL     1      34.525 -14.523 -22.516  0.00  0.00    +0.298 C 
ATOM      6  C   UNL     1      33.194 -12.745 -23.054  0.00  0.00    +0.312 C 
ATOM      7  C   UNL     1      33.962 -14.626 -21.254  0.00  0.00    +0.270 C 
ATOM      8  C   UNL     1      32.564 -12.754 -21.828  0.00  0.00    +0.201 C 
ATOM      9  C   UNL     1      32.324 -13.786 -19.566  0.00  0.00    +0.032 C 
ENDROOT
BRANCH   5  10
ATOM     10  O   UNL     1      35.511 -15.402 -22.877  0.00  0.00    -0.428 OA
BRANCH  10  11
ATOM     11  C   UNL     1      35.191 -16.744 -22.893  0.00  0.00    +0.148 C 
ATOM     12  C   UNL     1      35.196 -18.890 -21.820  0.00  0.00    +0.032 C 
ATOM     13  C   UNL     1      35.519 -17.532 -21.803  0.00  0.00    +0.040 C 
ATOM     14  C   UNL     1      34.549 -17.274 -24.000  0.00  0.00    +0.038 C 
ATOM     15  C   UNL     1      34.549 -19.439 -22.927  0.00  0.00    +0.003 C 
ATOM     16  C   UNL     1      34.226 -18.631 -24.018  0.00  0.00    +0.003 C 
BRANCH  12  19
ATOM     17  N   UNL     1      34.632 -20.594 -20.194  0.00  0.00    -0.387 N 
ATOM     18  N   UNL     1      36.745 -19.647 -20.119  0.00  0.00    -0.345 N 
ATOM     19  C   UNL     1      35.531 -19.727 -20.690  0.00  0.00    +0.096 C 
ATOM     20  H   UNL     1      34.868 -21.160 -19.424  0.00  0.00    +0.157 HD
ATOM     21  H   UNL     1      33.738 -20.663 -20.601  0.00  0.00    +0.157 HD
ATOM     22  H   UNL     1      36.965 -20.220 -19.349  0.00  0.00    +0.144 HD
ATOM     23  H   UNL     1      37.414 -19.015 -20.470  0.00  0.00    +0.144 HD
ENDBRANCH  12  19
ENDBRANCH  10  11
ENDBRANCH   5  10
BRANCH   6  24
ATOM     24  O   UNL     1      32.817 -11.791 -23.984  0.00  0.00    -0.426 OA
BRANCH  24  25
ATOM     25  C   UNL     1      33.502 -10.616 -23.998  0.00  0.00    +0.148 C 
ATOM     26  C   UNL     1      33.809  -8.362 -23.181  0.00  0.00    +0.034 C 
ATOM     27  C   UNL     1      33.107  -9.568 -23.166  0.00  0.00    +0.040 C 
ATOM     28  C   UNL     1      34.598 -10.457 -24.846  0.00  0.00    +0.038 C 
ATOM     29  C   UNL     1      34.905  -8.204 -24.029  0.00  0.00    +0.003 C 
ATOM     30  C   UNL     1      35.299  -9.251 -24.862  0.00  0.00    +0.003 C 
BRANCH  26  33
ATOM     31  N   UNL     1      33.091  -7.488 -20.971  0.00  0.00    -0.343 N 
ATOM     32  N   UNL     1      33.301  -6.045 -22.797  0.00  0.00    -0.285 NA
ATOM     33  C   UNL     1      33.396  -7.270 -22.313  0.00  0.00    +0.117 C 
ATOM     34  H   UNL     1      32.814  -6.735 -20.401  0.00  0.00    +0.144 HD
ATOM     35  H   UNL     1      33.153  -8.395 -20.592  0.00  0.00    +0.144 HD
ATOM     36  H   UNL     1      33.022  -5.305 -22.211  0.00  0.00    +0.188 HD
ENDBRANCH  26  33
ENDBRANCH  24  25
ENDBRANCH   6  24
TORSDOF 6
ENDMDL
MODEL 3
REMARK VINA RESULT:     -11.2      8.113     11.675
REMARK  Name = 4470378
REMARK  6 active torsions:
REMARK  status: ('A' for Active; 'I' for Inactive)
REMARK    1  A    between atoms: C_5  and  O_10
REMARK    2  A    between atoms: C_6  and  O_24
REMARK    3  A    between atoms: O_10  and  C_11
REMARK    4  A    between atoms: C_12  and  C_19
REMARK    5  A    between atoms: O_24  and  C_25
REMARK    6  A    between atoms: C_26  and  C_33
REMARK                            x       y       z     vdW  Elec       q    Type
REMARK                         _______ _______ _______ _____ _____    ______ ____
ROOT
ATOM      1  F   UNL     1      32.300 -23.561 -17.254  0.00  0.00    -0.221 F 
ATOM      2  F   UNL     1      34.547 -22.970 -13.107  0.00  0.00    -0.199 F 
ATOM      3  N   UNL     1      35.783 -22.861 -16.516  0.00  0.00    -0.331 NA
ATOM      4  C   UNL     1      33.377 -23.274 -15.154  0.00  0.00    +0.031 C 
ATOM      5  C   UNL     1      34.626 -23.109 -17.171  0.00  0.00    +0.298 C 
ATOM      6  C   UNL     1      35.700 -22.827 -15.174  0.00  0.00    +0.312 C 
ATOM      7  C   UNL     1      33.409 -23.320 -16.544  0.00  0.00    +0.270 C 
ATOM      8  C   UNL     1      34.547 -23.022 -14.445  0.00  0.00    +0.201 C 
ATOM      9  C   UNL     1      32.094 -23.495 -14.427  0.00  0.00    +0.032 C 
ENDROOT
BRANCH   5  10
ATOM     10  O   UNL     1      34.685 -23.150 -18.539  0.00  0.00    -0.428 OA
BRANCH  10  11
ATOM     11  C   UNL     1      34.483 -21.967 -19.219  0.00  0.00    +0.148 C 
ATOM     12  C   UNL     1      35.373 -20.009 -20.284  0.00  0.00    +0.032 C 
ATOM     13  C   UNL     1      35.578 -21.207 -19.597  0.00  0.00    +0.040 C 
ATOM     14  C   UNL     1      33.190 -21.564 -19.510  0.00  0.00    +0.038 C 
ATOM     15  C   UNL     1      34.077 -19.590 -20.584  0.00  0.00    +0.003 C 
ATOM     16  C   UNL     1      32.985 -20.367 -20.196  0.00  0.00    +0.003 C 
BRANCH  12  19
ATOM     17  N   UNL     1      37.489 -18.928 -19.813  0.00  0.00    -0.387 N 
ATOM     18  N   UNL     1      36.585 -18.718 -21.936  0.00  0.00    -0.345 N 
ATOM     19  C   UNL     1      36.504 -19.204 -20.686  0.00  0.00    +0.096 C 
ATOM     20  H   UNL     1      38.256 -18.379 -20.094  0.00  0.00    +0.157 HD
ATOM     21  H   UNL     1      37.443 -19.277 -18.893  0.00  0.00    +0.157 HD
ATOM     22  H   UNL     1      37.358 -18.169 -22.201  0.00  0.00    +0.144 HD
ATOM     23  H   UNL     1      35.871 -18.909 -22.586  0.00  0.00    +0.144 HD
ENDBRANCH  12  19
ENDBRANCH  10  11
ENDBRANCH   5  10
BRANCH   6  24
ATOM     24  O   UNL     1      36.879 -22.576 -14.493  0.00  0.00    -0.426 OA
BRANCH  24  25
ATOM     25  C   UNL     1      37.469 -23.617 -13.845  0.00  0.00    +0.148 C 
ATOM     26  C   UNL     1      38.840 -25.606 -13.895  0.00  0.00    +0.034 C 
ATOM     27  C   UNL     1      38.236 -24.538 -14.559  0.00  0.00    +0.040 C 
ATOM     28  C   UNL     1      37.305 -23.765 -12.468  0.00  0.00    +0.038 C 
ATOM     29  C   UNL     1      38.676 -25.754 -12.518  0.00  0.00    +0.003 C 
ATOM     30  C   UNL     1      37.909 -24.833 -11.804  0.00  0.00    +0.003 C 
BRANCH  26  33
ATOM     31  N   UNL     1      39.093 -27.307 -15.686  0.00  0.00    -0.343 N 
ATOM     32  N   UNL     1      40.908 -26.753 -14.323  0.00  0.00    -0.285 NA
ATOM     33  C   UNL     1      39.640 -26.567 -14.640  0.00  0.00    +0.117 C 
ATOM     34  H   UNL     1      39.652 -27.952 -16.177  0.00  0.00    +0.144 HD
ATOM     35  H   UNL     1      38.148 -27.186 -15.936  0.00  0.00    +0.144 HD
ATOM     36  H   UNL     1      41.450 -27.402 -14.826  0.00  0.00    +0.188 HD
ENDBRANCH  26  33
ENDBRANCH  24  25
ENDBRANCH   6  24
TORSDOF 6
ENDMDL
MODEL 4
REMARK VINA RESULT:     -11.1     10.250     13.133
REMARK  Name = 4470378
REMARK  6 active torsions:
REMARK  status: ('A' for Active; 'I' for Inactive)
REMARK    1  A    between atoms: C_5  and  O_10
REMARK    2  A    between atoms: C_6  and  O_24
REMARK    3  A    between atoms: O_10  and  C_11
REMARK    4  A    between atoms: C_12  and  C_19
REMARK    5  A    between atoms: O_24  and  C_25
REMARK    6  A    between atoms: C_26  and  C_33
REMARK                            x       y       z     vdW  Elec       q    Type
REMARK                         _______ _______ _______ _____ _____    ______ ____
ROOT
ATOM      1  F   UNL     1      34.039 -22.465 -19.166  0.00  0.00    -0.221 F 
ATOM      2  F   UNL     1      37.968 -21.152 -16.835  0.00  0.00    -0.199 F 
ATOM      3  N   UNL     1      35.176 -23.227 -15.806  0.00  0.00    -0.331 NA
ATOM      4  C   UNL     1      36.020 -21.780 -18.044  0.00  0.00    +0.031 C 
ATOM      5  C   UNL     1      34.442 -23.176 -16.940  0.00  0.00    +0.298 C 
ATOM      6  C   UNL     1      36.332 -22.540 -15.825  0.00  0.00    +0.312 C 
ATOM      7  C   UNL     1      34.815 -22.474 -18.075  0.00  0.00    +0.270 C 
ATOM      8  C   UNL     1      36.803 -21.809 -16.894  0.00  0.00    +0.201 C 
ATOM      9  C   UNL     1      36.470 -21.007 -19.236  0.00  0.00    +0.032 C 
ENDROOT
BRANCH   5  10
ATOM     10  O   UNL     1      33.259 -23.867 -16.945  0.00  0.00    -0.428 OA
BRANCH  10  11
ATOM     11  C   UNL     1      32.316 -23.518 -16.001  0.00  0.00    +0.148 C 
ATOM     12  C   UNL     1      30.039 -23.020 -15.429  0.00  0.00    +0.032 C 
ATOM     13  C   UNL     1      30.993 -23.374 -16.384  0.00  0.00    +0.040 C 
ATOM     14  C   UNL     1      32.713 -23.318 -14.689  0.00  0.00    +0.038 C 
ATOM     15  C   UNL     1      30.423 -22.816 -14.103  0.00  0.00    +0.003 C 
ATOM     16  C   UNL     1      31.760 -22.964 -13.733  0.00  0.00    +0.003 C 
BRANCH  12  19
ATOM     17  N   UNL     1      27.755 -22.382 -14.938  0.00  0.00    -0.387 N 
ATOM     18  N   UNL     1      28.247 -23.208 -17.046  0.00  0.00    -0.345 N 
ATOM     19  C   UNL     1      28.654 -22.866 -15.812  0.00  0.00    +0.096 C 
ATOM     20  H   UNL     1      26.813 -22.280 -15.207  0.00  0.00    +0.157 HD
ATOM     21  H   UNL     1      28.038 -22.128 -14.030  0.00  0.00    +0.157 HD
ATOM     22  H   UNL     1      27.301 -23.101 -17.300  0.00  0.00    +0.144 HD
ATOM     23  H   UNL     1      28.893 -23.566 -17.697  0.00  0.00    +0.144 HD
ENDBRANCH  12  19
ENDBRANCH  10  11
ENDBRANCH   5  10
BRANCH   6  24
ATOM     24  O   UNL     1      37.092 -22.584 -14.668  0.00  0.00    -0.426 OA
BRANCH  24  25
ATOM     25  C   UNL     1      37.397 -23.808 -14.158  0.00  0.00    +0.148 C 
ATOM     26  C   UNL     1      38.805 -25.771 -14.129  0.00  0.00    +0.034 C 
ATOM     27  C   UNL     1      38.494 -24.516 -14.651  0.00  0.00    +0.040 C 
ATOM     28  C   UNL     1      36.611 -24.357 -13.145  0.00  0.00    +0.038 C 
ATOM     29  C   UNL     1      38.020 -26.320 -13.116  0.00  0.00    +0.003 C 
ATOM     30  C   UNL     1      36.923 -25.612 -12.623  0.00  0.00    +0.003 C 
BRANCH  26  33
ATOM     31  N   UNL     1      39.926 -27.090 -15.909  0.00  0.00    -0.343 N 
ATOM     32  N   UNL     1      41.034 -26.642 -13.901  0.00  0.00    -0.285 NA
ATOM     33  C   UNL     1      39.949 -26.509 -14.643  0.00  0.00    +0.117 C 
ATOM     34  H   UNL     1      40.711 -27.585 -16.238  0.00  0.00    +0.144 HD
ATOM     35  H   UNL     1      39.125 -27.006 -16.477  0.00  0.00    +0.144 HD
ATOM     36  H   UNL     1      41.808 -27.140 -14.248  0.00  0.00    +0.188 HD
ENDBRANCH  26  33
ENDBRANCH  24  25
ENDBRANCH   6  24
TORSDOF 6
ENDMDL
MODEL 5
REMARK VINA RESULT:     -11.1     10.168     14.128
REMARK  Name = 4470378
REMARK  6 active torsions:
REMARK  status: ('A' for Active; 'I' for Inactive)
REMARK    1  A    between atoms: C_5  and  O_10
REMARK    2  A    between atoms: C_6  and  O_24
REMARK    3  A    between atoms: O_10  and  C_11
REMARK    4  A    between atoms: C_12  and  C_19
REMARK    5  A    between atoms: O_24  and  C_25
REMARK    6  A    between atoms: C_26  and  C_33
REMARK                            x       y       z     vdW  Elec       q    Type
REMARK                         _______ _______ _______ _____ _____    ______ ____
ROOT
ATOM      1  F   UNL     1      38.051 -20.975 -16.919  0.00  0.00    -0.221 F 
ATOM      2  F   UNL     1      34.144 -22.433 -19.198  0.00  0.00    -0.199 F 
ATOM      3  N   UNL     1      35.337 -23.130 -15.844  0.00  0.00    -0.331 NA
ATOM      4  C   UNL     1      36.112 -21.677 -18.103  0.00  0.00    +0.031 C 
ATOM      5  C   UNL     1      36.480 -22.406 -15.869  0.00  0.00    +0.298 C 
ATOM      6  C   UNL     1      34.604 -23.104 -16.971  0.00  0.00    +0.312 C 
ATOM      7  C   UNL     1      36.908 -21.670 -16.962  0.00  0.00    +0.270 C 
ATOM      8  C   UNL     1      34.930 -22.409 -18.115  0.00  0.00    +0.201 C 
ATOM      9  C   UNL     1      36.526 -20.903 -19.308  0.00  0.00    +0.032 C 
ENDROOT
BRANCH   5  10
ATOM     10  O   UNL     1      37.246 -22.417 -14.734  0.00  0.00    -0.428 OA
BRANCH  10  11
ATOM     11  C   UNL     1      37.471 -23.638 -14.131  0.00  0.00    +0.148 C 
ATOM     12  C   UNL     1      38.627 -25.740 -14.074  0.00  0.00    +0.032 C 
ATOM     13  C   UNL     1      38.400 -24.505 -14.683  0.00  0.00    +0.040 C 
ATOM     14  C   UNL     1      36.764 -23.970 -12.988  0.00  0.00    +0.038 C 
ATOM     15  C   UNL     1      37.922 -26.089 -12.922  0.00  0.00    +0.003 C 
ATOM     16  C   UNL     1      36.990 -25.205 -12.379  0.00  0.00    +0.003 C 
BRANCH  12  19
ATOM     17  N   UNL     1      39.340 -27.283 -15.799  0.00  0.00    -0.387 N 
ATOM     18  N   UNL     1      40.753 -26.897 -14.004  0.00  0.00    -0.345 N 
ATOM     19  C   UNL     1      39.592 -26.657 -14.637  0.00  0.00    +0.096 C 
ATOM     20  H   UNL     1      40.002 -27.906 -16.176  0.00  0.00    +0.157 HD
ATOM     21  H   UNL     1      38.493 -27.118 -16.274  0.00  0.00    +0.157 HD
ATOM     22  H   UNL     1      41.405 -27.524 -14.394  0.00  0.00    +0.144 HD
ATOM     23  H   UNL     1      40.951 -26.448 -13.151  0.00  0.00    +0.144 HD
ENDBRANCH  12  19
ENDBRANCH  10  11
ENDBRANCH   5  10
BRANCH   6  24
ATOM     24  O   UNL     1      33.432 -23.843 -16.957  0.00  0.00    -0.426 OA
BRANCH  24  25
ATOM     25  C   UNL     1      32.499 -23.531 -16.018  0.00  0.00    +0.148 C 
ATOM     26  C   UNL     1      30.212 -23.016 -15.430  0.00  0.00    +0.034 C 
ATOM     27  C   UNL     1      31.169 -23.337 -16.393  0.00  0.00    +0.040 C 
ATOM     28  C   UNL     1      32.872 -23.403 -14.680  0.00  0.00    +0.038 C 
ATOM     29  C   UNL     1      30.585 -22.888 -14.092  0.00  0.00    +0.003 C 
ATOM     30  C   UNL     1      31.915 -23.081 -13.717  0.00  0.00    +0.003 C 
BRANCH  26  33
ATOM     31  N   UNL     1      28.330 -23.327 -17.019  0.00  0.00    -0.343 N 
ATOM     32  N   UNL     1      28.014 -22.129 -15.037  0.00  0.00    -0.285 NA
ATOM     33  C   UNL     1      28.826 -22.815 -15.821  0.00  0.00    +0.117 C 
ATOM     34  H   UNL     1      27.388 -23.178 -17.265  0.00  0.00    +0.144 HD
ATOM     35  H   UNL     1      28.920 -23.838 -17.619  0.00  0.00    +0.144 HD
ATOM     36  H   UNL     1      27.075 -21.992 -15.301  0.00  0.00    +0.188 HD
ENDBRANCH  26  33
ENDBRANCH  24  25
ENDBRANCH   6  24
TORSDOF 6
ENDMDL
MODEL 6
REMARK VINA RESULT:     -11.1      8.104     13.525
REMARK  Name = 4470378
REMARK  6 active torsions:
REMARK  status: ('A' for Active; 'I' for Inactive)
REMARK    1  A    between atoms: C_5  and  O_10
REMARK    2  A    between atoms: C_6  and  O_24
REMARK    3  A    between atoms: O_10  and  C_11
REMARK    4  A    between atoms: C_12  and  C_19
REMARK    5  A    between atoms: O_24  and  C_25
REMARK    6  A    between atoms: C_26  and  C_33
REMARK                            x       y       z     vdW  Elec       q    Type
REMARK                         _______ _______ _______ _____ _____    ______ ____
ROOT
ATOM      1  F   UNL     1      34.400 -22.977 -13.093  0.00  0.00    -0.221 F 
ATOM      2  F   UNL     1      32.285 -23.601 -17.303  0.00  0.00    -0.199 F 
ATOM      3  N   UNL     1      35.730 -22.835 -16.466  0.00  0.00    -0.331 NA
ATOM      4  C   UNL     1      33.295 -23.297 -15.174  0.00  0.00    +0.031 C 
ATOM      5  C   UNL     1      35.621 -22.802 -15.119  0.00  0.00    +0.298 C 
ATOM      6  C   UNL     1      34.597 -23.103 -17.139  0.00  0.00    +0.312 C 
ATOM      7  C   UNL     1      34.439 -23.025 -14.431  0.00  0.00    +0.270 C 
ATOM      8  C   UNL     1      33.368 -23.340 -16.562  0.00  0.00    +0.201 C 
ATOM      9  C   UNL     1      31.996 -23.543 -14.485  0.00  0.00    +0.032 C 
ENDROOT
BRANCH   5  10
ATOM     10  O   UNL     1      36.761 -22.530 -14.410  0.00  0.00    -0.428 OA
BRANCH  10  11
ATOM     11  C   UNL     1      37.374 -23.584 -13.764  0.00  0.00    +0.148 C 
ATOM     12  C   UNL     1      38.658 -25.609 -13.857  0.00  0.00    +0.032 C 
ATOM     13  C   UNL     1      38.039 -24.543 -14.511  0.00  0.00    +0.040 C 
ATOM     14  C   UNL     1      37.311 -23.661 -12.382  0.00  0.00    +0.038 C 
ATOM     15  C   UNL     1      38.604 -25.701 -12.467  0.00  0.00    +0.003 C 
ATOM     16  C   UNL     1      37.930 -24.727 -11.729  0.00  0.00    +0.003 C 
BRANCH  12  19
ATOM     17  N   UNL     1      38.749 -27.234 -15.651  0.00  0.00    -0.387 N 
ATOM     18  N   UNL     1      40.618 -26.957 -14.311  0.00  0.00    -0.345 N 
ATOM     19  C   UNL     1      39.355 -26.619 -14.621  0.00  0.00    +0.096 C 
ATOM     20  H   UNL     1      39.231 -27.921 -16.167  0.00  0.00    +0.157 HD
ATOM     21  H   UNL     1      37.823 -26.998 -15.890  0.00  0.00    +0.157 HD
ATOM     22  H   UNL     1      41.087 -27.646 -14.836  0.00  0.00    +0.144 HD
ATOM     23  H   UNL     1      41.075 -26.516 -13.559  0.00  0.00    +0.144 HD
ENDBRANCH  12  19
ENDBRANCH  10  11
ENDBRANCH   5  10
BRANCH   6  24
ATOM     24  O   UNL     1      34.697 -23.137 -18.520  0.00  0.00    -0.426 OA
BRANCH  24  25
ATOM     25  C   UNL     1      34.498 -21.974 -19.197  0.00  0.00    +0.148 C 
ATOM     26  C   UNL     1      35.387 -20.002 -20.275  0.00  0.00    +0.034 C 
ATOM     27  C   UNL     1      35.590 -21.195 -19.582  0.00  0.00    +0.040 C 
ATOM     28  C   UNL     1      33.203 -21.558 -19.506  0.00  0.00    +0.038 C 
ATOM     29  C   UNL     1      34.091 -19.586 -20.583  0.00  0.00    +0.003 C 
ATOM     30  C   UNL     1      32.999 -20.365 -20.199  0.00  0.00    +0.003 C 
BRANCH  26  33
ATOM     31  N   UNL     1      36.609 -18.641 -21.953  0.00  0.00    -0.343 N 
ATOM     32  N   UNL     1      37.508 -18.966 -19.821  0.00  0.00    -0.285 NA
ATOM     33  C   UNL     1      36.525 -19.190 -20.675  0.00  0.00    +0.117 C 
ATOM     34  H   UNL     1      37.389 -18.094 -22.204  0.00  0.00    +0.144 HD
ATOM     35  H   UNL     1      35.889 -18.798 -22.606  0.00  0.00    +0.144 HD
ATOM     36  H   UNL     1      38.279 -18.417 -20.091  0.00  0.00    +0.188 HD
ENDBRANCH  26  33
ENDBRANCH  24  25
ENDBRANCH   6  24
TORSDOF 6
ENDMDL
MODEL 7
REMARK VINA RESULT:     -10.9      9.836     13.606
REMARK  Name = 4470378
REMARK  6 active torsions:
REMARK  status: ('A' for Active; 'I' for Inactive)
REMARK    1  A    between atoms: C_5  and  O_10
REMARK    2  A    between atoms: C_6  and  O_24
REMARK    3  A    between atoms: O_10  and  C_11
REMARK    4  A    between atoms: C_12  and  C_19
REMARK    5  A    between atoms: O_24  and  C_25
REMARK    6  A    between atoms: C_26  and  C_33
REMARK                            x       y       z     vdW  Elec       q    Type
REMARK                         _______ _______ _______ _____ _____    ______ ____
ROOT
ATOM      1  F   UNL     1      37.576 -20.679 -17.892  0.00  0.00    -0.221 F 
ATOM      2  F   UNL     1      33.441 -22.614 -19.214  0.00  0.00    -0.199 F 
ATOM      3  N   UNL     1      35.437 -23.086 -16.221  0.00  0.00    -0.331 NA
ATOM      4  C   UNL     1      35.510 -21.619 -18.600  0.00  0.00    +0.031 C 
ATOM      5  C   UNL     1      36.455 -22.244 -16.508  0.00  0.00    +0.298 C 
ATOM      6  C   UNL     1      34.468 -23.171 -17.150  0.00  0.00    +0.312 C 
ATOM      7  C   UNL     1      36.538 -21.495 -17.671  0.00  0.00    +0.270 C 
ATOM      8  C   UNL     1      34.445 -22.475 -18.340  0.00  0.00    +0.201 C 
ATOM      9  C   UNL     1      35.549 -20.837 -19.869  0.00  0.00    +0.032 C 
ENDROOT
BRANCH   5  10
ATOM     10  O   UNL     1      37.456 -22.141 -15.579  0.00  0.00    -0.428 OA
BRANCH  10  11
ATOM     11  C   UNL     1      37.638 -23.207 -14.721  0.00  0.00    +0.148 C 
ATOM     12  C   UNL     1      37.119 -24.325 -12.663  0.00  0.00    +0.032 C 
ATOM     13  C   UNL     1      36.933 -23.247 -13.530  0.00  0.00    +0.040 C 
ATOM     14  C   UNL     1      38.523 -24.214 -15.071  0.00  0.00    +0.038 C 
ATOM     15  C   UNL     1      38.006 -25.347 -13.000  0.00  0.00    +0.003 C 
ATOM     16  C   UNL     1      38.708 -25.291 -14.204  0.00  0.00    +0.003 C 
BRANCH  12  19
ATOM     17  N   UNL     1      35.165 -24.932 -11.366  0.00  0.00    -0.387 N 
ATOM     18  N   UNL     1      36.929 -23.885 -10.289  0.00  0.00    -0.345 N 
ATOM     19  C   UNL     1      36.391 -24.382 -11.415  0.00  0.00    +0.096 C 
ATOM     20  H   UNL     1      34.676 -24.967 -10.512  0.00  0.00    +0.157 HD
ATOM     21  H   UNL     1      34.757 -25.300 -12.183  0.00  0.00    +0.157 HD
ATOM     22  H   UNL     1      36.426 -23.927  -9.443  0.00  0.00    +0.144 HD
ATOM     23  H   UNL     1      37.825 -23.478 -10.309  0.00  0.00    +0.144 HD
ENDBRANCH  12  19
ENDBRANCH  10  11
ENDBRANCH   5  10
BRANCH   6  24
ATOM     24  O   UNL     1      33.421 -24.032 -16.868  0.00  0.00    -0.426 OA
BRANCH  24  25
ATOM     25  C   UNL     1      32.495 -23.624 -15.958  0.00  0.00    +0.148 C 
ATOM     26  C   UNL     1      30.222 -23.006 -15.419  0.00  0.00    +0.034 C 
ATOM     27  C   UNL     1      31.171 -23.426 -16.351  0.00  0.00    +0.040 C 
ATOM     28  C   UNL     1      32.869 -23.402 -14.633  0.00  0.00    +0.038 C 
ATOM     29  C   UNL     1      30.596 -22.784 -14.094  0.00  0.00    +0.003 C 
ATOM     30  C   UNL     1      31.920 -22.983 -13.701  0.00  0.00    +0.003 C 
BRANCH  26  33
ATOM     31  N   UNL     1      28.348 -23.346 -17.012  0.00  0.00    -0.343 N 
ATOM     32  N   UNL     1      28.032 -22.076 -15.076  0.00  0.00    -0.285 NA
ATOM     33  C   UNL     1      28.841 -22.800 -15.829  0.00  0.00    +0.117 C 
ATOM     34  H   UNL     1      27.411 -23.194 -17.271  0.00  0.00    +0.144 HD
ATOM     35  H   UNL     1      28.936 -23.886 -17.589  0.00  0.00    +0.144 HD
ATOM     36  H   UNL     1      27.098 -21.935 -15.353  0.00  0.00    +0.188 HD
ENDBRANCH  26  33
ENDBRANCH  24  25
ENDBRANCH   6  24
TORSDOF 6
ENDMDL
MODEL 8
REMARK VINA RESULT:     -10.7      7.679     11.748
REMARK  Name = 4470378
REMARK  6 active torsions:
REMARK  status: ('A' for Active; 'I' for Inactive)
REMARK    1  A    between atoms: C_5  and  O_10
REMARK    2  A    between atoms: C_6  and  O_24
REMARK    3  A    between atoms: O_10  and  C_11
REMARK    4  A    between atoms: C_12  and  C_19
REMARK    5  A    between atoms: O_24  and  C_25
REMARK    6  A    between atoms: C_26  and  C_33
REMARK                            x       y       z     vdW  Elec       q    Type
REMARK                         _______ _______ _______ _____ _____    ______ ____
ROOT
ATOM      1  F   UNL     1      30.596 -22.027 -16.962  0.00  0.00    -0.221 F 
ATOM      2  F   UNL     1      32.655 -24.594 -13.532  0.00  0.00    -0.199 F 
ATOM      3  N   UNL     1      33.802 -23.722 -16.862  0.00  0.00    -0.331 NA
ATOM      4  C   UNL     1      31.582 -23.303 -15.215  0.00  0.00    +0.031 C 
ATOM      5  C   UNL     1      32.738 -22.995 -17.271  0.00  0.00    +0.298 C 
ATOM      6  C   UNL     1      33.722 -24.228 -15.618  0.00  0.00    +0.312 C 
ATOM      7  C   UNL     1      31.616 -22.757 -16.494  0.00  0.00    +0.270 C 
ATOM      8  C   UNL     1      32.658 -24.058 -14.759  0.00  0.00    +0.201 C 
ATOM      9  C   UNL     1      30.398 -23.081 -14.337  0.00  0.00    +0.032 C 
ENDROOT
BRANCH   5  10
ATOM     10  O   UNL     1      32.795 -22.469 -18.535  0.00  0.00    -0.428 OA
BRANCH  10  11
ATOM     11  C   UNL     1      33.961 -21.832 -18.906  0.00  0.00    +0.148 C 
ATOM     12  C   UNL     1      35.099 -20.218 -20.269  0.00  0.00    +0.032 C 
ATOM     13  C   UNL     1      33.919 -20.861 -19.893  0.00  0.00    +0.040 C 
ATOM     14  C   UNL     1      35.149 -22.177 -18.284  0.00  0.00    +0.038 C 
ATOM     15  C   UNL     1      36.303 -20.554 -19.651  0.00  0.00    +0.003 C 
ATOM     16  C   UNL     1      36.329 -21.535 -18.659  0.00  0.00    +0.003 C 
BRANCH  12  19
ATOM     17  N   UNL     1      35.657 -18.010 -21.092  0.00  0.00    -0.387 N 
ATOM     18  N   UNL     1      34.461 -19.437 -22.471  0.00  0.00    -0.345 N 
ATOM     19  C   UNL     1      35.073 -19.203 -21.297  0.00  0.00    +0.096 C 
ATOM     20  H   UNL     1      35.635 -17.323 -21.797  0.00  0.00    +0.157 HD
ATOM     21  H   UNL     1      36.108 -17.823 -20.237  0.00  0.00    +0.157 HD
ATOM     22  H   UNL     1      34.447 -18.740 -23.166  0.00  0.00    +0.144 HD
ATOM     23  H   UNL     1      34.027 -20.305 -22.635  0.00  0.00    +0.144 HD
ENDBRANCH  12  19
ENDBRANCH  10  11
ENDBRANCH   5  10
BRANCH   6  24
ATOM     24  O   UNL     1      34.805 -24.977 -15.190  0.00  0.00    -0.426 OA
BRANCH  24  25
ATOM     25  C   UNL     1      35.649 -24.408 -14.287  0.00  0.00    +0.148 C 
ATOM     26  C   UNL     1      36.341 -24.063 -11.997  0.00  0.00    +0.034 C 
ATOM     27  C   UNL     1      35.477 -24.647 -12.923  0.00  0.00    +0.040 C 
ATOM     28  C   UNL     1      36.686 -23.584 -14.724  0.00  0.00    +0.038 C 
ATOM     29  C   UNL     1      37.378 -23.238 -12.434  0.00  0.00    +0.003 C 
ATOM     30  C   UNL     1      37.551 -22.999 -13.798  0.00  0.00    +0.003 C 
BRANCH  26  33
ATOM     31  N   UNL     1      36.770 -23.507  -9.616  0.00  0.00    -0.343 N 
ATOM     32  N   UNL     1      35.410 -25.322 -10.174  0.00  0.00    -0.285 NA
ATOM     33  C   UNL     1      36.160 -24.312 -10.576  0.00  0.00    +0.117 C 
ATOM     34  H   UNL     1      36.635 -23.693  -8.659  0.00  0.00    +0.144 HD
ATOM     35  H   UNL     1      37.336 -22.750  -9.894  0.00  0.00    +0.144 HD
ATOM     36  H   UNL     1      35.287 -25.492  -9.213  0.00  0.00    +0.188 HD
ENDBRANCH  26  33
ENDBRANCH  24  25
ENDBRANCH   6  24
TORSDOF 6
ENDMDL
MODEL 9
REMARK VINA RESULT:     -10.7      7.846     11.563
REMARK  Name = 4470378
REMARK  6 active torsions:
REMARK  status: ('A' for Active; 'I' for Inactive)
REMARK    1  A    between atoms: C_5  and  O_10
REMARK    2  A    between atoms: C_6  and  O_24
REMARK    3  A    between atoms: O_10  and  C_11
REMARK    4  A    between atoms: C_12  and  C_19
REMARK    5  A    between atoms: O_24  and  C_25
REMARK    6  A    between atoms: C_26  and  C_33
REMARK                            x       y       z     vdW  Elec       q    Type
REMARK                         _______ _______ _______ _____ _____    ______ ____
ROOT
ATOM      1  F   UNL     1      30.830 -22.161 -16.915  0.00  0.00    -0.221 F 
ATOM      2  F   UNL     1      32.659 -24.260 -13.063  0.00  0.00    -0.199 F 
ATOM      3  N   UNL     1      33.957 -23.937 -16.435  0.00  0.00    -0.331 NA
ATOM      4  C   UNL     1      31.701 -23.197 -14.960  0.00  0.00    +0.031 C 
ATOM      5  C   UNL     1      32.940 -23.240 -16.990  0.00  0.00    +0.298 C 
ATOM      6  C   UNL     1      33.813 -24.249 -15.134  0.00  0.00    +0.312 C 
ATOM      7  C   UNL     1      31.802 -22.849 -16.303  0.00  0.00    +0.270 C 
ATOM      8  C   UNL     1      32.727 -23.913 -14.354  0.00  0.00    +0.201 C 
ATOM      9  C   UNL     1      30.497 -22.803 -14.174  0.00  0.00    +0.032 C 
ENDROOT
BRANCH   5  10
ATOM     10  O   UNL     1      33.063 -22.912 -18.314  0.00  0.00    -0.428 OA
BRANCH  10  11
ATOM     11  C   UNL     1      34.158 -22.158 -18.682  0.00  0.00    +0.148 C 
ATOM     12  C   UNL     1      35.116 -20.399 -20.004  0.00  0.00    +0.032 C 
ATOM     13  C   UNL     1      34.007 -21.161 -19.631  0.00  0.00    +0.040 C 
ATOM     14  C   UNL     1      35.386 -22.415 -18.095  0.00  0.00    +0.038 C 
ATOM     15  C   UNL     1      36.359 -20.646 -19.421  0.00  0.00    +0.003 C 
ATOM     16  C   UNL     1      36.495 -21.654 -18.467  0.00  0.00    +0.003 C 
BRANCH  12  19
ATOM     17  N   UNL     1      35.381 -18.101 -20.723  0.00  0.00    -0.387 N 
ATOM     18  N   UNL     1      34.437 -19.621 -22.194  0.00  0.00    -0.345 N 
ATOM     19  C   UNL     1      34.976 -19.354 -20.993  0.00  0.00    +0.096 C 
ATOM     20  H   UNL     1      35.282 -17.395 -21.402  0.00  0.00    +0.157 HD
ATOM     21  H   UNL     1      35.778 -17.890 -19.847  0.00  0.00    +0.157 HD
ATOM     22  H   UNL     1      34.343 -18.904 -22.863  0.00  0.00    +0.144 HD
ATOM     23  H   UNL     1      34.133 -20.534 -22.406  0.00  0.00    +0.144 HD
ENDBRANCH  12  19
ENDBRANCH  10  11
ENDBRANCH   5  10
BRANCH   6  24
ATOM     24  O   UNL     1      34.848 -24.964 -14.556  0.00  0.00    -0.426 OA
BRANCH  24  25
ATOM     25  C   UNL     1      36.111 -24.483 -14.709  0.00  0.00    +0.148 C 
ATOM     26  C   UNL     1      38.501 -24.839 -14.698  0.00  0.00    +0.034 C 
ATOM     27  C   UNL     1      37.206 -25.332 -14.542  0.00  0.00    +0.040 C 
ATOM     28  C   UNL     1      36.313 -23.141 -15.031  0.00  0.00    +0.038 C 
ATOM     29  C   UNL     1      38.703 -23.496 -15.020  0.00  0.00    +0.003 C 
ATOM     30  C   UNL     1      37.608 -22.648 -15.187  0.00  0.00    +0.003 C 
BRANCH  26  33
ATOM     31  N   UNL     1      39.497 -27.109 -14.566  0.00  0.00    -0.343 N 
ATOM     32  N   UNL     1      40.844 -25.216 -14.314  0.00  0.00    -0.285 NA
ATOM     33  C   UNL     1      39.642 -25.724 -14.523  0.00  0.00    +0.117 C 
ATOM     34  H   UNL     1      40.282 -27.690 -14.445  0.00  0.00    +0.144 HD
ATOM     35  H   UNL     1      38.609 -27.508 -14.717  0.00  0.00    +0.144 HD
ATOM     36  H   UNL     1      41.616 -25.814 -14.196  0.00  0.00    +0.188 HD
ENDBRANCH  26  33
ENDBRANCH  24  25
ENDBRANCH   6  24
TORSDOF 6
ENDMDL
