MODEL 1
REMARK VINA RESULT:     -11.7      0.000      0.000
REMARK  Name = 54726191
REMARK  4 active torsions:
REMARK  status: ('A' for Active; 'I' for Inactive)
REMARK    1  A    between atoms: C_15  and  O_31
REMARK    2  A    between atoms: C_16  and  C_20
REMARK    3  A    between atoms: N_19  and  C_22
REMARK    4  A    between atoms: C_22  and  C_25
REMARK                            x       y       z     vdW  Elec       q    Type
REMARK                         _______ _______ _______ _____ _____    ______ ____
ROOT
ATOM      1  O   UNL     1      37.358 -22.957 -15.134  0.00  0.00    -0.336 OA
ATOM      2  O   UNL     1      33.401 -23.759 -17.536  0.00  0.00    -0.268 OA
ATOM      3  O   UNL     1      33.605 -20.131 -21.101  0.00  0.00    -0.283 OA
ATOM      4  N   UNL     1      35.215 -23.212 -16.205  0.00  0.00    -0.253 N 
ATOM      5  N   UNL     1      36.139 -21.520 -18.259  0.00  0.00    -0.275 N 
ATOM      6  C   UNL     1      36.377 -22.346 -15.981  0.00  0.00    +0.215 C 
ATOM      7  C   UNL     1      34.692 -23.980 -15.061  0.00  0.00    +0.080 C 
ATOM      8  C   UNL     1      35.821 -24.507 -14.175  0.00  0.00    +0.052 C 
ATOM      9  C   UNL     1      37.086 -22.059 -17.294  0.00  0.00    +0.147 C 
ATOM     10  C   UNL     1      36.836 -23.416 -13.895  0.00  0.00    +0.146 C 
ATOM     11  C   UNL     1      34.411 -23.081 -17.346  0.00  0.00    +0.267 C 
ATOM     12  C   UNL     1      34.840 -22.029 -18.342  0.00  0.00    +0.143 C 
ATOM     13  C   UNL     1      33.692 -23.137 -14.261  0.00  0.00    +0.022 C 
ATOM     14  C   UNL     1      36.545 -20.561 -19.177  0.00  0.00    +0.074 C 
ATOM     15  C   UNL     1      33.950 -21.604 -19.266  0.00  0.00    +0.191 C 
ATOM     16  C   UNL     1      35.773 -20.052 -20.144  0.00  0.00    +0.110 C 
ATOM     17  C   UNL     1      34.378 -20.554 -20.247  0.00  0.00    +0.236 C 
ENDROOT
BRANCH  16  20
ATOM     18  O   UNL     1      37.553 -18.822 -21.060  0.00  0.00    -0.270 OA
ATOM     19  N   UNL     1      35.385 -18.402 -21.809  0.00  0.00    -0.297 N 
ATOM     20  C   UNL     1      36.341 -19.041 -21.036  0.00  0.00    +0.251 C 
ATOM     21  H   UNL     1      34.443 -18.667 -21.699  0.00  0.00    +0.150 HD
BRANCH  19  22
ATOM     22  C   UNL     1      35.698 -17.365 -22.766  0.00  0.00    +0.119 C 
BRANCH  22  25
ATOM     23  F   UNL     1      34.474 -15.828 -24.803  0.00  0.00    -0.204 F 
ATOM     24  F   UNL     1      32.860 -12.614 -21.729  0.00  0.00    -0.204 F 
ATOM     25  C   UNL     1      34.941 -16.098 -22.491  0.00  0.00    +0.025 C 
ATOM     26  C   UNL     1      34.361 -15.388 -23.543  0.00  0.00    +0.140 C 
ATOM     27  C   UNL     1      34.818 -15.632 -21.182  0.00  0.00    +0.002 C 
ATOM     28  C   UNL     1      33.658 -14.211 -23.285  0.00  0.00    +0.059 C 
ATOM     29  C   UNL     1      34.114 -14.454 -20.925  0.00  0.00    +0.030 C 
ATOM     30  C   UNL     1      33.535 -13.743 -21.976  0.00  0.00    +0.142 C 
ENDBRANCH  22  25
ENDBRANCH  19  22
ENDBRANCH  16  20
BRANCH  15  31
ATOM     31  O   UNL     1      32.655 -22.062 -19.361  0.00  0.00    -0.502 OA
ATOM     32  H   UNL     1      31.977 -21.660 -18.855  0.00  0.00    +0.292 HD
ENDBRANCH  15  31
TORSDOF 4
ENDMDL
MODEL 2
REMARK VINA RESULT:     -11.3      6.216     11.959
REMARK  Name = 54726191
REMARK  4 active torsions:
REMARK  status: ('A' for Active; 'I' for Inactive)
REMARK    1  A    between atoms: C_15  and  O_31
REMARK    2  A    between atoms: C_16  and  C_20
REMARK    3  A    between atoms: N_19  and  C_22
REMARK    4  A    between atoms: C_22  and  C_25
REMARK                            x       y       z     vdW  Elec       q    Type
REMARK                         _______ _______ _______ _____ _____    ______ ____
ROOT
ATOM      1  O   UNL     1      33.853  -6.799 -24.183  0.00  0.00    -0.336 OA
ATOM      2  O   UNL     1      32.126  -8.939 -20.374  0.00  0.00    -0.268 OA
ATOM      3  O   UNL     1      31.996 -13.797 -21.892  0.00  0.00    -0.283 OA
ATOM      4  N   UNL     1      32.739  -7.854 -22.326  0.00  0.00    -0.253 N 
ATOM      5  N   UNL     1      33.483 -10.346 -23.410  0.00  0.00    -0.275 N 
ATOM      6  C   UNL     1      33.139  -7.957 -23.733  0.00  0.00    +0.215 C 
ATOM      7  C   UNL     1      32.234  -6.557 -21.841  0.00  0.00    +0.080 C 
ATOM      8  C   UNL     1      33.007  -5.389 -22.456  0.00  0.00    +0.052 C 
ATOM      9  C   UNL     1      34.088  -9.128 -23.930  0.00  0.00    +0.147 C 
ATOM     10  C   UNL     1      33.163  -5.578 -23.952  0.00  0.00    +0.146 C 
ATOM     11  C   UNL     1      32.511  -8.994 -21.542  0.00  0.00    +0.267 C 
ATOM     12  C   UNL     1      32.747 -10.323 -22.222  0.00  0.00    +0.143 C 
ATOM     13  C   UNL     1      30.728  -6.436 -22.100  0.00  0.00    +0.022 C 
ATOM     14  C   UNL     1      33.714 -11.563 -24.035  0.00  0.00    +0.074 C 
ATOM     15  C   UNL     1      32.225 -11.441 -21.669  0.00  0.00    +0.191 C 
ATOM     16  C   UNL     1      33.260 -12.745 -23.600  0.00  0.00    +0.110 C 
ATOM     17  C   UNL     1      32.455 -12.755 -22.351  0.00  0.00    +0.236 C 
ENDROOT
BRANCH  16  20
ATOM     18  O   UNL     1      33.257 -14.050 -25.553  0.00  0.00    -0.270 OA
ATOM     19  N   UNL     1      34.263 -14.899 -23.628  0.00  0.00    -0.297 N 
ATOM     20  C   UNL     1      33.582 -13.947 -24.369  0.00  0.00    +0.251 C 
ATOM     21  H   UNL     1      34.466 -14.699 -22.686  0.00  0.00    +0.150 HD
BRANCH  19  22
ATOM     22  C   UNL     1      34.690 -16.171 -24.166  0.00  0.00    +0.119 C 
BRANCH  22  25
ATOM     23  F   UNL     1      34.065 -18.908 -24.520  0.00  0.00    -0.204 F 
ATOM     24  F   UNL     1      35.425 -20.025 -20.128  0.00  0.00    -0.204 F 
ATOM     25  C   UNL     1      34.885 -17.199 -23.090  0.00  0.00    +0.025 C 
ATOM     26  C   UNL     1      34.556 -18.534 -23.331  0.00  0.00    +0.140 C 
ATOM     27  C   UNL     1      35.397 -16.820 -21.849  0.00  0.00    +0.002 C 
ATOM     28  C   UNL     1      34.739 -19.488 -22.330  0.00  0.00    +0.059 C 
ATOM     29  C   UNL     1      35.579 -17.775 -20.848  0.00  0.00    +0.030 C 
ATOM     30  C   UNL     1      35.250 -19.109 -21.088  0.00  0.00    +0.142 C 
ENDBRANCH  22  25
ENDBRANCH  19  22
ENDBRANCH  16  20
BRANCH  15  31
ATOM     31  O   UNL     1      31.474 -11.454 -20.515  0.00  0.00    -0.502 OA
ATOM     32  H   UNL     1      31.766 -11.942 -19.771  0.00  0.00    +0.292 HD
ENDBRANCH  15  31
TORSDOF 4
ENDMDL
MODEL 3
REMARK VINA RESULT:     -10.8      3.579      5.504
REMARK  Name = 54726191
REMARK  4 active torsions:
REMARK  status: ('A' for Active; 'I' for Inactive)
REMARK    1  A    between atoms: C_15  and  O_31
REMARK    2  A    between atoms: C_16  and  C_20
REMARK    3  A    between atoms: N_19  and  C_22
REMARK    4  A    between atoms: C_22  and  C_25
REMARK                            x       y       z     vdW  Elec       q    Type
REMARK                         _______ _______ _______ _____ _____    ______ ____
ROOT
ATOM      1  O   UNL     1      38.253 -25.133 -13.981  0.00  0.00    -0.336 OA
ATOM      2  O   UNL     1      34.220 -25.082 -11.571  0.00  0.00    -0.268 OA
ATOM      3  O   UNL     1      31.147 -22.568 -14.757  0.00  0.00    -0.283 OA
ATOM      4  N   UNL     1      36.264 -24.891 -12.642  0.00  0.00    -0.253 N 
ATOM      5  N   UNL     1      34.904 -24.074 -14.970  0.00  0.00    -0.275 N 
ATOM      6  C   UNL     1      37.017 -24.428 -13.813  0.00  0.00    +0.215 C 
ATOM      7  C   UNL     1      37.014 -25.183 -11.407  0.00  0.00    +0.080 C 
ATOM      8  C   UNL     1      38.356 -25.850 -11.709  0.00  0.00    +0.052 C 
ATOM      9  C   UNL     1      36.224 -24.676 -15.085  0.00  0.00    +0.147 C 
ATOM     10  C   UNL     1      39.079 -25.120 -12.824  0.00  0.00    +0.146 C 
ATOM     11  C   UNL     1      34.872 -24.748 -12.561  0.00  0.00    +0.267 C 
ATOM     12  C   UNL     1      34.197 -24.133 -13.765  0.00  0.00    +0.143 C 
ATOM     13  C   UNL     1      37.192 -23.908 -10.573  0.00  0.00    +0.022 C 
ATOM     14  C   UNL     1      34.288 -23.521 -16.084  0.00  0.00    +0.074 C 
ATOM     15  C   UNL     1      32.944 -23.646 -13.633  0.00  0.00    +0.191 C 
ATOM     16  C   UNL     1      33.053 -23.003 -16.098  0.00  0.00    +0.110 C 
ATOM     17  C   UNL     1      32.282 -23.030 -14.828  0.00  0.00    +0.236 C 
ENDROOT
BRANCH  16  20
ATOM     18  O   UNL     1      31.327 -22.333 -17.543  0.00  0.00    -0.270 OA
ATOM     19  N   UNL     1      33.540 -22.095 -18.239  0.00  0.00    -0.297 N 
ATOM     20  C   UNL     1      32.538 -22.450 -17.350  0.00  0.00    +0.251 C 
ATOM     21  H   UNL     1      34.476 -22.239 -17.968  0.00  0.00    +0.150 HD
BRANCH  19  22
ATOM     22  C   UNL     1      33.284 -21.528 -19.543  0.00  0.00    +0.119 C 
BRANCH  22  25
ATOM     23  F   UNL     1      33.125 -19.808 -21.784  0.00  0.00    -0.204 F 
ATOM     24  F   UNL     1      37.687 -18.593 -21.466  0.00  0.00    -0.204 F 
ATOM     25  C   UNL     1      34.457 -20.745 -20.057  0.00  0.00    +0.025 C 
ATOM     26  C   UNL     1      34.310 -19.914 -21.168  0.00  0.00    +0.140 C 
ATOM     27  C   UNL     1      35.694 -20.849 -19.421  0.00  0.00    +0.002 C 
ATOM     28  C   UNL     1      35.402 -19.188 -21.644  0.00  0.00    +0.059 C 
ATOM     29  C   UNL     1      36.786 -20.121 -19.897  0.00  0.00    +0.030 C 
ATOM     30  C   UNL     1      36.640 -19.291 -21.009  0.00  0.00    +0.142 C 
ENDBRANCH  22  25
ENDBRANCH  19  22
ENDBRANCH  16  20
BRANCH  15  31
ATOM     31  O   UNL     1      32.228 -23.663 -12.457  0.00  0.00    -0.502 OA
ATOM     32  H   UNL     1      32.173 -24.450 -11.952  0.00  0.00    +0.292 HD
ENDBRANCH  15  31
TORSDOF 4
ENDMDL
MODEL 4
REMARK VINA RESULT:     -10.6      4.141      9.986
REMARK  Name = 54726191
REMARK  4 active torsions:
REMARK  status: ('A' for Active; 'I' for Inactive)
REMARK    1  A    between atoms: C_15  and  O_31
REMARK    2  A    between atoms: C_16  and  C_20
REMARK    3  A    between atoms: N_19  and  C_22
REMARK    4  A    between atoms: C_22  and  C_25
REMARK                            x       y       z     vdW  Elec       q    Type
REMARK                         _______ _______ _______ _____ _____    ______ ____
ROOT
ATOM      1  O   UNL     1      33.499 -11.064 -22.119  0.00  0.00    -0.336 OA
ATOM      2  O   UNL     1      32.930 -14.120 -25.641  0.00  0.00    -0.268 OA
ATOM      3  O   UNL     1      35.212 -18.273 -23.780  0.00  0.00    -0.283 OA
ATOM      4  N   UNL     1      33.425 -12.546 -24.017  0.00  0.00    -0.253 N 
ATOM      5  N   UNL     1      34.190 -14.642 -22.298  0.00  0.00    -0.275 N 
ATOM      6  C   UNL     1      34.038 -12.249 -22.718  0.00  0.00    +0.215 C 
ATOM      7  C   UNL     1      33.164 -11.421 -24.933  0.00  0.00    +0.080 C 
ATOM      8  C   UNL     1      32.683 -10.182 -24.178  0.00  0.00    +0.052 C 
ATOM      9  C   UNL     1      33.761 -13.372 -21.732  0.00  0.00    +0.147 C 
ATOM     10  C   UNL     1      33.553  -9.922 -22.964  0.00  0.00    +0.146 C 
ATOM     11  C   UNL     1      33.392 -13.849 -24.532  0.00  0.00    +0.267 C 
ATOM     12  C   UNL     1      33.982 -14.925 -23.650  0.00  0.00    +0.143 C 
ATOM     13  C   UNL     1      34.405 -11.119 -25.781  0.00  0.00    +0.022 C 
ATOM     14  C   UNL     1      34.721 -15.629 -21.479  0.00  0.00    +0.074 C 
ATOM     15  C   UNL     1      34.304 -16.116 -24.202  0.00  0.00    +0.191 C 
ATOM     16  C   UNL     1      35.083 -16.851 -21.888  0.00  0.00    +0.110 C 
ATOM     17  C   UNL     1      34.897 -17.178 -23.326  0.00  0.00    +0.236 C 
ENDROOT
BRANCH  16  20
ATOM     18  O   UNL     1      36.026 -17.394 -19.806  0.00  0.00    -0.270 OA
ATOM     19  N   UNL     1      35.654 -19.096 -21.357  0.00  0.00    -0.297 N 
ATOM     20  C   UNL     1      35.634 -17.785 -20.907  0.00  0.00    +0.251 C 
ATOM     21  H   UNL     1      35.311 -19.283 -22.261  0.00  0.00    +0.150 HD
BRANCH  19  22
ATOM     22  C   UNL     1      36.152 -20.201 -20.571  0.00  0.00    +0.119 C 
BRANCH  22  25
ATOM     23  F   UNL     1      36.676 -22.017 -18.465  0.00  0.00    -0.204 F 
ATOM     24  F   UNL     1      32.076 -22.640 -17.547  0.00  0.00    -0.204 F 
ATOM     25  C   UNL     1      35.067 -20.852 -19.764  0.00  0.00    +0.025 C 
ATOM     26  C   UNL     1      35.394 -21.739 -18.738  0.00  0.00    +0.140 C 
ATOM     27  C   UNL     1      33.729 -20.568 -20.040  0.00  0.00    +0.002 C 
ATOM     28  C   UNL     1      34.384 -22.343 -17.990  0.00  0.00    +0.059 C 
ATOM     29  C   UNL     1      32.719 -21.172 -19.291  0.00  0.00    +0.030 C 
ATOM     30  C   UNL     1      33.046 -22.060 -18.266  0.00  0.00    +0.142 C 
ENDBRANCH  22  25
ENDBRANCH  19  22
ENDBRANCH  16  20
BRANCH  15  31
ATOM     31  O   UNL     1      34.139 -16.422 -25.535  0.00  0.00    -0.502 OA
ATOM     32  H   UNL     1      34.514 -15.870 -26.192  0.00  0.00    +0.292 HD
ENDBRANCH  15  31
TORSDOF 4
ENDMDL
MODEL 5
REMARK VINA RESULT:     -10.5      5.141      8.703
REMARK  Name = 54726191
REMARK  4 active torsions:
REMARK  status: ('A' for Active; 'I' for Inactive)
REMARK    1  A    between atoms: C_15  and  O_31
REMARK    2  A    between atoms: C_16  and  C_20
REMARK    3  A    between atoms: N_19  and  C_22
REMARK    4  A    between atoms: C_22  and  C_25
REMARK                            x       y       z     vdW  Elec       q    Type
REMARK                         _______ _______ _______ _____ _____    ______ ____
ROOT
ATOM      1  O   UNL     1      35.700 -17.627 -20.282  0.00  0.00    -0.336 OA
ATOM      2  O   UNL     1      35.294 -16.544 -24.835  0.00  0.00    -0.268 OA
ATOM      3  O   UNL     1      32.297 -12.434 -24.655  0.00  0.00    -0.283 OA
ATOM      4  N   UNL     1      35.292 -17.225 -22.622  0.00  0.00    -0.253 N 
ATOM      5  N   UNL     1      34.216 -14.720 -21.913  0.00  0.00    -0.275 N 
ATOM      6  C   UNL     1      34.865 -16.969 -21.242  0.00  0.00    +0.215 C 
ATOM      7  C   UNL     1      35.725 -18.589 -22.972  0.00  0.00    +0.080 C 
ATOM      8  C   UNL     1      36.529 -19.231 -21.839  0.00  0.00    +0.052 C 
ATOM      9  C   UNL     1      34.961 -15.486 -20.924  0.00  0.00    +0.147 C 
ATOM     10  C   UNL     1      35.836 -19.024 -20.507  0.00  0.00    +0.146 C 
ATOM     11  C   UNL     1      34.993 -16.332 -23.661  0.00  0.00    +0.267 C 
ATOM     12  C   UNL     1      34.249 -15.078 -23.263  0.00  0.00    +0.143 C 
ATOM     13  C   UNL     1      34.520 -19.451 -23.368  0.00  0.00    +0.022 C 
ATOM     14  C   UNL     1      33.544 -13.564 -21.540  0.00  0.00    +0.074 C 
ATOM     15  C   UNL     1      33.627 -14.357 -24.222  0.00  0.00    +0.191 C 
ATOM     16  C   UNL     1      32.887 -12.755 -22.381  0.00  0.00    +0.110 C 
ATOM     17  C   UNL     1      32.883 -13.119 -23.822  0.00  0.00    +0.236 C 
ENDROOT
BRANCH  16  20
ATOM     18  O   UNL     1      31.560 -11.632 -20.802  0.00  0.00    -0.270 OA
ATOM     19  N   UNL     1      32.422 -10.436 -22.609  0.00  0.00    -0.297 N 
ATOM     20  C   UNL     1      32.220 -11.572 -21.840  0.00  0.00    +0.251 C 
ATOM     21  H   UNL     1      32.973 -10.515 -23.421  0.00  0.00    +0.150 HD
BRANCH  19  22
ATOM     22  C   UNL     1      31.865  -9.143 -22.282  0.00  0.00    +0.119 C 
BRANCH  22  25
ATOM     23  F   UNL     1      30.825  -6.538 -22.653  0.00  0.00    -0.204 F 
ATOM     24  F   UNL     1      34.880  -4.931 -24.487  0.00  0.00    -0.204 F 
ATOM     25  C   UNL     1      32.667  -8.020 -22.870  0.00  0.00    +0.025 C 
ATOM     26  C   UNL     1      32.093  -6.758 -23.026  0.00  0.00    +0.140 C 
ATOM     27  C   UNL     1      33.989  -8.238 -23.259  0.00  0.00    +0.002 C 
ATOM     28  C   UNL     1      32.841  -5.714 -23.572  0.00  0.00    +0.059 C 
ATOM     29  C   UNL     1      34.736  -7.195 -23.806  0.00  0.00    +0.030 C 
ATOM     30  C   UNL     1      34.163  -5.933 -23.963  0.00  0.00    +0.142 C 
ENDBRANCH  22  25
ENDBRANCH  19  22
ENDBRANCH  16  20
BRANCH  15  31
ATOM     31  O   UNL     1      33.615 -14.693 -25.557  0.00  0.00    -0.502 OA
ATOM     32  H   UNL     1      34.255 -15.288 -25.897  0.00  0.00    +0.292 HD
ENDBRANCH  15  31
TORSDOF 4
ENDMDL
MODEL 6
REMARK VINA RESULT:     -10.1      1.827      2.643
REMARK  Name = 54726191
REMARK  4 active torsions:
REMARK  status: ('A' for Active; 'I' for Inactive)
REMARK    1  A    between atoms: C_15  and  O_31
REMARK    2  A    between atoms: C_16  and  C_20
REMARK    3  A    between atoms: N_19  and  C_22
REMARK    4  A    between atoms: C_22  and  C_25
REMARK                            x       y       z     vdW  Elec       q    Type
REMARK                         _______ _______ _______ _____ _____    ______ ____
ROOT
ATOM      1  O   UNL     1      35.373 -24.132 -13.549  0.00  0.00    -0.336 OA
ATOM      2  O   UNL     1      31.566 -23.721 -16.269  0.00  0.00    -0.268 OA
ATOM      3  O   UNL     1      33.306 -20.781 -20.042  0.00  0.00    -0.283 OA
ATOM      4  N   UNL     1      33.360 -23.719 -14.806  0.00  0.00    -0.253 N 
ATOM      5  N   UNL     1      34.970 -22.681 -16.872  0.00  0.00    -0.275 N 
ATOM      6  C   UNL     1      34.739 -23.302 -14.529  0.00  0.00    +0.215 C 
ATOM      7  C   UNL     1      32.519 -24.132 -13.669  0.00  0.00    +0.080 C 
ATOM      8  C   UNL     1      33.320 -24.932 -12.640  0.00  0.00    +0.052 C 
ATOM      9  C   UNL     1      35.590 -23.420 -15.782  0.00  0.00    +0.147 C 
ATOM     10  C   UNL     1      34.639 -24.248 -12.338  0.00  0.00    +0.146 C 
ATOM     11  C   UNL     1      32.736 -23.428 -16.028  0.00  0.00    +0.267 C 
ATOM     12  C   UNL     1      33.583 -22.703 -17.048  0.00  0.00    +0.143 C 
ATOM     13  C   UNL     1      31.840 -22.913 -13.033  0.00  0.00    +0.022 C 
ATOM     14  C   UNL     1      35.755 -22.026 -17.811  0.00  0.00    +0.074 C 
ATOM     15  C   UNL     1      32.971 -22.086 -18.083  0.00  0.00    +0.191 C 
ATOM     16  C   UNL     1      35.286 -21.377 -18.883  0.00  0.00    +0.110 C 
ATOM     17  C   UNL     1      33.815 -21.361 -19.088  0.00  0.00    +0.236 C 
ENDROOT
BRANCH  16  20
ATOM     18  O   UNL     1      37.301 -21.276 -20.087  0.00  0.00    -0.270 OA
ATOM     19  N   UNL     1      35.810 -19.488 -20.226  0.00  0.00    -0.297 N 
ATOM     20  C   UNL     1      36.239 -20.729 -19.784  0.00  0.00    +0.251 C 
ATOM     21  H   UNL     1      34.938 -19.157 -19.911  0.00  0.00    +0.150 HD
BRANCH  19  22
ATOM     22  C   UNL     1      36.577 -18.653 -21.122  0.00  0.00    +0.119 C 
BRANCH  22  25
ATOM     23  F   UNL     1      35.226 -20.074 -23.162  0.00  0.00    -0.204 F 
ATOM     24  F   UNL     1      33.322 -16.136 -24.967  0.00  0.00    -0.204 F 
ATOM     25  C   UNL     1      35.709 -17.983 -22.148  0.00  0.00    +0.025 C 
ATOM     26  C   UNL     1      35.070 -18.744 -23.128  0.00  0.00    +0.140 C 
ATOM     27  C   UNL     1      35.541 -16.599 -22.120  0.00  0.00    +0.002 C 
ATOM     28  C   UNL     1      34.264 -18.120 -24.080  0.00  0.00    +0.059 C 
ATOM     29  C   UNL     1      34.734 -15.975 -23.072  0.00  0.00    +0.030 C 
ATOM     30  C   UNL     1      34.096 -16.735 -24.053  0.00  0.00    +0.142 C 
ENDBRANCH  22  25
ENDBRANCH  19  22
ENDBRANCH  16  20
BRANCH  15  31
ATOM     31  O   UNL     1      31.608 -22.064 -18.274  0.00  0.00    -0.502 OA
ATOM     32  H   UNL     1      31.156 -21.245 -18.335  0.00  0.00    +0.292 HD
ENDBRANCH  15  31
TORSDOF 4
ENDMDL
MODEL 7
REMARK VINA RESULT:      -9.7      3.962      9.588
REMARK  Name = 54726191
REMARK  4 active torsions:
REMARK  status: ('A' for Active; 'I' for Inactive)
REMARK    1  A    between atoms: C_15  and  O_31
REMARK    2  A    between atoms: C_16  and  C_20
REMARK    3  A    between atoms: N_19  and  C_22
REMARK    4  A    between atoms: C_22  and  C_25
REMARK                            x       y       z     vdW  Elec       q    Type
REMARK                         _______ _______ _______ _____ _____    ______ ____
ROOT
ATOM      1  O   UNL     1      33.893 -12.305 -22.349  0.00  0.00    -0.336 OA
ATOM      2  O   UNL     1      33.134 -15.830 -25.361  0.00  0.00    -0.268 OA
ATOM      3  O   UNL     1      35.732 -19.626 -23.181  0.00  0.00    -0.283 OA
ATOM      4  N   UNL     1      33.709 -14.035 -24.016  0.00  0.00    -0.253 N 
ATOM      5  N   UNL     1      34.705 -15.855 -22.110  0.00  0.00    -0.275 N 
ATOM      6  C   UNL     1      34.423 -13.546 -22.831  0.00  0.00    +0.215 C 
ATOM      7  C   UNL     1      33.324 -13.054 -25.047  0.00  0.00    +0.080 C 
ATOM      8  C   UNL     1      32.864 -11.736 -24.423  0.00  0.00    +0.052 C 
ATOM      9  C   UNL     1      34.278 -14.531 -21.682  0.00  0.00    +0.147 C 
ATOM     10  C   UNL     1      33.827 -11.289 -23.341  0.00  0.00    +0.146 C 
ATOM     11  C   UNL     1      33.682 -15.397 -24.347  0.00  0.00    +0.267 C 
ATOM     12  C   UNL     1      34.389 -16.326 -23.387  0.00  0.00    +0.143 C 
ATOM     13  C   UNL     1      34.473 -12.838 -26.039  0.00  0.00    +0.022 C 
ATOM     14  C   UNL     1      35.345 -16.706 -21.219  0.00  0.00    +0.074 C 
ATOM     15  C   UNL     1      34.707 -17.573 -23.802  0.00  0.00    +0.191 C 
ATOM     16  C   UNL     1      35.717 -17.962 -21.493  0.00  0.00    +0.110 C 
ATOM     17  C   UNL     1      35.416 -18.488 -22.850  0.00  0.00    +0.236 C 
ENDROOT
BRANCH  16  20
ATOM     18  O   UNL     1      37.279 -18.240 -19.761  0.00  0.00    -0.270 OA
ATOM     19  N   UNL     1      35.913 -20.036 -20.350  0.00  0.00    -0.297 N 
ATOM     20  C   UNL     1      36.388 -18.738 -20.451  0.00  0.00    +0.251 C 
ATOM     21  H   UNL     1      35.195 -20.318 -20.961  0.00  0.00    +0.150 HD
BRANCH  19  22
ATOM     22  C   UNL     1      36.419 -20.997 -19.397  0.00  0.00    +0.119 C 
BRANCH  22  25
ATOM     23  F   UNL     1      36.847 -22.322 -16.934  0.00  0.00    -0.204 F 
ATOM     24  F   UNL     1      32.274 -23.447 -16.478  0.00  0.00    -0.204 F 
ATOM     25  C   UNL     1      35.315 -21.651 -18.618  0.00  0.00    +0.025 C 
ATOM     26  C   UNL     1      35.595 -22.288 -17.409  0.00  0.00    +0.140 C 
ATOM     27  C   UNL     1      34.008 -21.619 -19.104  0.00  0.00    +0.002 C 
ATOM     28  C   UNL     1      34.567 -22.895 -16.686  0.00  0.00    +0.059 C 
ATOM     29  C   UNL     1      32.980 -22.227 -18.381  0.00  0.00    +0.030 C 
ATOM     30  C   UNL     1      33.260 -22.865 -17.172  0.00  0.00    +0.142 C 
ENDBRANCH  22  25
ENDBRANCH  19  22
ENDBRANCH  16  20
BRANCH  15  31
ATOM     31  O   UNL     1      34.437 -18.062 -25.060  0.00  0.00    -0.502 OA
ATOM     32  H   UNL     1      33.574 -18.361 -25.271  0.00  0.00    +0.292 HD
ENDBRANCH  15  31
TORSDOF 4
ENDMDL
MODEL 8
REMARK VINA RESULT:      -9.5      4.354      9.857
REMARK  Name = 54726191
REMARK  4 active torsions:
REMARK  status: ('A' for Active; 'I' for Inactive)
REMARK    1  A    between atoms: C_15  and  O_31
REMARK    2  A    between atoms: C_16  and  C_20
REMARK    3  A    between atoms: N_19  and  C_22
REMARK    4  A    between atoms: C_22  and  C_25
REMARK                            x       y       z     vdW  Elec       q    Type
REMARK                         _______ _______ _______ _____ _____    ______ ____
ROOT
ATOM      1  O   UNL     1      31.969 -11.175 -19.777  0.00  0.00    -0.336 OA
ATOM      2  O   UNL     1      32.466 -12.460 -24.268  0.00  0.00    -0.268 OA
ATOM      3  O   UNL     1      35.396 -16.599 -23.839  0.00  0.00    -0.283 OA
ATOM      4  N   UNL     1      32.426 -11.684 -22.087  0.00  0.00    -0.253 N 
ATOM      5  N   UNL     1      33.447 -14.170 -21.245  0.00  0.00    -0.275 N 
ATOM      6  C   UNL     1      32.817 -11.886 -20.688  0.00  0.00    +0.215 C 
ATOM      7  C   UNL     1      32.021 -10.330 -22.505  0.00  0.00    +0.080 C 
ATOM      8  C   UNL     1      31.201  -9.629 -21.422  0.00  0.00    +0.052 C 
ATOM      9  C   UNL     1      32.691 -13.352 -20.308  0.00  0.00    +0.147 C 
ATOM     10  C   UNL     1      31.859  -9.787 -20.065  0.00  0.00    +0.146 C 
ATOM     11  C   UNL     1      32.736 -12.625 -23.079  0.00  0.00    +0.267 C 
ATOM     12  C   UNL     1      33.452 -13.871 -22.610  0.00  0.00    +0.143 C 
ATOM     13  C   UNL     1      33.249  -9.503 -22.909  0.00  0.00    +0.022 C 
ATOM     14  C   UNL     1      34.093 -15.319 -20.807  0.00  0.00    +0.074 C 
ATOM     15  C   UNL     1      34.085 -14.641 -23.522  0.00  0.00    +0.191 C 
ATOM     16  C   UNL     1      34.757 -16.172 -21.596  0.00  0.00    +0.110 C 
ATOM     17  C   UNL     1      34.801 -15.871 -23.051  0.00  0.00    +0.236 C 
ENDROOT
BRANCH  16  20
ATOM     18  O   UNL     1      35.962 -17.260 -19.898  0.00  0.00    -0.270 OA
ATOM     19  N   UNL     1      35.276 -18.485 -21.761  0.00  0.00    -0.297 N 
ATOM     20  C   UNL     1      35.393 -17.340 -20.988  0.00  0.00    +0.251 C 
ATOM     21  H   UNL     1      34.796 -18.421 -22.618  0.00  0.00    +0.150 HD
BRANCH  19  22
ATOM     22  C   UNL     1      35.823 -19.766 -21.374  0.00  0.00    +0.119 C 
BRANCH  22  25
ATOM     23  F   UNL     1      36.812 -21.590 -19.451  0.00  0.00    -0.204 F 
ATOM     24  F   UNL     1      32.496 -22.459 -17.716  0.00  0.00    -0.204 F 
ATOM     25  C   UNL     1      34.937 -20.484 -20.399  0.00  0.00    +0.025 C 
ATOM     26  C   UNL     1      35.490 -21.372 -19.475  0.00  0.00    +0.140 C 
ATOM     27  C   UNL     1      33.560 -20.263 -20.416  0.00  0.00    +0.002 C 
ATOM     28  C   UNL     1      34.665 -22.039 -18.569  0.00  0.00    +0.059 C 
ATOM     29  C   UNL     1      32.735 -20.930 -19.510  0.00  0.00    +0.030 C 
ATOM     30  C   UNL     1      33.287 -21.819 -18.586  0.00  0.00    +0.142 C 
ENDBRANCH  22  25
ENDBRANCH  19  22
ENDBRANCH  16  20
BRANCH  15  31
ATOM     31  O   UNL     1      34.134 -14.363 -24.869  0.00  0.00    -0.502 OA
ATOM     32  H   UNL     1      34.899 -13.970 -25.240  0.00  0.00    +0.292 HD
ENDBRANCH  15  31
TORSDOF 4
ENDMDL
MODEL 9
REMARK VINA RESULT:      -9.3      6.160     11.903
REMARK  Name = 54726191
REMARK  4 active torsions:
REMARK  status: ('A' for Active; 'I' for Inactive)
REMARK    1  A    between atoms: C_15  and  O_31
REMARK    2  A    between atoms: C_16  and  C_20
REMARK    3  A    between atoms: N_19  and  C_22
REMARK    4  A    between atoms: C_22  and  C_25
REMARK                            x       y       z     vdW  Elec       q    Type
REMARK                         _______ _______ _______ _____ _____    ______ ____
ROOT
ATOM      1  O   UNL     1      31.607  -7.235 -19.952  0.00  0.00    -0.336 OA
ATOM      2  O   UNL     1      32.098  -8.680 -24.395  0.00  0.00    -0.268 OA
ATOM      3  O   UNL     1      33.822 -13.426 -23.752  0.00  0.00    -0.283 OA
ATOM      4  N   UNL     1      32.093  -7.883 -22.221  0.00  0.00    -0.253 N 
ATOM      5  N   UNL     1      32.372 -10.534 -21.310  0.00  0.00    -0.275 N 
ATOM      6  C   UNL     1      32.310  -8.155 -20.796  0.00  0.00    +0.215 C 
ATOM      7  C   UNL     1      32.084  -6.478 -22.665  0.00  0.00    +0.080 C 
ATOM      8  C   UNL     1      31.392  -5.572 -21.646  0.00  0.00    +0.052 C 
ATOM      9  C   UNL     1      31.782  -9.533 -20.433  0.00  0.00    +0.147 C 
ATOM     10  C   UNL     1      31.881  -5.871 -20.243  0.00  0.00    +0.146 C 
ATOM     11  C   UNL     1      32.225  -8.889 -23.189  0.00  0.00    +0.267 C 
ATOM     12  C   UNL     1      32.558 -10.269 -22.669  0.00  0.00    +0.143 C 
ATOM     13  C   UNL     1      33.510  -6.002 -22.968  0.00  0.00    +0.022 C 
ATOM     14  C   UNL     1      32.665 -11.802 -20.827  0.00  0.00    +0.074 C 
ATOM     15  C   UNL     1      33.039 -11.191 -23.532  0.00  0.00    +0.191 C 
ATOM     16  C   UNL     1      33.145 -12.811 -21.565  0.00  0.00    +0.110 C 
ATOM     17  C   UNL     1      33.376 -12.556 -23.010  0.00  0.00    +0.236 C 
ENDROOT
BRANCH  16  20
ATOM     18  O   UNL     1      32.667 -14.524 -20.030  0.00  0.00    -0.270 OA
ATOM     19  N   UNL     1      34.546 -14.722 -21.397  0.00  0.00    -0.297 N 
ATOM     20  C   UNL     1      33.410 -14.093 -20.913  0.00  0.00    +0.251 C 
ATOM     21  H   UNL     1      35.060 -14.275 -22.107  0.00  0.00    +0.150 HD
BRANCH  19  22
ATOM     22  C   UNL     1      35.017 -16.000 -20.911  0.00  0.00    +0.119 C 
BRANCH  22  25
ATOM     23  F   UNL     1      35.310 -18.750 -20.315  0.00  0.00    -0.204 F 
ATOM     24  F   UNL     1      34.520 -20.043 -24.798  0.00  0.00    -0.204 F 
ATOM     25  C   UNL     1      34.885 -17.078 -21.946  0.00  0.00    +0.025 C 
ATOM     26  C   UNL     1      35.042 -18.417 -21.584  0.00  0.00    +0.140 C 
ATOM     27  C   UNL     1      34.604 -16.741 -23.270  0.00  0.00    +0.002 C 
ATOM     28  C   UNL     1      34.919 -19.418 -22.548  0.00  0.00    +0.059 C 
ATOM     29  C   UNL     1      34.481 -17.743 -24.233  0.00  0.00    +0.030 C 
ATOM     30  C   UNL     1      34.639 -19.081 -23.873  0.00  0.00    +0.142 C 
ENDBRANCH  22  25
ENDBRANCH  19  22
ENDBRANCH  16  20
BRANCH  15  31
ATOM     31  O   UNL     1      33.260 -10.958 -24.870  0.00  0.00    -0.502 OA
ATOM     32  H   UNL     1      32.805 -11.462 -25.515  0.00  0.00    +0.292 HD
ENDBRANCH  15  31
TORSDOF 4
ENDMDL
