MODEL 1
REMARK VINA RESULT:     -12.5      0.000      0.000
REMARK  Name = 11167602
REMARK  6 active torsions:
REMARK  status: ('A' for Active; 'I' for Inactive)
REMARK    1  A    between atoms: C_2  and  N_10
REMARK    2  A    between atoms: C_3  and  O_25
REMARK    3  A    between atoms: N_9  and  C_15
REMARK    4  A    between atoms: C_16  and  C_24
REMARK    5  A    between atoms: O_25  and  C_27
REMARK    6  A    between atoms: C_29  and  C_34
REMARK                            x       y       z     vdW  Elec       q    Type
REMARK                         _______ _______ _______ _____ _____    ______ ____
ROOT
ATOM      1  F   UNL     1      34.387 -14.059 -20.391  0.00  0.00    -0.203 F 
ATOM      2  C   UNL     1      33.644 -14.007 -22.645  0.00  0.00    +0.079 C 
ATOM      3  C   UNL     1      34.835 -16.471 -23.073  0.00  0.00    +0.148 C 
ATOM      4  C   UNL     1      34.310 -14.628 -21.601  0.00  0.00    +0.157 C 
ATOM      5  C   UNL     1      33.560 -14.593 -23.898  0.00  0.00    +0.020 C 
ATOM      6  C   UNL     1      34.909 -15.869 -21.817  0.00  0.00    +0.068 C 
ATOM      7  C   UNL     1      34.161 -15.833 -24.114  0.00  0.00    +0.039 C 
ENDROOT
BRANCH   2  10
ATOM      8  O   UNL     1      33.970 -11.428 -24.117  0.00  0.00    -0.252 OA
ATOM      9  N   UNL     1      32.418 -10.530 -22.609  0.00  0.00    -0.268 N 
ATOM     10  N   UNL     1      33.033 -12.749 -22.430  0.00  0.00    -0.266 N 
ATOM     11  C   UNL     1      33.222 -11.561 -23.154  0.00  0.00    +0.308 C 
ATOM     12  H   UNL     1      31.866 -10.784 -21.835  0.00  0.00    +0.156 HD
ATOM     13  H   UNL     1      32.398 -12.702 -21.680  0.00  0.00    +0.156 HD
BRANCH   9  15
ATOM     14 CL   UNL     1      31.897  -4.912 -24.372  0.00  0.00    -0.082 Cl
ATOM     15  C   UNL     1      32.305  -9.203 -23.025  0.00  0.00    +0.052 C 
ATOM     16  C   UNL     1      33.336  -7.136 -23.731  0.00  0.00    +0.083 C 
ATOM     17  C   UNL     1      33.451  -8.463 -23.315  0.00  0.00    +0.019 C 
ATOM     18  C   UNL     1      31.045  -8.618 -23.151  0.00  0.00    +0.016 C 
ATOM     19  C   UNL     1      32.077  -6.551 -23.858  0.00  0.00    +0.062 C 
ATOM     20  C   UNL     1      30.932  -7.291 -23.567  0.00  0.00    +0.013 C 
BRANCH  16  24
ATOM     21  F   UNL     1      35.632  -6.701 -23.218  0.00  0.00    -0.166 F 
ATOM     22  F   UNL     1      35.050  -6.575 -25.304  0.00  0.00    -0.166 F 
ATOM     23  F   UNL     1      34.424  -5.030 -23.907  0.00  0.00    -0.166 F 
ATOM     24  C   UNL     1      34.588  -6.378 -24.035  0.00  0.00    +0.419 C 
ENDBRANCH  16  24
ENDBRANCH   9  15
ENDBRANCH   2  10
BRANCH   3  25
ATOM     25  O   UNL     1      35.420 -17.683 -23.283  0.00  0.00    -0.453 OA
BRANCH  25  27
ATOM     26  N   UNL     1      36.100 -20.102 -19.973  0.00  0.00    -0.239 NA
ATOM     27  C   UNL     1      35.646 -18.488 -22.180  0.00  0.00    +0.149 C 
ATOM     28  C   UNL     1      34.598 -19.204 -21.642  0.00  0.00    +0.061 C 
ATOM     29  C   UNL     1      34.876 -19.997 -20.539  0.00  0.00    +0.137 C 
ATOM     30  C   UNL     1      36.915 -18.557 -21.644  0.00  0.00    +0.058 C 
ATOM     31  C   UNL     1      37.089 -19.377 -20.542  0.00  0.00    +0.102 C 
BRANCH  29  34
ATOM     32  O   UNL     1      32.655 -20.719 -20.340  0.00  0.00    -0.268 OA
ATOM     33  N   UNL     1      34.194 -21.610 -18.850  0.00  0.00    -0.298 N 
ATOM     34  C   UNL     1      33.824 -20.781 -19.916  0.00  0.00    +0.264 C 
ATOM     35  C   UNL     1      33.268 -22.466 -18.145  0.00  0.00    +0.111 C 
ATOM     36  H   UNL     1      35.136 -21.609 -18.565  0.00  0.00    +0.150 HD
ENDBRANCH  29  34
ENDBRANCH  25  27
ENDBRANCH   3  25
TORSDOF 6
ENDMDL
MODEL 2
REMARK VINA RESULT:     -12.5      1.787      2.076
REMARK  Name = 11167602
REMARK  6 active torsions:
REMARK  status: ('A' for Active; 'I' for Inactive)
REMARK    1  A    between atoms: C_2  and  N_10
REMARK    2  A    between atoms: C_3  and  O_25
REMARK    3  A    between atoms: N_9  and  C_15
REMARK    4  A    between atoms: C_16  and  C_24
REMARK    5  A    between atoms: O_25  and  C_27
REMARK    6  A    between atoms: C_29  and  C_34
REMARK                            x       y       z     vdW  Elec       q    Type
REMARK                         _______ _______ _______ _____ _____    ______ ____
ROOT
ATOM      1  F   UNL     1      34.172 -13.914 -20.505  0.00  0.00    -0.203 F 
ATOM      2  C   UNL     1      33.424 -13.978 -22.758  0.00  0.00    +0.079 C 
ATOM      3  C   UNL     1      34.860 -16.315 -23.145  0.00  0.00    +0.148 C 
ATOM      4  C   UNL     1      34.152 -14.509 -21.705  0.00  0.00    +0.157 C 
ATOM      5  C   UNL     1      33.398 -14.592 -24.000  0.00  0.00    +0.020 C 
ATOM      6  C   UNL     1      34.875 -15.686 -21.900  0.00  0.00    +0.068 C 
ATOM      7  C   UNL     1      34.122 -15.768 -24.195  0.00  0.00    +0.039 C 
ENDROOT
BRANCH   2  10
ATOM      8  O   UNL     1      34.195 -11.134 -23.248  0.00  0.00    -0.252 OA
ATOM      9  N   UNL     1      32.057 -10.565 -22.478  0.00  0.00    -0.268 N 
ATOM     10  N   UNL     1      32.688 -12.785 -22.562  0.00  0.00    -0.266 N 
ATOM     11  C   UNL     1      33.099 -11.466 -22.809  0.00  0.00    +0.308 C 
ATOM     12  H   UNL     1      31.230 -10.976 -22.137  0.00  0.00    +0.156 HD
ATOM     13  H   UNL     1      31.776 -12.895 -22.209  0.00  0.00    +0.156 HD
BRANCH   9  15
ATOM     14 CL   UNL     1      32.023  -4.670 -22.915  0.00  0.00    -0.082 Cl
ATOM     15  C   UNL     1      32.048  -9.173 -22.571  0.00  0.00    +0.052 C 
ATOM     16  C   UNL     1      31.949  -7.005 -21.510  0.00  0.00    +0.083 C 
ATOM     17  C   UNL     1      31.958  -8.397 -21.416  0.00  0.00    +0.019 C 
ATOM     18  C   UNL     1      32.127  -8.558 -23.820  0.00  0.00    +0.016 C 
ATOM     19  C   UNL     1      32.030  -6.390 -22.759  0.00  0.00    +0.062 C 
ATOM     20  C   UNL     1      32.119  -7.166 -23.914  0.00  0.00    +0.013 C 
BRANCH  16  24
ATOM     21  F   UNL     1      32.935  -5.405 -20.030  0.00  0.00    -0.166 F 
ATOM     22  F   UNL     1      30.774  -5.378 -20.209  0.00  0.00    -0.166 F 
ATOM     23  F   UNL     1      31.754  -6.999 -19.141  0.00  0.00    -0.166 F 
ATOM     24  C   UNL     1      31.855  -6.210 -20.249  0.00  0.00    +0.419 C 
ENDBRANCH  16  24
ENDBRANCH   9  15
ENDBRANCH   2  10
BRANCH   3  25
ATOM     25  O   UNL     1      35.566 -17.464 -23.336  0.00  0.00    -0.453 OA
BRANCH  25  27
ATOM     26  N   UNL     1      36.157 -19.939 -20.051  0.00  0.00    -0.239 NA
ATOM     27  C   UNL     1      35.762 -18.288 -22.241  0.00  0.00    +0.149 C 
ATOM     28  C   UNL     1      34.698 -19.003 -21.736  0.00  0.00    +0.061 C 
ATOM     29  C   UNL     1      34.947 -19.815 -20.640  0.00  0.00    +0.137 C 
ATOM     30  C   UNL     1      37.019 -18.374 -21.681  0.00  0.00    +0.058 C 
ATOM     31  C   UNL     1      37.164 -19.213 -20.587  0.00  0.00    +0.102 C 
BRANCH  29  34
ATOM     32  O   UNL     1      32.711 -20.502 -20.480  0.00  0.00    -0.268 OA
ATOM     33  N   UNL     1      34.222 -21.472 -19.013  0.00  0.00    -0.298 N 
ATOM     34  C   UNL     1      33.876 -20.600 -20.052  0.00  0.00    +0.264 C 
ATOM     35  C   UNL     1      33.276 -22.335 -18.344  0.00  0.00    +0.111 C 
ATOM     36  H   UNL     1      35.162 -21.499 -18.722  0.00  0.00    +0.150 HD
ENDBRANCH  29  34
ENDBRANCH  25  27
ENDBRANCH   3  25
TORSDOF 6
ENDMDL
MODEL 3
REMARK VINA RESULT:     -12.5      1.684      2.273
REMARK  Name = 11167602
REMARK  6 active torsions:
REMARK  status: ('A' for Active; 'I' for Inactive)
REMARK    1  A    between atoms: C_2  and  N_10
REMARK    2  A    between atoms: C_3  and  O_25
REMARK    3  A    between atoms: N_9  and  C_15
REMARK    4  A    between atoms: C_16  and  C_24
REMARK    5  A    between atoms: O_25  and  C_27
REMARK    6  A    between atoms: C_29  and  C_34
REMARK                            x       y       z     vdW  Elec       q    Type
REMARK                         _______ _______ _______ _____ _____    ______ ____
ROOT
ATOM      1  F   UNL     1      32.866 -13.847 -25.204  0.00  0.00    -0.203 F 
ATOM      2  C   UNL     1      33.778 -13.822 -23.012  0.00  0.00    +0.079 C 
ATOM      3  C   UNL     1      34.651 -16.426 -23.369  0.00  0.00    +0.148 C 
ATOM      4  C   UNL     1      33.525 -14.463 -24.213  0.00  0.00    +0.157 C 
ATOM      5  C   UNL     1      34.461 -14.455 -21.986  0.00  0.00    +0.020 C 
ATOM      6  C   UNL     1      33.964 -15.775 -24.393  0.00  0.00    +0.068 C 
ATOM      7  C   UNL     1      34.899 -15.767 -22.165  0.00  0.00    +0.039 C 
ENDROOT
BRANCH   2  10
ATOM      8  O   UNL     1      34.723 -11.282 -24.269  0.00  0.00    -0.252 OA
ATOM      9  N   UNL     1      33.096 -10.199 -22.979  0.00  0.00    -0.268 N 
ATOM     10  N   UNL     1      33.335 -12.491 -22.827  0.00  0.00    -0.266 N 
ATOM     11  C   UNL     1      33.816 -11.326 -23.445  0.00  0.00    +0.308 C 
ATOM     12  H   UNL     1      32.392 -10.386 -22.316  0.00  0.00    +0.156 HD
ATOM     13  H   UNL     1      32.599 -12.367 -22.185  0.00  0.00    +0.156 HD
BRANCH   9  15
ATOM     14 CL   UNL     1      33.796  -4.528 -24.493  0.00  0.00    -0.082 Cl
ATOM     15  C   UNL     1      33.252  -8.858 -23.333  0.00  0.00    +0.052 C 
ATOM     16  C   UNL     1      32.399  -6.599 -23.403  0.00  0.00    +0.083 C 
ATOM     17  C   UNL     1      32.242  -7.939 -23.049  0.00  0.00    +0.019 C 
ATOM     18  C   UNL     1      34.418  -8.438 -23.972  0.00  0.00    +0.016 C 
ATOM     19  C   UNL     1      33.565  -6.179 -24.041  0.00  0.00    +0.062 C 
ATOM     20  C   UNL     1      34.575  -7.098 -24.326  0.00  0.00    +0.013 C 
BRANCH  16  24
ATOM     21  F   UNL     1      30.730  -5.072 -24.179  0.00  0.00    -0.166 F 
ATOM     22  F   UNL     1      30.260  -6.222 -22.402  0.00  0.00    -0.166 F 
ATOM     23  F   UNL     1      31.715  -4.609 -22.297  0.00  0.00    -0.166 F 
ATOM     24  C   UNL     1      31.295  -5.646 -23.079  0.00  0.00    +0.419 C 
ENDBRANCH  16  24
ENDBRANCH   9  15
ENDBRANCH   2  10
BRANCH   3  25
ATOM     25  O   UNL     1      35.080 -17.707 -23.543  0.00  0.00    -0.453 OA
BRANCH  25  27
ATOM     26  N   UNL     1      35.975 -19.927 -20.147  0.00  0.00    -0.239 NA
ATOM     27  C   UNL     1      35.377 -18.446 -22.411  0.00  0.00    +0.149 C 
ATOM     28  C   UNL     1      34.382 -19.181 -21.805  0.00  0.00    +0.061 C 
ATOM     29  C   UNL     1      34.731 -19.905 -20.676  0.00  0.00    +0.137 C 
ATOM     30  C   UNL     1      36.664 -18.431 -21.916  0.00  0.00    +0.058 C 
ATOM     31  C   UNL     1      36.911 -19.187 -20.782  0.00  0.00    +0.102 C 
BRANCH  29  34
ATOM     32  O   UNL     1      32.531 -20.612 -20.280  0.00  0.00    -0.268 OA
ATOM     33  N   UNL     1      34.201 -21.583 -18.995  0.00  0.00    -0.298 N 
ATOM     34  C   UNL     1      33.736 -20.705 -19.982  0.00  0.00    +0.264 C 
ATOM     35  C   UNL     1      33.339 -22.460 -18.235  0.00  0.00    +0.111 C 
ATOM     36  H   UNL     1      35.167 -21.605 -18.809  0.00  0.00    +0.150 HD
ENDBRANCH  29  34
ENDBRANCH  25  27
ENDBRANCH   3  25
TORSDOF 6
ENDMDL
MODEL 4
REMARK VINA RESULT:     -12.2      2.212      3.342
REMARK  Name = 11167602
REMARK  6 active torsions:
REMARK  status: ('A' for Active; 'I' for Inactive)
REMARK    1  A    between atoms: C_2  and  N_10
REMARK    2  A    between atoms: C_3  and  O_25
REMARK    3  A    between atoms: N_9  and  C_15
REMARK    4  A    between atoms: C_16  and  C_24
REMARK    5  A    between atoms: O_25  and  C_27
REMARK    6  A    between atoms: C_29  and  C_34
REMARK                            x       y       z     vdW  Elec       q    Type
REMARK                         _______ _______ _______ _____ _____    ______ ____
ROOT
ATOM      1  F   UNL     1      34.570 -17.352 -24.701  0.00  0.00    -0.203 F 
ATOM      2  C   UNL     1      34.911 -16.346 -22.577  0.00  0.00    +0.079 C 
ATOM      3  C   UNL     1      35.524 -18.833 -21.521  0.00  0.00    +0.148 C 
ATOM      4  C   UNL     1      34.885 -17.458 -23.403  0.00  0.00    +0.157 C 
ATOM      5  C   UNL     1      35.239 -16.451 -21.234  0.00  0.00    +0.020 C 
ATOM      6  C   UNL     1      35.194 -18.710 -22.871  0.00  0.00    +0.068 C 
ATOM      7  C   UNL     1      35.546 -17.704 -20.703  0.00  0.00    +0.039 C 
ENDROOT
BRANCH   2  10
ATOM      8  O   UNL     1      33.815 -13.908 -21.245  0.00  0.00    -0.252 OA
ATOM      9  N   UNL     1      33.917 -12.880 -23.348  0.00  0.00    -0.268 N 
ATOM     10  N   UNL     1      34.600 -15.074 -23.113  0.00  0.00    -0.266 N 
ATOM     11  C   UNL     1      34.084 -13.955 -22.441  0.00  0.00    +0.308 C 
ATOM     12  H   UNL     1      34.176 -13.065 -24.280  0.00  0.00    +0.156 HD
ATOM     13  H   UNL     1      34.767 -14.961 -24.077  0.00  0.00    +0.156 HD
BRANCH   9  15
ATOM     14 CL   UNL     1      31.838  -7.454 -22.265  0.00  0.00    -0.082 Cl
ATOM     15  C   UNL     1      33.434 -11.596 -23.096  0.00  0.00    +0.052 C 
ATOM     16  C   UNL     1      33.649  -9.199 -23.315  0.00  0.00    +0.083 C 
ATOM     17  C   UNL     1      34.133 -10.484 -23.567  0.00  0.00    +0.019 C 
ATOM     18  C   UNL     1      32.253 -11.424 -22.374  0.00  0.00    +0.016 C 
ATOM     19  C   UNL     1      32.468  -9.028 -22.594  0.00  0.00    +0.062 C 
ATOM     20  C   UNL     1      31.770 -10.140 -22.123  0.00  0.00    +0.013 C 
BRANCH  16  24
ATOM     21  F   UNL     1      35.325  -8.371 -24.806  0.00  0.00    -0.166 F 
ATOM     22  F   UNL     1      33.642  -7.065 -24.396  0.00  0.00    -0.166 F 
ATOM     23  F   UNL     1      35.147  -7.410 -22.864  0.00  0.00    -0.166 F 
ATOM     24  C   UNL     1      34.425  -8.034 -23.838  0.00  0.00    +0.419 C 
ENDBRANCH  16  24
ENDBRANCH   9  15
ENDBRANCH   2  10
BRANCH   3  25
ATOM     25  O   UNL     1      35.825 -20.055 -21.002  0.00  0.00    -0.453 OA
BRANCH  25  27
ATOM     26  N   UNL     1      33.042 -21.810 -18.464  0.00  0.00    -0.239 NA
ATOM     27  C   UNL     1      34.899 -20.641 -20.157  0.00  0.00    +0.149 C 
ATOM     28  C   UNL     1      35.340 -21.409 -19.101  0.00  0.00    +0.061 C 
ATOM     29  C   UNL     1      34.372 -21.972 -18.283  0.00  0.00    +0.137 C 
ATOM     30  C   UNL     1      33.554 -20.442 -20.390  0.00  0.00    +0.058 C 
ATOM     31  C   UNL     1      32.667 -21.048 -19.516  0.00  0.00    +0.102 C 
BRANCH  29  34
ATOM     32  O   UNL     1      34.041 -23.741 -16.782  0.00  0.00    -0.268 OA
ATOM     33  N   UNL     1      35.971 -22.482 -16.521  0.00  0.00    -0.298 N 
ATOM     34  C   UNL     1      34.759 -22.793 -17.150  0.00  0.00    +0.264 C 
ATOM     35  C   UNL     1      36.502 -23.219 -15.397  0.00  0.00    +0.111 C 
ATOM     36  H   UNL     1      36.489 -21.717 -16.862  0.00  0.00    +0.150 HD
ENDBRANCH  29  34
ENDBRANCH  25  27
ENDBRANCH   3  25
TORSDOF 6
ENDMDL
MODEL 5
REMARK VINA RESULT:     -12.2      7.227     13.822
REMARK  Name = 11167602
REMARK  6 active torsions:
REMARK  status: ('A' for Active; 'I' for Inactive)
REMARK    1  A    between atoms: C_2  and  N_10
REMARK    2  A    between atoms: C_3  and  O_25
REMARK    3  A    between atoms: N_9  and  C_15
REMARK    4  A    between atoms: C_16  and  C_24
REMARK    5  A    between atoms: O_25  and  C_27
REMARK    6  A    between atoms: C_29  and  C_34
REMARK                            x       y       z     vdW  Elec       q    Type
REMARK                         _______ _______ _______ _____ _____    ______ ____
ROOT
ATOM      1  F   UNL     1      33.108 -21.039 -19.659  0.00  0.00    -0.203 F 
ATOM      2  C   UNL     1      35.394 -21.258 -19.058  0.00  0.00    +0.079 C 
ATOM      3  C   UNL     1      36.063 -19.409 -21.010  0.00  0.00    +0.148 C 
ATOM      4  C   UNL     1      34.392 -20.700 -19.835  0.00  0.00    +0.157 C 
ATOM      5  C   UNL     1      36.724 -20.909 -19.235  0.00  0.00    +0.020 C 
ATOM      6  C   UNL     1      34.729 -19.770 -20.818  0.00  0.00    +0.068 C 
ATOM      7  C   UNL     1      37.060 -19.979 -20.219  0.00  0.00    +0.039 C 
ENDROOT
BRANCH   2  10
ATOM      8  O   UNL     1      36.325 -21.488 -16.229  0.00  0.00    -0.252 OA
ATOM      9  N   UNL     1      34.936 -23.368 -16.069  0.00  0.00    -0.268 N 
ATOM     10  N   UNL     1      35.056 -22.201 -18.059  0.00  0.00    -0.266 N 
ATOM     11  C   UNL     1      35.525 -22.266 -16.737  0.00  0.00    +0.308 C 
ATOM     12  H   UNL     1      34.309 -23.906 -16.604  0.00  0.00    +0.156 HD
ATOM     13  H   UNL     1      34.413 -22.898 -18.324  0.00  0.00    +0.156 HD
BRANCH   9  15
ATOM     14 CL   UNL     1      35.700 -25.148 -10.484  0.00  0.00    -0.082 Cl
ATOM     15  C   UNL     1      35.126 -23.790 -14.753  0.00  0.00    +0.052 C 
ATOM     16  C   UNL     1      36.585 -24.588 -13.001  0.00  0.00    +0.083 C 
ATOM     17  C   UNL     1      36.396 -24.166 -14.317  0.00  0.00    +0.019 C 
ATOM     18  C   UNL     1      34.044 -23.837 -13.873  0.00  0.00    +0.016 C 
ATOM     19  C   UNL     1      35.504 -24.633 -12.121  0.00  0.00    +0.062 C 
ATOM     20  C   UNL     1      34.234 -24.258 -12.557  0.00  0.00    +0.013 C 
BRANCH  16  24
ATOM     21  F   UNL     1      38.458 -24.208 -11.562  0.00  0.00    -0.166 F 
ATOM     22  F   UNL     1      38.047 -26.263 -12.119  0.00  0.00    -0.166 F 
ATOM     23  F   UNL     1      38.869 -24.885 -13.586  0.00  0.00    -0.166 F 
ATOM     24  C   UNL     1      37.962 -24.979 -12.572  0.00  0.00    +0.419 C 
ENDBRANCH  16  24
ENDBRANCH   9  15
ENDBRANCH   2  10
BRANCH   3  25
ATOM     25  O   UNL     1      36.391 -18.501 -21.969  0.00  0.00    -0.453 OA
BRANCH  25  27
ATOM     26  N   UNL     1      33.468 -17.475 -24.739  0.00  0.00    -0.239 NA
ATOM     27  C   UNL     1      35.417 -18.158 -22.891  0.00  0.00    +0.149 C 
ATOM     28  C   UNL     1      35.167 -16.827 -23.145  0.00  0.00    +0.061 C 
ATOM     29  C   UNL     1      34.183 -16.537 -24.077  0.00  0.00    +0.137 C 
ATOM     30  C   UNL     1      34.719 -19.158 -23.536  0.00  0.00    +0.058 C 
ATOM     31  C   UNL     1      33.755 -18.764 -24.450  0.00  0.00    +0.102 C 
BRANCH  29  34
ATOM     32  O   UNL     1      33.532 -14.837 -25.555  0.00  0.00    -0.268 OA
ATOM     33  N   UNL     1      33.922 -14.229 -23.352  0.00  0.00    -0.298 N 
ATOM     34  C   UNL     1      33.862 -15.157 -24.398  0.00  0.00    +0.264 C 
ATOM     35  C   UNL     1      33.610 -12.827 -23.507  0.00  0.00    +0.111 C 
ATOM     36  H   UNL     1      34.193 -14.549 -22.461  0.00  0.00    +0.150 HD
ENDBRANCH  29  34
ENDBRANCH  25  27
ENDBRANCH   3  25
TORSDOF 6
ENDMDL
MODEL 6
REMARK VINA RESULT:     -11.9      2.664      3.818
REMARK  Name = 11167602
REMARK  6 active torsions:
REMARK  status: ('A' for Active; 'I' for Inactive)
REMARK    1  A    between atoms: C_2  and  N_10
REMARK    2  A    between atoms: C_3  and  O_25
REMARK    3  A    between atoms: N_9  and  C_15
REMARK    4  A    between atoms: C_16  and  C_24
REMARK    5  A    between atoms: O_25  and  C_27
REMARK    6  A    between atoms: C_29  and  C_34
REMARK                            x       y       z     vdW  Elec       q    Type
REMARK                         _______ _______ _______ _____ _____    ______ ____
ROOT
ATOM      1  F   UNL     1      33.517 -17.672 -24.910  0.00  0.00    -0.203 F 
ATOM      2  C   UNL     1      34.588 -16.515 -23.135  0.00  0.00    +0.079 C 
ATOM      3  C   UNL     1      35.300 -18.943 -22.009  0.00  0.00    +0.148 C 
ATOM      4  C   UNL     1      34.214 -17.690 -23.766  0.00  0.00    +0.157 C 
ATOM      5  C   UNL     1      35.311 -16.528 -21.953  0.00  0.00    +0.020 C 
ATOM      6  C   UNL     1      34.573 -18.913 -23.199  0.00  0.00    +0.068 C 
ATOM      7  C   UNL     1      35.669 -17.751 -21.386  0.00  0.00    +0.039 C 
ENDROOT
BRANCH   2  10
ATOM      8  O   UNL     1      34.757 -13.752 -22.013  0.00  0.00    -0.252 OA
ATOM      9  N   UNL     1      33.856 -13.018 -24.048  0.00  0.00    -0.268 N 
ATOM     10  N   UNL     1      34.228 -15.273 -23.708  0.00  0.00    -0.266 N 
ATOM     11  C   UNL     1      34.327 -13.995 -23.136  0.00  0.00    +0.308 C 
ATOM     12  H   UNL     1      33.541 -13.361 -24.915  0.00  0.00    +0.156 HD
ATOM     13  H   UNL     1      33.861 -15.310 -24.622  0.00  0.00    +0.156 HD
BRANCH   9  15
ATOM     14 CL   UNL     1      33.571  -7.154 -23.361  0.00  0.00    -0.082 Cl
ATOM     15  C   UNL     1      33.781 -11.635 -23.880  0.00  0.00    +0.052 C 
ATOM     16  C   UNL     1      32.755  -9.704 -22.852  0.00  0.00    +0.083 C 
ATOM     17  C   UNL     1      32.829 -11.088 -23.020  0.00  0.00    +0.019 C 
ATOM     18  C   UNL     1      34.657 -10.801 -24.573  0.00  0.00    +0.016 C 
ATOM     19  C   UNL     1      33.632  -8.870 -23.545  0.00  0.00    +0.062 C 
ATOM     20  C   UNL     1      34.583  -9.418 -24.405  0.00  0.00    +0.013 C 
BRANCH  16  24
ATOM     21  F   UNL     1      32.249  -8.426 -20.895  0.00  0.00    -0.166 F 
ATOM     22  F   UNL     1      30.824  -8.331 -22.527  0.00  0.00    -0.166 F 
ATOM     23  F   UNL     1      30.983 -10.139 -21.329  0.00  0.00    -0.166 F 
ATOM     24  C   UNL     1      31.724  -9.158 -21.919  0.00  0.00    +0.419 C 
ENDBRANCH  16  24
ENDBRANCH   9  15
ENDBRANCH   2  10
BRANCH   3  25
ATOM     25  O   UNL     1      35.650 -20.137 -21.455  0.00  0.00    -0.453 OA
BRANCH  25  27
ATOM     26  N   UNL     1      33.228 -21.643 -18.432  0.00  0.00    -0.239 NA
ATOM     27  C   UNL     1      34.843 -20.640 -20.448  0.00  0.00    +0.149 C 
ATOM     28  C   UNL     1      35.419 -21.331 -19.405  0.00  0.00    +0.061 C 
ATOM     29  C   UNL     1      34.569 -21.813 -18.421  0.00  0.00    +0.137 C 
ATOM     30  C   UNL     1      33.481 -20.436 -20.512  0.00  0.00    +0.058 C 
ATOM     31  C   UNL     1      32.718 -20.958 -19.480  0.00  0.00    +0.102 C 
BRANCH  29  34
ATOM     32  O   UNL     1      34.441 -23.466 -16.764  0.00  0.00    -0.268 OA
ATOM     33  N   UNL     1      36.383 -22.200 -16.845  0.00  0.00    -0.298 N 
ATOM     34  C   UNL     1      35.102 -22.551 -17.289  0.00  0.00    +0.264 C 
ATOM     35  C   UNL     1      37.057 -22.856 -15.749  0.00  0.00    +0.111 C 
ATOM     36  H   UNL     1      36.849 -21.466 -17.305  0.00  0.00    +0.150 HD
ENDBRANCH  29  34
ENDBRANCH  25  27
ENDBRANCH   3  25
TORSDOF 6
ENDMDL
MODEL 7
REMARK VINA RESULT:     -11.9      7.258     13.061
REMARK  Name = 11167602
REMARK  6 active torsions:
REMARK  status: ('A' for Active; 'I' for Inactive)
REMARK    1  A    between atoms: C_2  and  N_10
REMARK    2  A    between atoms: C_3  and  O_25
REMARK    3  A    between atoms: N_9  and  C_15
REMARK    4  A    between atoms: C_16  and  C_24
REMARK    5  A    between atoms: O_25  and  C_27
REMARK    6  A    between atoms: C_29  and  C_34
REMARK                            x       y       z     vdW  Elec       q    Type
REMARK                         _______ _______ _______ _____ _____    ______ ____
ROOT
ATOM      1  F   UNL     1      37.252 -21.514 -18.434  0.00  0.00    -0.203 F 
ATOM      2  C   UNL     1      34.994 -21.236 -19.112  0.00  0.00    +0.079 C 
ATOM      3  C   UNL     1      35.829 -19.519 -21.119  0.00  0.00    +0.148 C 
ATOM      4  C   UNL     1      36.344 -20.963 -19.251  0.00  0.00    +0.157 C 
ATOM      5  C   UNL     1      34.052 -20.670 -19.956  0.00  0.00    +0.020 C 
ATOM      6  C   UNL     1      36.765 -20.098 -20.262  0.00  0.00    +0.068 C 
ATOM      7  C   UNL     1      34.472 -19.805 -20.965  0.00  0.00    +0.039 C 
ENDROOT
BRANCH   2  10
ATOM      8  O   UNL     1      32.254 -21.758 -18.043  0.00  0.00    -0.252 OA
ATOM      9  N   UNL     1      33.262 -23.288 -16.584  0.00  0.00    -0.268 N 
ATOM     10  N   UNL     1      34.564 -22.114 -18.089  0.00  0.00    -0.266 N 
ATOM     11  C   UNL     1      33.257 -22.323 -17.621  0.00  0.00    +0.308 C 
ATOM     12  H   UNL     1      34.144 -23.658 -16.350  0.00  0.00    +0.156 HD
ATOM     13  H   UNL     1      35.269 -22.643 -17.650  0.00  0.00    +0.156 HD
BRANCH   9  15
ATOM     14 CL   UNL     1      28.720 -25.409 -13.451  0.00  0.00    -0.082 Cl
ATOM     15  C   UNL     1      32.184 -23.784 -15.851  0.00  0.00    +0.052 C 
ATOM     16  C   UNL     1      29.801 -24.036 -15.543  0.00  0.00    +0.083 C 
ATOM     17  C   UNL     1      30.879 -23.540 -16.278  0.00  0.00    +0.019 C 
ATOM     18  C   UNL     1      32.412 -24.523 -14.690  0.00  0.00    +0.016 C 
ATOM     19  C   UNL     1      30.029 -24.777 -14.384  0.00  0.00    +0.062 C 
ATOM     20  C   UNL     1      31.334 -25.020 -13.957  0.00  0.00    +0.013 C 
BRANCH  16  24
ATOM     21  F   UNL     1      27.577 -23.297 -15.065  0.00  0.00    -0.166 F 
ATOM     22  F   UNL     1      28.373 -22.815 -17.024  0.00  0.00    -0.166 F 
ATOM     23  F   UNL     1      27.815 -24.864 -16.553  0.00  0.00    -0.166 F 
ATOM     24  C   UNL     1      28.419 -23.755 -16.036  0.00  0.00    +0.419 C 
ENDBRANCH  16  24
ENDBRANCH   9  15
ENDBRANCH   2  10
BRANCH   3  25
ATOM     25  O   UNL     1      36.239 -18.675 -22.105  0.00  0.00    -0.453 OA
BRANCH  25  27
ATOM     26  N   UNL     1      33.402 -17.402 -24.862  0.00  0.00    -0.239 NA
ATOM     27  C   UNL     1      35.293 -18.250 -23.023  0.00  0.00    +0.149 C 
ATOM     28  C   UNL     1      35.098 -16.900 -23.214  0.00  0.00    +0.061 C 
ATOM     29  C   UNL     1      34.141 -16.526 -24.145  0.00  0.00    +0.137 C 
ATOM     30  C   UNL     1      34.568 -19.189 -23.726  0.00  0.00    +0.058 C 
ATOM     31  C   UNL     1      33.635 -18.714 -24.632  0.00  0.00    +0.102 C 
BRANCH  29  34
ATOM     32  O   UNL     1      33.495 -14.745 -25.525  0.00  0.00    -0.268 OA
ATOM     33  N   UNL     1      34.056 -14.234 -23.333  0.00  0.00    -0.298 N 
ATOM     34  C   UNL     1      33.879 -15.121 -24.402  0.00  0.00    +0.264 C 
ATOM     35  C   UNL     1      33.813 -12.812 -23.425  0.00  0.00    +0.111 C 
ATOM     36  H   UNL     1      34.363 -14.598 -22.472  0.00  0.00    +0.150 HD
ENDBRANCH  29  34
ENDBRANCH  25  27
ENDBRANCH   3  25
TORSDOF 6
ENDMDL
MODEL 8
REMARK VINA RESULT:     -11.8      6.238     11.855
REMARK  Name = 11167602
REMARK  6 active torsions:
REMARK  status: ('A' for Active; 'I' for Inactive)
REMARK    1  A    between atoms: C_2  and  N_10
REMARK    2  A    between atoms: C_3  and  O_25
REMARK    3  A    between atoms: N_9  and  C_15
REMARK    4  A    between atoms: C_16  and  C_24
REMARK    5  A    between atoms: O_25  and  C_27
REMARK    6  A    between atoms: C_29  and  C_34
REMARK                            x       y       z     vdW  Elec       q    Type
REMARK                         _______ _______ _______ _____ _____    ______ ____
ROOT
ATOM      1  F   UNL     1      34.340 -19.854 -23.980  0.00  0.00    -0.203 F 
ATOM      2  C   UNL     1      35.166 -18.135 -22.565  0.00  0.00    +0.079 C 
ATOM      3  C   UNL     1      34.247 -16.241 -24.365  0.00  0.00    +0.148 C 
ATOM      4  C   UNL     1      34.524 -18.552 -23.720  0.00  0.00    +0.157 C 
ATOM      5  C   UNL     1      35.356 -16.790 -22.291  0.00  0.00    +0.020 C 
ATOM      6  C   UNL     1      34.062 -17.598 -24.626  0.00  0.00    +0.068 C 
ATOM      7  C   UNL     1      34.894 -15.836 -23.198  0.00  0.00    +0.039 C 
ENDROOT
BRANCH   2  10
ATOM      8  O   UNL     1      33.752 -19.500 -20.316  0.00  0.00    -0.252 OA
ATOM      9  N   UNL     1      35.768 -20.621 -19.910  0.00  0.00    -0.268 N 
ATOM     10  N   UNL     1      35.635 -19.099 -21.642  0.00  0.00    -0.266 N 
ATOM     11  C   UNL     1      34.927 -19.713 -20.597  0.00  0.00    +0.308 C 
ATOM     12  H   UNL     1      36.690 -20.689 -20.249  0.00  0.00    +0.156 HD
ATOM     13  H   UNL     1      36.575 -19.374 -21.746  0.00  0.00    +0.156 HD
BRANCH   9  15
ATOM     14 CL   UNL     1      34.442 -24.061 -15.289  0.00  0.00    -0.082 Cl
ATOM     15  C   UNL     1      35.465 -21.433 -18.816  0.00  0.00    +0.052 C 
ATOM     16  C   UNL     1      36.127 -22.492 -16.748  0.00  0.00    +0.083 C 
ATOM     17  C   UNL     1      36.432 -21.680 -17.842  0.00  0.00    +0.019 C 
ATOM     18  C   UNL     1      34.194 -21.996 -18.698  0.00  0.00    +0.016 C 
ATOM     19  C   UNL     1      34.856 -23.054 -16.630  0.00  0.00    +0.062 C 
ATOM     20  C   UNL     1      33.890 -22.807 -17.605  0.00  0.00    +0.013 C 
BRANCH  16  24
ATOM     21  F   UNL     1      36.955 -22.098 -14.539  0.00  0.00    -0.166 F 
ATOM     22  F   UNL     1      37.350 -24.047 -15.404  0.00  0.00    -0.166 F 
ATOM     23  F   UNL     1      38.415 -22.298 -16.137  0.00  0.00    -0.166 F 
ATOM     24  C   UNL     1      37.189 -22.730 -15.725  0.00  0.00    +0.419 C 
ENDBRANCH  16  24
ENDBRANCH   9  15
ENDBRANCH   2  10
BRANCH   3  25
ATOM     25  O   UNL     1      33.795 -15.309 -25.250  0.00  0.00    -0.453 OA
BRANCH  25  27
ATOM     26  N   UNL     1      33.104 -11.467 -23.826  0.00  0.00    -0.239 NA
ATOM     27  C   UNL     1      33.564 -14.030 -24.775  0.00  0.00    +0.149 C 
ATOM     28  C   UNL     1      33.071 -13.863 -23.499  0.00  0.00    +0.061 C 
ATOM     29  C   UNL     1      32.858 -12.562 -23.070  0.00  0.00    +0.137 C 
ATOM     30  C   UNL     1      33.832 -12.951 -25.590  0.00  0.00    +0.058 C 
ATOM     31  C   UNL     1      33.585 -11.691 -25.069  0.00  0.00    +0.102 C 
BRANCH  29  34
ATOM     32  O   UNL     1      32.343 -13.203 -20.875  0.00  0.00    -0.268 OA
ATOM     33  N   UNL     1      31.871 -11.012 -21.475  0.00  0.00    -0.298 N 
ATOM     34  C   UNL     1      32.341 -12.305 -21.737  0.00  0.00    +0.264 C 
ATOM     35  C   UNL     1      31.349 -10.596 -20.193  0.00  0.00    +0.111 C 
ATOM     36  H   UNL     1      31.898 -10.351 -22.203  0.00  0.00    +0.150 HD
ENDBRANCH  29  34
ENDBRANCH  25  27
ENDBRANCH   3  25
TORSDOF 6
ENDMDL
MODEL 9
REMARK VINA RESULT:     -11.6      6.923     12.561
REMARK  Name = 11167602
REMARK  6 active torsions:
REMARK  status: ('A' for Active; 'I' for Inactive)
REMARK    1  A    between atoms: C_2  and  N_10
REMARK    2  A    between atoms: C_3  and  O_25
REMARK    3  A    between atoms: N_9  and  C_15
REMARK    4  A    between atoms: C_16  and  C_24
REMARK    5  A    between atoms: O_25  and  C_27
REMARK    6  A    between atoms: C_29  and  C_34
REMARK                            x       y       z     vdW  Elec       q    Type
REMARK                         _______ _______ _______ _____ _____    ______ ____
ROOT
ATOM      1  F   UNL     1      37.406 -20.031 -19.380  0.00  0.00    -0.203 F 
ATOM      2  C   UNL     1      35.196 -20.535 -20.087  0.00  0.00    +0.079 C 
ATOM      3  C   UNL     1      35.540 -18.874 -22.277  0.00  0.00    +0.148 C 
ATOM      4  C   UNL     1      36.404 -19.877 -20.256  0.00  0.00    +0.157 C 
ATOM      5  C   UNL     1      34.157 -20.380 -20.991  0.00  0.00    +0.020 C 
ATOM      6  C   UNL     1      36.577 -19.041 -21.358  0.00  0.00    +0.068 C 
ATOM      7  C   UNL     1      34.330 -19.543 -22.093  0.00  0.00    +0.039 C 
ENDROOT
BRANCH   2  10
ATOM      8  O   UNL     1      32.711 -21.273 -18.603  0.00  0.00    -0.252 OA
ATOM      9  N   UNL     1      34.084 -22.590 -17.235  0.00  0.00    -0.268 N 
ATOM     10  N   UNL     1      35.018 -21.385 -18.970  0.00  0.00    -0.266 N 
ATOM     11  C   UNL     1      33.822 -21.700 -18.305  0.00  0.00    +0.308 C 
ATOM     12  H   UNL     1      35.026 -22.849 -17.116  0.00  0.00    +0.156 HD
ATOM     13  H   UNL     1      35.833 -21.807 -18.615  0.00  0.00    +0.156 HD
BRANCH   9  15
ATOM     14 CL   UNL     1      30.300 -24.976 -13.371  0.00  0.00    -0.082 Cl
ATOM     15  C   UNL     1      33.183 -23.149 -16.328  0.00  0.00    +0.052 C 
ATOM     16  C   UNL     1      30.911 -23.543 -15.607  0.00  0.00    +0.083 C 
ATOM     17  C   UNL     1      31.811 -22.983 -16.515  0.00  0.00    +0.019 C 
ATOM     18  C   UNL     1      33.656 -23.873 -15.233  0.00  0.00    +0.016 C 
ATOM     19  C   UNL     1      31.384 -24.267 -14.514  0.00  0.00    +0.062 C 
ATOM     20  C   UNL     1      32.755 -24.432 -14.326  0.00  0.00    +0.013 C 
BRANCH  16  24
ATOM     21  F   UNL     1      28.773 -24.507 -16.080  0.00  0.00    -0.166 F 
ATOM     22  F   UNL     1      28.801 -22.758 -14.797  0.00  0.00    -0.166 F 
ATOM     23  F   UNL     1      29.200 -22.550 -16.925  0.00  0.00    -0.166 F 
ATOM     24  C   UNL     1      29.449 -23.345 -15.845  0.00  0.00    +0.419 C 
ENDBRANCH  16  24
ENDBRANCH   9  15
ENDBRANCH   2  10
BRANCH   3  25
ATOM     25  O   UNL     1      35.709 -18.058 -23.353  0.00  0.00    -0.453 OA
BRANCH  25  27
ATOM     26  N   UNL     1      33.557 -14.504 -23.442  0.00  0.00    -0.239 NA
ATOM     27  C   UNL     1      34.991 -16.874 -23.382  0.00  0.00    +0.149 C 
ATOM     28  C   UNL     1      34.844 -16.146 -22.221  0.00  0.00    +0.061 C 
ATOM     29  C   UNL     1      34.119 -14.968 -22.303  0.00  0.00    +0.137 C 
ATOM     30  C   UNL     1      34.440 -16.450 -24.573  0.00  0.00    +0.058 C 
ATOM     31  C   UNL     1      33.732 -15.259 -24.549  0.00  0.00    +0.102 C 
BRANCH  29  34
ATOM     32  O   UNL     1      34.789 -14.100 -20.231  0.00  0.00    -0.268 OA
ATOM     33  N   UNL     1      32.735 -13.405 -21.053  0.00  0.00    -0.298 N 
ATOM     34  C   UNL     1      33.921 -14.146 -21.122  0.00  0.00    +0.264 C 
ATOM     35  C   UNL     1      32.404 -12.525 -19.956  0.00  0.00    +0.111 C 
ATOM     36  H   UNL     1      32.090 -13.489 -21.792  0.00  0.00    +0.150 HD
ENDBRANCH  29  34
ENDBRANCH  25  27
ENDBRANCH   3  25
TORSDOF 6
ENDMDL
