MODEL 1
REMARK VINA RESULT:     -11.9      0.000      0.000
REMARK  Name = 9976892
REMARK  4 active torsions:
REMARK  status: ('A' for Active; 'I' for Inactive)
REMARK    1  A    between atoms: N_1  and  C_13
REMARK    2  A    between atoms: C_10  and  O_17
REMARK    3  A    between atoms: O_17  and  C_20
REMARK    4  A    between atoms: C_19  and  N_25
REMARK                            x       y       z     vdW  Elec       q    Type
REMARK                         _______ _______ _______ _____ _____    ______ ____
ROOT
ATOM      1  N   UNL     1      33.050  -6.356 -22.386  0.00  0.00    +0.389 N 
ATOM      2  C   UNL     1      32.068  -7.448 -22.458  0.00  0.00    -0.073 C 
ATOM      3  C   UNL     1      34.078  -6.427 -23.437  0.00  0.00    -0.073 C 
ATOM      4  C   UNL     1      32.642  -8.810 -22.055  0.00  0.00    +0.003 C 
ATOM      5  C   UNL     1      35.072  -7.575 -23.237  0.00  0.00    +0.003 C 
ATOM      6  C   UNL     1      33.406  -9.490 -23.163  0.00  0.00    -0.025 C 
ATOM      7  C   UNL     1      34.556  -8.905 -23.722  0.00  0.00    -0.028 C 
ATOM      8  C   UNL     1      32.970 -10.738 -23.637  0.00  0.00    +0.033 C 
ATOM      9  C   UNL     1      35.244  -9.583 -24.743  0.00  0.00    -0.002 C 
ATOM     10  C   UNL     1      33.660 -11.398 -24.654  0.00  0.00    +0.147 C 
ATOM     11  C   UNL     1      34.797 -10.820 -25.206  0.00  0.00    +0.037 C 
ATOM     12  H   UNL     1      33.531  -6.435 -21.490  0.00  0.00    -0.080 HD
ENDROOT
BRANCH   1  13
ATOM     13  C   UNL     1      32.346  -5.106 -22.517  0.00  0.00    -0.058 C 
ATOM     14  C   UNL     1      32.731  -4.392 -23.829  0.00  0.00    -0.021 C 
ATOM     15  C   UNL     1      30.949  -5.323 -23.134  0.00  0.00    -0.021 C 
ATOM     16  C   UNL     1      31.230  -4.086 -24.013  0.00  0.00    -0.004 C 
ENDBRANCH   1  13
BRANCH  10  17
ATOM     17  O   UNL     1      33.222 -12.605 -25.101  0.00  0.00    -0.436 OA
BRANCH  17  20
ATOM     18  N   UNL     1      33.679 -14.880 -25.138  0.00  0.00    -0.209 NA
ATOM     19  C   UNL     1      34.499 -15.972 -23.142  0.00  0.00    +0.073 C 
ATOM     20  C   UNL     1      33.655 -13.737 -24.430  0.00  0.00    +0.230 C 
ATOM     21  C   UNL     1      34.456 -14.764 -22.456  0.00  0.00    +0.021 C 
ATOM     22  C   UNL     1      34.103 -15.977 -24.470  0.00  0.00    +0.117 C 
ATOM     23  C   UNL     1      34.025 -13.614 -23.107  0.00  0.00    +0.059 C 
BRANCH  19  25
ATOM     24  O   UNL     1      35.313 -16.488 -20.243  0.00  0.00    -0.275 OA
ATOM     25  N   UNL     1      34.936 -17.168 -22.500  0.00  0.00    -0.257 N 
ATOM     26  C   UNL     1      35.191 -19.463 -22.145  0.00  0.00    +0.031 C 
ATOM     27  C   UNL     1      35.142 -18.406 -23.227  0.00  0.00    +0.099 C 
ATOM     28  C   UNL     1      35.789 -18.729 -20.962  0.00  0.00    +0.087 C 
ATOM     29  C   UNL     1      35.300 -17.311 -21.147  0.00  0.00    +0.229 C 
ENDBRANCH  19  25
ENDBRANCH  17  20
ENDBRANCH  10  17
TORSDOF 4
ENDMDL
MODEL 2
REMARK VINA RESULT:     -11.4      2.140      3.777
REMARK  Name = 9976892
REMARK  4 active torsions:
REMARK  status: ('A' for Active; 'I' for Inactive)
REMARK    1  A    between atoms: N_1  and  C_13
REMARK    2  A    between atoms: C_10  and  O_17
REMARK    3  A    between atoms: O_17  and  C_20
REMARK    4  A    between atoms: C_19  and  N_25
REMARK                            x       y       z     vdW  Elec       q    Type
REMARK                         _______ _______ _______ _____ _____    ______ ____
ROOT
ATOM      1  N   UNL     1      32.347  -8.760 -22.110  0.00  0.00    +0.389 N 
ATOM      2  C   UNL     1      33.412  -9.244 -23.001  0.00  0.00    -0.073 C 
ATOM      3  C   UNL     1      32.102  -9.645 -20.961  0.00  0.00    -0.073 C 
ATOM      4  C   UNL     1      33.013 -10.483 -23.810  0.00  0.00    +0.003 C 
ATOM      5  C   UNL     1      31.427 -10.966 -21.344  0.00  0.00    +0.003 C 
ATOM      6  C   UNL     1      33.142 -11.771 -23.037  0.00  0.00    -0.025 C 
ATOM      7  C   UNL     1      32.391 -11.999 -21.869  0.00  0.00    -0.028 C 
ATOM      8  C   UNL     1      34.016 -12.768 -23.497  0.00  0.00    +0.033 C 
ATOM      9  C   UNL     1      32.532 -13.222 -21.190  0.00  0.00    -0.002 C 
ATOM     10  C   UNL     1      34.150 -13.975 -22.810  0.00  0.00    +0.147 C 
ATOM     11  C   UNL     1      33.407 -14.201 -21.657  0.00  0.00    +0.037 C 
ATOM     12  H   UNL     1      31.485  -8.728 -22.655  0.00  0.00    -0.080 HD
ENDROOT
BRANCH   1  13
ATOM     13  C   UNL     1      32.727  -7.461 -21.616  0.00  0.00    -0.058 C 
ATOM     14  C   UNL     1      31.544  -6.475 -21.694  0.00  0.00    -0.021 C 
ATOM     15  C   UNL     1      32.585  -7.394 -20.082  0.00  0.00    -0.021 C 
ATOM     16  C   UNL     1      31.944  -6.004 -20.280  0.00  0.00    -0.004 C 
ENDBRANCH   1  13
BRANCH  10  17
ATOM     17  O   UNL     1      35.003 -14.929 -23.270  0.00  0.00    -0.436 OA
BRANCH  17  20
ATOM     18  N   UNL     1      35.286 -16.057 -21.263  0.00  0.00    -0.209 NA
ATOM     19  C   UNL     1      35.159 -18.472 -21.214  0.00  0.00    +0.073 C 
ATOM     20  C   UNL     1      35.054 -16.132 -22.585  0.00  0.00    +0.230 C 
ATOM     21  C   UNL     1      34.921 -18.494 -22.583  0.00  0.00    +0.021 C 
ATOM     22  C   UNL     1      35.333 -17.239 -20.606  0.00  0.00    +0.117 C 
ATOM     23  C   UNL     1      34.866 -17.300 -23.294  0.00  0.00    +0.059 C 
BRANCH  19  25
ATOM     24  O   UNL     1      32.949 -20.408 -20.375  0.00  0.00    -0.275 OA
ATOM     25  N   UNL     1      35.221 -19.680 -20.459  0.00  0.00    -0.257 N 
ATOM     26  C   UNL     1      36.165 -21.610 -19.539  0.00  0.00    +0.031 C 
ATOM     27  C   UNL     1      36.456 -20.161 -19.868  0.00  0.00    +0.099 C 
ATOM     28  C   UNL     1      34.682 -21.609 -19.226  0.00  0.00    +0.087 C 
ATOM     29  C   UNL     1      34.139 -20.511 -20.111  0.00  0.00    +0.229 C 
ENDBRANCH  19  25
ENDBRANCH  17  20
ENDBRANCH  10  17
TORSDOF 4
ENDMDL
MODEL 3
REMARK VINA RESULT:     -11.3      8.665     15.301
REMARK  Name = 9976892
REMARK  4 active torsions:
REMARK  status: ('A' for Active; 'I' for Inactive)
REMARK    1  A    between atoms: N_1  and  C_13
REMARK    2  A    between atoms: C_10  and  O_17
REMARK    3  A    between atoms: O_17  and  C_20
REMARK    4  A    between atoms: C_19  and  N_25
REMARK                            x       y       z     vdW  Elec       q    Type
REMARK                         _______ _______ _______ _____ _____    ______ ____
ROOT
ATOM      1  N   UNL     1      37.871 -24.550 -13.284  0.00  0.00    +0.389 N 
ATOM      2  C   UNL     1      37.790 -24.196 -14.709  0.00  0.00    -0.073 C 
ATOM      3  C   UNL     1      36.615 -25.097 -12.747  0.00  0.00    -0.073 C 
ATOM      4  C   UNL     1      36.925 -22.961 -14.981  0.00  0.00    +0.003 C 
ATOM      5  C   UNL     1      35.506 -24.049 -12.608  0.00  0.00    +0.003 C 
ATOM      6  C   UNL     1      35.447 -23.261 -15.022  0.00  0.00    -0.025 C 
ATOM      7  C   UNL     1      34.776 -23.776 -13.898  0.00  0.00    -0.028 C 
ATOM      8  C   UNL     1      34.723 -23.008 -16.198  0.00  0.00    +0.033 C 
ATOM      9  C   UNL     1      33.395 -24.025 -13.977  0.00  0.00    -0.002 C 
ATOM     10  C   UNL     1      33.354 -23.264 -16.264  0.00  0.00    +0.147 C 
ATOM     11  C   UNL     1      32.691 -23.772 -15.153  0.00  0.00    +0.037 C 
ATOM     12  H   UNL     1      38.070 -23.692 -12.767  0.00  0.00    -0.080 HD
ENDROOT
BRANCH   1  13
ATOM     13  C   UNL     1      38.907 -25.536 -13.122  0.00  0.00    -0.058 C 
ATOM     14  C   UNL     1      38.757 -26.668 -14.158  0.00  0.00    -0.021 C 
ATOM     15  C   UNL     1      40.187 -25.119 -13.875  0.00  0.00    -0.021 C 
ATOM     16  C   UNL     1      40.284 -26.580 -14.362  0.00  0.00    -0.004 C 
ENDBRANCH   1  13
BRANCH  10  17
ATOM     17  O   UNL     1      32.669 -23.015 -17.413  0.00  0.00    -0.436 OA
BRANCH  17  20
ATOM     18  N   UNL     1      32.447 -21.302 -18.962  0.00  0.00    -0.209 NA
ATOM     19  C   UNL     1      34.387 -20.525 -20.179  0.00  0.00    +0.073 C 
ATOM     20  C   UNL     1      33.260 -22.178 -18.346  0.00  0.00    +0.230 C 
ATOM     21  C   UNL     1      35.183 -21.449 -19.513  0.00  0.00    +0.021 C 
ATOM     22  C   UNL     1      33.036 -20.492 -19.871  0.00  0.00    +0.117 C 
ATOM     23  C   UNL     1      34.615 -22.300 -18.572  0.00  0.00    +0.059 C 
BRANCH  19  25
ATOM     24  O   UNL     1      36.851 -18.725 -20.047  0.00  0.00    -0.275 OA
ATOM     25  N   UNL     1      34.942 -19.640 -21.150  0.00  0.00    -0.257 N 
ATOM     26  C   UNL     1      35.395 -18.759 -23.266  0.00  0.00    +0.031 C 
ATOM     27  C   UNL     1      34.306 -19.398 -22.430  0.00  0.00    +0.099 C 
ATOM     28  C   UNL     1      36.220 -17.999 -22.247  0.00  0.00    +0.087 C 
ATOM     29  C   UNL     1      36.088 -18.836 -20.996  0.00  0.00    +0.229 C 
ENDBRANCH  19  25
ENDBRANCH  17  20
ENDBRANCH  10  17
TORSDOF 4
ENDMDL
MODEL 4
REMARK VINA RESULT:     -10.8      5.666     13.777
REMARK  Name = 9976892
REMARK  4 active torsions:
REMARK  status: ('A' for Active; 'I' for Inactive)
REMARK    1  A    between atoms: N_1  and  C_13
REMARK    2  A    between atoms: C_10  and  O_17
REMARK    3  A    between atoms: O_17  and  C_20
REMARK    4  A    between atoms: C_19  and  N_25
REMARK                            x       y       z     vdW  Elec       q    Type
REMARK                         _______ _______ _______ _____ _____    ______ ____
ROOT
ATOM      1  N   UNL     1      35.736 -24.082 -14.647  0.00  0.00    +0.389 N 
ATOM      2  C   UNL     1      36.950 -23.578 -15.306  0.00  0.00    -0.073 C 
ATOM      3  C   UNL     1      34.607 -24.271 -15.571  0.00  0.00    -0.073 C 
ATOM      4  C   UNL     1      36.836 -22.116 -15.753  0.00  0.00    +0.003 C 
ATOM      5  C   UNL     1      34.004 -22.954 -16.070  0.00  0.00    +0.003 C 
ATOM      6  C   UNL     1      36.112 -21.944 -17.064  0.00  0.00    -0.025 C 
ATOM      7  C   UNL     1      34.771 -22.341 -17.214  0.00  0.00    -0.028 C 
ATOM      8  C   UNL     1      36.782 -21.363 -18.152  0.00  0.00    +0.033 C 
ATOM      9  C   UNL     1      34.131 -22.147 -18.450  0.00  0.00    -0.002 C 
ATOM     10  C   UNL     1      36.136 -21.181 -19.375  0.00  0.00    +0.147 C 
ATOM     11  C   UNL     1      34.811 -21.572 -19.523  0.00  0.00    +0.037 C 
ATOM     12  H   UNL     1      35.449 -23.384 -13.960  0.00  0.00    -0.080 HD
ENDROOT
BRANCH   1  13
ATOM     13  C   UNL     1      36.047 -25.350 -14.038  0.00  0.00    -0.058 C 
ATOM     14  C   UNL     1      37.507 -25.755 -14.323  0.00  0.00    -0.021 C 
ATOM     15  C   UNL     1      36.467 -25.164 -12.565  0.00  0.00    -0.021 C 
ATOM     16  C   UNL     1      37.600 -26.174 -12.841  0.00  0.00    -0.004 C 
ENDBRANCH   1  13
BRANCH  10  17
ATOM     17  O   UNL     1      36.802 -20.618 -20.419  0.00  0.00    -0.436 OA
BRANCH  17  20
ATOM     18  N   UNL     1      36.227 -18.374 -20.285  0.00  0.00    -0.209 NA
ATOM     19  C   UNL     1      35.140 -17.299 -22.159  0.00  0.00    +0.073 C 
ATOM     20  C   UNL     1      36.238 -19.503 -21.017  0.00  0.00    +0.230 C 
ATOM     21  C   UNL     1      35.177 -18.492 -22.873  0.00  0.00    +0.021 C 
ATOM     22  C   UNL     1      35.673 -17.293 -20.880  0.00  0.00    +0.117 C 
ATOM     23  C   UNL     1      35.738 -19.626 -22.296  0.00  0.00    +0.059 C 
BRANCH  19  25
ATOM     24  O   UNL     1      34.156 -16.731 -24.995  0.00  0.00    -0.275 OA
ATOM     25  N   UNL     1      34.570 -16.121 -22.725  0.00  0.00    -0.257 N 
ATOM     26  C   UNL     1      33.448 -14.072 -22.779  0.00  0.00    +0.031 C 
ATOM     27  C   UNL     1      34.436 -14.888 -21.972  0.00  0.00    +0.099 C 
ATOM     28  C   UNL     1      33.715 -14.507 -24.206  0.00  0.00    +0.087 C 
ATOM     29  C   UNL     1      34.149 -15.947 -24.057  0.00  0.00    +0.229 C 
ENDBRANCH  19  25
ENDBRANCH  17  20
ENDBRANCH  10  17
TORSDOF 4
ENDMDL
MODEL 5
REMARK VINA RESULT:     -10.7      4.091      6.667
REMARK  Name = 9976892
REMARK  4 active torsions:
REMARK  status: ('A' for Active; 'I' for Inactive)
REMARK    1  A    between atoms: N_1  and  C_13
REMARK    2  A    between atoms: C_10  and  O_17
REMARK    3  A    between atoms: O_17  and  C_20
REMARK    4  A    between atoms: C_19  and  N_25
REMARK                            x       y       z     vdW  Elec       q    Type
REMARK                         _______ _______ _______ _____ _____    ______ ____
ROOT
ATOM      1  N   UNL     1      32.818 -12.793 -21.514  0.00  0.00    +0.389 N 
ATOM      2  C   UNL     1      33.438 -13.791 -20.630  0.00  0.00    -0.073 C 
ATOM      3  C   UNL     1      32.373 -13.351 -22.801  0.00  0.00    -0.073 C 
ATOM      4  C   UNL     1      34.817 -14.257 -21.111  0.00  0.00    +0.003 C 
ATOM      5  C   UNL     1      33.529 -13.723 -23.735  0.00  0.00    +0.003 C 
ATOM      6  C   UNL     1      34.752 -15.317 -22.181  0.00  0.00    -0.025 C 
ATOM      7  C   UNL     1      34.143 -15.064 -23.423  0.00  0.00    -0.028 C 
ATOM      8  C   UNL     1      35.324 -16.577 -21.941  0.00  0.00    +0.033 C 
ATOM      9  C   UNL     1      34.120 -16.077 -24.396  0.00  0.00    -0.002 C 
ATOM     10  C   UNL     1      35.290 -17.575 -22.914  0.00  0.00    +0.147 C 
ATOM     11  C   UNL     1      34.688 -17.324 -24.142  0.00  0.00    +0.037 C 
ATOM     12  H   UNL     1      33.525 -12.087 -21.722  0.00  0.00    -0.080 HD
ENDROOT
BRANCH   1  13
ATOM     13  C   UNL     1      31.676 -12.237 -20.836  0.00  0.00    -0.058 C 
ATOM     14  C   UNL     1      32.104 -11.503 -19.548  0.00  0.00    -0.021 C 
ATOM     15  C   UNL     1      31.314 -10.853 -21.413  0.00  0.00    -0.021 C 
ATOM     16  C   UNL     1      31.128 -10.379 -19.956  0.00  0.00    -0.004 C 
ENDBRANCH   1  13
BRANCH  10  17
ATOM     17  O   UNL     1      35.847 -18.790 -22.663  0.00  0.00    -0.436 OA
BRANCH  17  20
ATOM     18  N   UNL     1      36.197 -20.048 -20.745  0.00  0.00    -0.209 NA
ATOM     19  C   UNL     1      34.309 -21.014 -19.582  0.00  0.00    +0.073 C 
ATOM     20  C   UNL     1      35.317 -19.540 -21.626  0.00  0.00    +0.230 C 
ATOM     21  C   UNL     1      33.442 -20.466 -20.520  0.00  0.00    +0.021 C 
ATOM     22  C   UNL     1      35.666 -20.779 -19.738  0.00  0.00    +0.117 C 
ATOM     23  C   UNL     1      33.950 -19.710 -21.571  0.00  0.00    +0.059 C 
BRANCH  19  25
ATOM     24  O   UNL     1      35.803 -22.529 -17.390  0.00  0.00    -0.275 OA
ATOM     25  N   UNL     1      33.818 -21.795 -18.495  0.00  0.00    -0.257 N 
ATOM     26  C   UNL     1      32.308 -22.539 -16.875  0.00  0.00    +0.031 C 
ATOM     27  C   UNL     1      32.405 -22.059 -18.308  0.00  0.00    +0.099 C 
ATOM     28  C   UNL     1      33.633 -23.239 -16.648  0.00  0.00    +0.087 C 
ATOM     29  C   UNL     1      34.590 -22.469 -17.528  0.00  0.00    +0.229 C 
ENDBRANCH  19  25
ENDBRANCH  17  20
ENDBRANCH  10  17
TORSDOF 4
ENDMDL
MODEL 6
REMARK VINA RESULT:     -10.5      3.293      6.169
REMARK  Name = 9976892
REMARK  4 active torsions:
REMARK  status: ('A' for Active; 'I' for Inactive)
REMARK    1  A    between atoms: N_1  and  C_13
REMARK    2  A    between atoms: C_10  and  O_17
REMARK    3  A    between atoms: O_17  and  C_20
REMARK    4  A    between atoms: C_19  and  N_25
REMARK                            x       y       z     vdW  Elec       q    Type
REMARK                         _______ _______ _______ _____ _____    ______ ____
ROOT
ATOM      1  N   UNL     1      33.307 -11.919 -24.494  0.00  0.00    +0.389 N 
ATOM      2  C   UNL     1      33.891 -13.037 -25.249  0.00  0.00    -0.073 C 
ATOM      3  C   UNL     1      33.726 -11.887 -23.083  0.00  0.00    -0.073 C 
ATOM      4  C   UNL     1      33.315 -14.402 -24.860  0.00  0.00    +0.003 C 
ATOM      5  C   UNL     1      33.113 -13.011 -22.242  0.00  0.00    +0.003 C 
ATOM      6  C   UNL     1      33.938 -14.983 -23.615  0.00  0.00    -0.025 C 
ATOM      7  C   UNL     1      33.842 -14.324 -22.376  0.00  0.00    -0.028 C 
ATOM      8  C   UNL     1      34.614 -16.211 -23.689  0.00  0.00    +0.033 C 
ATOM      9  C   UNL     1      34.425 -14.910 -21.239  0.00  0.00    -0.002 C 
ATOM     10  C   UNL     1      35.192 -16.779 -22.554  0.00  0.00    +0.147 C 
ATOM     11  C   UNL     1      35.096 -16.129 -21.329  0.00  0.00    +0.037 C 
ATOM     12  H   UNL     1      32.293 -12.041 -24.503  0.00  0.00    -0.080 HD
ENDROOT
BRANCH   1  13
ATOM     13  C   UNL     1      33.713 -10.688 -25.121  0.00  0.00    -0.058 C 
ATOM     14  C   UNL     1      34.583  -9.845 -24.167  0.00  0.00    -0.021 C 
ATOM     15  C   UNL     1      34.983 -10.897 -25.972  0.00  0.00    -0.021 C 
ATOM     16  C   UNL     1      35.509  -9.576 -25.372  0.00  0.00    -0.004 C 
ENDBRANCH   1  13
BRANCH  10  17
ATOM     17  O   UNL     1      35.845 -17.969 -22.645  0.00  0.00    -0.436 OA
BRANCH  17  20
ATOM     18  N   UNL     1      34.376 -19.400 -21.561  0.00  0.00    -0.209 NA
ATOM     19  C   UNL     1      35.154 -20.737 -19.702  0.00  0.00    +0.073 C 
ATOM     20  C   UNL     1      35.623 -18.904 -21.647  0.00  0.00    +0.230 C 
ATOM     21  C   UNL     1      36.427 -20.193 -19.835  0.00  0.00    +0.021 C 
ATOM     22  C   UNL     1      34.172 -20.312 -20.582  0.00  0.00    +0.117 C 
ATOM     23  C   UNL     1      36.675 -19.253 -20.828  0.00  0.00    +0.059 C 
BRANCH  19  25
ATOM     24  O   UNL     1      36.771 -21.590 -17.255  0.00  0.00    -0.275 OA
ATOM     25  N   UNL     1      34.869 -21.703 -18.692  0.00  0.00    -0.257 N 
ATOM     26  C   UNL     1      33.572 -23.088 -17.328  0.00  0.00    +0.031 C 
ATOM     27  C   UNL     1      33.688 -22.543 -18.737  0.00  0.00    +0.099 C 
ATOM     28  C   UNL     1      35.013 -23.179 -16.867  0.00  0.00    +0.087 C 
ATOM     29  C   UNL     1      35.685 -22.037 -17.595  0.00  0.00    +0.229 C 
ENDBRANCH  19  25
ENDBRANCH  17  20
ENDBRANCH  10  17
TORSDOF 4
ENDMDL
MODEL 7
REMARK VINA RESULT:     -10.5      7.176     13.286
REMARK  Name = 9976892
REMARK  4 active torsions:
REMARK  status: ('A' for Active; 'I' for Inactive)
REMARK    1  A    between atoms: N_1  and  C_13
REMARK    2  A    between atoms: C_10  and  O_17
REMARK    3  A    between atoms: O_17  and  C_20
REMARK    4  A    between atoms: C_19  and  N_25
REMARK                            x       y       z     vdW  Elec       q    Type
REMARK                         _______ _______ _______ _____ _____    ______ ____
ROOT
ATOM      1  N   UNL     1      31.743 -23.505 -15.531  0.00  0.00    +0.389 N 
ATOM      2  C   UNL     1      31.973 -22.773 -16.784  0.00  0.00    -0.073 C 
ATOM      3  C   UNL     1      32.778 -23.260 -14.514  0.00  0.00    -0.073 C 
ATOM      4  C   UNL     1      33.154 -23.314 -17.597  0.00  0.00    +0.003 C 
ATOM      5  C   UNL     1      34.126 -23.905 -14.853  0.00  0.00    +0.003 C 
ATOM      6  C   UNL     1      34.492 -22.813 -17.116  0.00  0.00    -0.025 C 
ATOM      7  C   UNL     1      34.952 -23.093 -15.817  0.00  0.00    -0.028 C 
ATOM      8  C   UNL     1      35.302 -22.064 -17.985  0.00  0.00    +0.033 C 
ATOM      9  C   UNL     1      36.213 -22.618 -15.418  0.00  0.00    -0.002 C 
ATOM     10  C   UNL     1      36.550 -21.595 -17.574  0.00  0.00    +0.147 C 
ATOM     11  C   UNL     1      37.005 -21.873 -16.290  0.00  0.00    +0.037 C 
ATOM     12  H   UNL     1      31.767 -24.502 -15.750  0.00  0.00    -0.080 HD
ENDROOT
BRANCH   1  13
ATOM     13  C   UNL     1      30.469 -23.097 -14.996  0.00  0.00    -0.058 C 
ATOM     14  C   UNL     1      29.455 -22.836 -16.127  0.00  0.00    -0.021 C 
ATOM     15  C   UNL     1      29.614 -24.323 -14.614  0.00  0.00    -0.021 C 
ATOM     16  C   UNL     1      28.421 -23.598 -15.272  0.00  0.00    -0.004 C 
ENDBRANCH   1  13
BRANCH  10  17
ATOM     17  O   UNL     1      37.321 -20.871 -18.429  0.00  0.00    -0.436 OA
BRANCH  17  20
ATOM     18  N   UNL     1      37.342 -19.208 -20.047  0.00  0.00    -0.209 NA
ATOM     19  C   UNL     1      35.479 -18.995 -21.575  0.00  0.00    +0.073 C 
ATOM     20  C   UNL     1      36.690 -20.244 -19.491  0.00  0.00    +0.230 C 
ATOM     21  C   UNL     1      34.847 -20.073 -20.965  0.00  0.00    +0.021 C 
ATOM     22  C   UNL     1      36.715 -18.605 -21.083  0.00  0.00    +0.117 C 
ATOM     23  C   UNL     1      35.460 -20.718 -19.896  0.00  0.00    +0.059 C 
BRANCH  19  25
ATOM     24  O   UNL     1      35.490 -16.033 -22.322  0.00  0.00    -0.275 OA
ATOM     25  N   UNL     1      34.875 -18.313 -22.672  0.00  0.00    -0.257 N 
ATOM     26  C   UNL     1      33.957 -18.029 -24.802  0.00  0.00    +0.031 C 
ATOM     27  C   UNL     1      34.031 -18.992 -23.636  0.00  0.00    +0.099 C 
ATOM     28  C   UNL     1      34.058 -16.669 -24.141  0.00  0.00    +0.087 C 
ATOM     29  C   UNL     1      34.929 -16.930 -22.934  0.00  0.00    +0.229 C 
ENDBRANCH  19  25
ENDBRANCH  17  20
ENDBRANCH  10  17
TORSDOF 4
ENDMDL
MODEL 8
REMARK VINA RESULT:     -10.1      4.026      6.178
REMARK  Name = 9976892
REMARK  4 active torsions:
REMARK  status: ('A' for Active; 'I' for Inactive)
REMARK    1  A    between atoms: N_1  and  C_13
REMARK    2  A    between atoms: C_10  and  O_17
REMARK    3  A    between atoms: O_17  and  C_20
REMARK    4  A    between atoms: C_19  and  N_25
REMARK                            x       y       z     vdW  Elec       q    Type
REMARK                         _______ _______ _______ _____ _____    ______ ____
ROOT
ATOM      1  N   UNL     1      32.871 -12.564 -21.150  0.00  0.00    +0.389 N 
ATOM      2  C   UNL     1      33.333 -13.781 -20.465  0.00  0.00    -0.073 C 
ATOM      3  C   UNL     1      32.434 -12.806 -22.534  0.00  0.00    -0.073 C 
ATOM      4  C   UNL     1      34.675 -14.302 -20.990  0.00  0.00    +0.003 C 
ATOM      5  C   UNL     1      33.588 -13.122 -23.490  0.00  0.00    +0.003 C 
ATOM      6  C   UNL     1      34.549 -15.120 -22.251  0.00  0.00    -0.025 C 
ATOM      7  C   UNL     1      34.034 -14.560 -23.434  0.00  0.00    -0.028 C 
ATOM      8  C   UNL     1      34.966 -16.460 -22.250  0.00  0.00    +0.033 C 
ATOM      9  C   UNL     1      33.950 -15.356 -24.590  0.00  0.00    -0.002 C 
ATOM     10  C   UNL     1      34.873 -17.239 -23.402  0.00  0.00    +0.147 C 
ATOM     11  C   UNL     1      34.365 -16.687 -24.572  0.00  0.00    +0.037 C 
ATOM     12  H   UNL     1      33.661 -11.919 -21.193  0.00  0.00    -0.080 HD
ENDROOT
BRANCH   1  13
ATOM     13  C   UNL     1      31.764 -12.020 -20.407  0.00  0.00    -0.058 C 
ATOM     14  C   UNL     1      32.262 -11.143 -19.240  0.00  0.00    -0.021 C 
ATOM     15  C   UNL     1      31.247 -10.723 -21.062  0.00  0.00    -0.021 C 
ATOM     16  C   UNL     1      31.172 -10.127 -19.640  0.00  0.00    -0.004 C 
ENDBRANCH   1  13
BRANCH  10  17
ATOM     17  O   UNL     1      35.280 -18.537 -23.382  0.00  0.00    -0.436 OA
BRANCH  17  20
ATOM     18  N   UNL     1      34.715 -19.802 -21.521  0.00  0.00    -0.209 NA
ATOM     19  C   UNL     1      36.343 -20.148 -19.765  0.00  0.00    +0.073 C 
ATOM     20  C   UNL     1      35.650 -19.077 -22.161  0.00  0.00    +0.230 C 
ATOM     21  C   UNL     1      37.272 -19.390 -20.469  0.00  0.00    +0.021 C 
ATOM     22  C   UNL     1      35.089 -20.323 -20.329  0.00  0.00    +0.117 C 
ATOM     23  C   UNL     1      36.926 -18.837 -21.696  0.00  0.00    +0.059 C 
BRANCH  19  25
ATOM     24  O   UNL     1      38.264 -19.208 -17.585  0.00  0.00    -0.275 OA
ATOM     25  N   UNL     1      36.669 -20.727 -18.503  0.00  0.00    -0.257 N 
ATOM     26  C   UNL     1      36.389 -22.029 -16.584  0.00  0.00    +0.031 C 
ATOM     27  C   UNL     1      36.131 -22.004 -18.076  0.00  0.00    +0.099 C 
ATOM     28  C   UNL     1      37.666 -21.228 -16.433  0.00  0.00    +0.087 C 
ATOM     29  C   UNL     1      37.581 -20.221 -17.558  0.00  0.00    +0.229 C 
ENDBRANCH  19  25
ENDBRANCH  17  20
ENDBRANCH  10  17
TORSDOF 4
ENDMDL
MODEL 9
REMARK VINA RESULT:     -10.0      2.200     10.066
REMARK  Name = 9976892
REMARK  4 active torsions:
REMARK  status: ('A' for Active; 'I' for Inactive)
REMARK    1  A    between atoms: N_1  and  C_13
REMARK    2  A    between atoms: C_10  and  O_17
REMARK    3  A    between atoms: O_17  and  C_20
REMARK    4  A    between atoms: C_19  and  N_25
REMARK                            x       y       z     vdW  Elec       q    Type
REMARK                         _______ _______ _______ _____ _____    ______ ____
ROOT
ATOM      1  N   UNL     1      35.018 -19.283 -21.714  0.00  0.00    +0.389 N 
ATOM      2  C   UNL     1      34.291 -18.833 -22.909  0.00  0.00    -0.073 C 
ATOM      3  C   UNL     1      34.963 -18.320 -20.602  0.00  0.00    -0.073 C 
ATOM      4  C   UNL     1      34.978 -17.674 -23.640  0.00  0.00    +0.003 C 
ATOM      5  C   UNL     1      35.792 -17.056 -20.850  0.00  0.00    +0.003 C 
ATOM      6  C   UNL     1      34.698 -16.327 -23.023  0.00  0.00    -0.025 C 
ATOM      7  C   UNL     1      35.083 -16.035 -21.702  0.00  0.00    -0.028 C 
ATOM      8  C   UNL     1      34.054 -15.339 -23.785  0.00  0.00    +0.033 C 
ATOM      9  C   UNL     1      34.816 -14.760 -21.175  0.00  0.00    -0.002 C 
ATOM     10  C   UNL     1      33.790 -14.079 -23.247  0.00  0.00    +0.147 C 
ATOM     11  C   UNL     1      34.172 -13.790 -21.942  0.00  0.00    +0.037 C 
ATOM     12  H   UNL     1      36.000 -19.385 -21.974  0.00  0.00    -0.080 HD
ENDROOT
BRANCH   1  13
ATOM     13  C   UNL     1      34.440 -20.526 -21.274  0.00  0.00    -0.058 C 
ATOM     14  C   UNL     1      34.994 -20.933 -19.893  0.00  0.00    -0.021 C 
ATOM     15  C   UNL     1      33.086 -20.286 -20.575  0.00  0.00    -0.021 C 
ATOM     16  C   UNL     1      33.546 -21.298 -19.505  0.00  0.00    -0.004 C 
ENDBRANCH   1  13
BRANCH  10  17
ATOM     17  O   UNL     1      33.163 -13.135 -23.999  0.00  0.00    -0.436 OA
BRANCH  17  20
ATOM     18  N   UNL     1      32.065 -11.748 -22.499  0.00  0.00    -0.209 NA
ATOM     19  C   UNL     1      32.677  -9.412 -22.353  0.00  0.00    +0.073 C 
ATOM     20  C   UNL     1      33.007 -11.873 -23.450  0.00  0.00    +0.230 C 
ATOM     21  C   UNL     1      33.638  -9.596 -23.340  0.00  0.00    +0.021 C 
ATOM     22  C   UNL     1      31.923 -10.510 -21.971  0.00  0.00    +0.117 C 
ATOM     23  C   UNL     1      33.814 -10.853 -23.908  0.00  0.00    +0.059 C 
BRANCH  19  25
ATOM     24  O   UNL     1      32.602  -8.587 -19.413  0.00  0.00    -0.275 OA
ATOM     25  N   UNL     1      32.473  -8.135 -21.753  0.00  0.00    -0.257 N 
ATOM     26  C   UNL     1      32.442  -5.805 -21.584  0.00  0.00    +0.031 C 
ATOM     27  C   UNL     1      32.172  -6.951 -22.536  0.00  0.00    +0.099 C 
ATOM     28  C   UNL     1      32.099  -6.385 -20.227  0.00  0.00    +0.087 C 
ATOM     29  C   UNL     1      32.448  -7.848 -20.375  0.00  0.00    +0.229 C 
ENDBRANCH  19  25
ENDBRANCH  17  20
ENDBRANCH  10  17
TORSDOF 4
ENDMDL
