MODEL 1
REMARK VINA RESULT:     -11.7      0.000      0.000
REMARK  Name = 54766013
REMARK  5 active torsions:
REMARK  status: ('A' for Active; 'I' for Inactive)
REMARK    1  A    between atoms: C_3  and  C_11
REMARK    2  A    between atoms: C_4  and  C_18
REMARK    3  A    between atoms: C_5  and  C_24
REMARK    4  A    between atoms: C_24  and  N_25
REMARK    5  A    between atoms: N_25  and  C_28
REMARK                            x       y       z     vdW  Elec       q    Type
REMARK                         _______ _______ _______ _____ _____    ______ ____
ROOT
ATOM      1  N   UNL     1      32.234 -22.722 -17.562  0.00  0.00    -0.315 N 
ATOM      2  N   UNL     1      34.405 -22.757 -17.094  0.00  0.00    -0.317 N 
ATOM      3  C   UNL     1      33.694 -23.351 -16.081  0.00  0.00    +0.063 C 
ATOM      4  C   UNL     1      32.345 -23.342 -16.350  0.00  0.00    +0.085 C 
ATOM      5  C   UNL     1      33.496 -22.389 -17.970  0.00  0.00    +0.164 C 
ATOM      6  H   UNL     1      31.399 -22.548 -18.054  0.00  0.00    +0.148 HD
ATOM      7  H   UNL     1      35.380 -22.633 -17.151  0.00  0.00    +0.148 HD
ENDROOT
BRANCH   3  11
ATOM      8  N   UNL     1      36.029 -25.333 -13.949  0.00  0.00    -0.170 N 
ATOM      9  N   UNL     1      37.046 -26.231 -13.919  0.00  0.00    -0.150 NA
ATOM     10  N   UNL     1      36.459 -25.641 -11.791  0.00  0.00    -0.206 NA
ATOM     11  C   UNL     1      34.376 -23.902 -14.894  0.00  0.00    +0.031 C 
ATOM     12  C   UNL     1      35.376 -24.792 -15.060  0.00  0.00    +0.092 C 
ATOM     13  C   UNL     1      34.010 -23.538 -13.522  0.00  0.00    +0.006 C 
ATOM     14  C   UNL     1      35.691 -24.992 -12.638  0.00  0.00    +0.157 C 
ATOM     15  C   UNL     1      34.638 -24.057 -12.452  0.00  0.00    +0.036 C 
ATOM     16  C   UNL     1      37.258 -26.374 -12.612  0.00  0.00    +0.219 C 
ENDBRANCH   3  11
BRANCH   4  18
ATOM     17  N   UNL     1      30.072 -23.117 -15.790  0.00  0.00    -0.409 NA
ATOM     18  C   UNL     1      31.205 -23.832 -15.616  0.00  0.00    +0.127 C 
ATOM     19  C   UNL     1      31.298 -24.955 -14.808  0.00  0.00    +0.086 C 
ATOM     20  C   UNL     1      28.980 -23.549 -15.119  0.00  0.00    +0.109 C 
ATOM     21  C   UNL     1      30.153 -25.368 -14.136  0.00  0.00    -0.016 C 
ATOM     22  C   UNL     1      28.968 -24.658 -14.289  0.00  0.00    +0.023 C 
ATOM     23  C   UNL     1      27.726 -22.761 -15.306  0.00  0.00    +0.066 C 
ENDBRANCH   4  18
BRANCH   5  24
ATOM     24  C   UNL     1      33.732 -21.701 -19.252  0.00  0.00    +0.128 C 
BRANCH  24  25
ATOM     25  N   UNL     1      34.991 -20.974 -19.245  0.00  0.00    -0.328 N 
ATOM     26  H   UNL     1      35.582 -21.073 -18.464  0.00  0.00    +0.147 HD
BRANCH  25  28
ATOM     27  F   UNL     1      37.513 -19.836 -19.242  0.00  0.00    -0.203 F 
ATOM     28  C   UNL     1      35.399 -20.153 -20.276  0.00  0.00    +0.073 C 
ATOM     29  C   UNL     1      36.674 -19.587 -20.258  0.00  0.00    +0.153 C 
ATOM     30  C   UNL     1      34.534 -19.886 -21.338  0.00  0.00    +0.017 C 
ATOM     31  C   UNL     1      37.085 -18.757 -21.301  0.00  0.00    +0.031 C 
ATOM     32  C   UNL     1      34.944 -19.056 -22.381  0.00  0.00    +0.001 C 
ATOM     33  C   UNL     1      36.220 -18.492 -22.363  0.00  0.00    +0.002 C 
ENDBRANCH  25  28
ENDBRANCH  24  25
ENDBRANCH   5  24
TORSDOF 5
ENDMDL
MODEL 2
REMARK VINA RESULT:     -11.7      1.697      5.133
REMARK  Name = 54766013
REMARK  5 active torsions:
REMARK  status: ('A' for Active; 'I' for Inactive)
REMARK    1  A    between atoms: C_3  and  C_11
REMARK    2  A    between atoms: C_4  and  C_18
REMARK    3  A    between atoms: C_5  and  C_24
REMARK    4  A    between atoms: C_24  and  N_25
REMARK    5  A    between atoms: N_25  and  C_28
REMARK                            x       y       z     vdW  Elec       q    Type
REMARK                         _______ _______ _______ _____ _____    ______ ____
ROOT
ATOM      1  N   UNL     1      36.772 -22.771 -16.303  0.00  0.00    -0.315 N 
ATOM      2  N   UNL     1      34.692 -22.481 -17.025  0.00  0.00    -0.317 N 
ATOM      3  C   UNL     1      34.691 -23.214 -15.865  0.00  0.00    +0.063 C 
ATOM      4  C   UNL     1      35.970 -23.406 -15.398  0.00  0.00    +0.085 C 
ATOM      5  C   UNL     1      35.961 -22.230 -17.262  0.00  0.00    +0.164 C 
ATOM      6  H   UNL     1      37.755 -22.711 -16.270  0.00  0.00    +0.148 HD
ATOM      7  H   UNL     1      33.915 -22.204 -17.562  0.00  0.00    +0.148 HD
ENDROOT
BRANCH   3  11
ATOM      8  N   UNL     1      31.057 -23.888 -15.354  0.00  0.00    -0.170 N 
ATOM      9  N   UNL     1      29.800 -23.739 -15.843  0.00  0.00    -0.150 NA
ATOM     10  N   UNL     1      29.739 -24.871 -13.859  0.00  0.00    -0.206 NA
ATOM     11  C   UNL     1      33.429 -23.693 -15.269  0.00  0.00    +0.031 C 
ATOM     12  C   UNL     1      32.264 -23.451 -15.905  0.00  0.00    +0.092 C 
ATOM     13  C   UNL     1      33.371 -24.417 -13.996  0.00  0.00    +0.006 C 
ATOM     14  C   UNL     1      30.989 -24.581 -14.142  0.00  0.00    +0.157 C 
ATOM     15  C   UNL     1      32.210 -24.838 -13.463  0.00  0.00    +0.036 C 
ATOM     16  C   UNL     1      29.061 -24.343 -14.913  0.00  0.00    +0.219 C 
ENDBRANCH   3  11
BRANCH   4  18
ATOM     17  N   UNL     1      36.669 -23.314 -13.155  0.00  0.00    -0.409 NA
ATOM     18  C   UNL     1      36.489 -24.095 -14.243  0.00  0.00    +0.127 C 
ATOM     19  C   UNL     1      36.766 -25.453 -14.278  0.00  0.00    +0.086 C 
ATOM     20  C   UNL     1      37.152 -23.926 -12.050  0.00  0.00    +0.109 C 
ATOM     21  C   UNL     1      37.260 -26.045 -13.121  0.00  0.00    -0.016 C 
ATOM     22  C   UNL     1      37.460 -25.275 -11.982  0.00  0.00    +0.023 C 
ATOM     23  C   UNL     1      37.355 -23.068 -10.845  0.00  0.00    +0.066 C 
ENDBRANCH   4  18
BRANCH   5  24
ATOM     24  C   UNL     1      36.515 -21.468 -18.396  0.00  0.00    +0.128 C 
BRANCH  24  25
ATOM     25  N   UNL     1      35.464 -20.944 -19.252  0.00  0.00    -0.328 N 
ATOM     26  H   UNL     1      34.536 -21.218 -19.073  0.00  0.00    +0.147 HD
BRANCH  25  28
ATOM     27  F   UNL     1      33.458 -20.310 -21.050  0.00  0.00    -0.203 F 
ATOM     28  C   UNL     1      35.701 -20.082 -20.304  0.00  0.00    +0.073 C 
ATOM     29  C   UNL     1      34.678 -19.774 -21.201  0.00  0.00    +0.153 C 
ATOM     30  C   UNL     1      36.967 -19.519 -20.470  0.00  0.00    +0.017 C 
ATOM     31  C   UNL     1      34.919 -18.904 -22.263  0.00  0.00    +0.031 C 
ATOM     32  C   UNL     1      37.208 -18.648 -21.533  0.00  0.00    +0.001 C 
ATOM     33  C   UNL     1      36.185 -18.340 -22.429  0.00  0.00    +0.002 C 
ENDBRANCH  25  28
ENDBRANCH  24  25
ENDBRANCH   5  24
TORSDOF 5
ENDMDL
MODEL 3
REMARK VINA RESULT:     -11.6      3.077      7.051
REMARK  Name = 54766013
REMARK  5 active torsions:
REMARK  status: ('A' for Active; 'I' for Inactive)
REMARK    1  A    between atoms: C_3  and  C_11
REMARK    2  A    between atoms: C_4  and  C_18
REMARK    3  A    between atoms: C_5  and  C_24
REMARK    4  A    between atoms: C_24  and  N_25
REMARK    5  A    between atoms: N_25  and  C_28
REMARK                            x       y       z     vdW  Elec       q    Type
REMARK                         _______ _______ _______ _____ _____    ______ ____
ROOT
ATOM      1  N   UNL     1      34.064 -23.448 -14.296  0.00  0.00    -0.315 N 
ATOM      2  N   UNL     1      34.924 -25.056 -13.028  0.00  0.00    -0.317 N 
ATOM      3  C   UNL     1      35.877 -24.573 -13.889  0.00  0.00    +0.063 C 
ATOM      4  C   UNL     1      35.367 -23.575 -14.686  0.00  0.00    +0.085 C 
ATOM      5  C   UNL     1      33.843 -24.357 -13.299  0.00  0.00    +0.164 C 
ATOM      6  H   UNL     1      33.404 -22.817 -14.665  0.00  0.00    +0.148 HD
ATOM      7  H   UNL     1      35.026 -25.768 -12.356  0.00  0.00    +0.148 HD
ENDROOT
BRANCH   3  11
ATOM      8  N   UNL     1      38.844 -26.677 -14.724  0.00  0.00    -0.170 N 
ATOM      9  N   UNL     1      39.332 -27.695 -15.477  0.00  0.00    -0.150 NA
ATOM     10  N   UNL     1      40.970 -26.877 -14.110  0.00  0.00    -0.206 NA
ATOM     11  C   UNL     1      37.249 -25.118 -13.889  0.00  0.00    +0.031 C 
ATOM     12  C   UNL     1      37.554 -26.141 -14.715  0.00  0.00    +0.092 C 
ATOM     13  C   UNL     1      38.311 -24.609 -13.016  0.00  0.00    +0.006 C 
ATOM     14  C   UNL     1      39.864 -26.198 -13.899  0.00  0.00    +0.157 C 
ATOM     15  C   UNL     1      39.553 -25.124 -13.024  0.00  0.00    +0.036 C 
ATOM     16  C   UNL     1      40.598 -27.767 -15.069  0.00  0.00    +0.219 C 
ENDBRANCH   3  11
BRANCH   4  18
ATOM     17  N   UNL     1      35.266 -22.760 -16.889  0.00  0.00    -0.409 NA
ATOM     18  C   UNL     1      35.954 -22.768 -15.726  0.00  0.00    +0.127 C 
ATOM     19  C   UNL     1      37.129 -22.063 -15.515  0.00  0.00    +0.086 C 
ATOM     20  C   UNL     1      35.784 -22.012 -17.889  0.00  0.00    +0.109 C 
ATOM     21  C   UNL     1      37.630 -21.304 -16.567  0.00  0.00    -0.016 C 
ATOM     22  C   UNL     1      36.951 -21.272 -17.779  0.00  0.00    +0.023 C 
ATOM     23  C   UNL     1      35.030 -22.001 -19.177  0.00  0.00    +0.066 C 
ENDBRANCH   4  18
BRANCH   5  24
ATOM     24  C   UNL     1      32.525 -24.481 -12.651  0.00  0.00    +0.128 C 
BRANCH  24  25
ATOM     25  N   UNL     1      31.566 -25.150 -13.514  0.00  0.00    -0.328 N 
ATOM     26  H   UNL     1      31.647 -26.124 -13.634  0.00  0.00    +0.147 HD
BRANCH  25  28
ATOM     27  F   UNL     1      29.825 -26.519 -15.174  0.00  0.00    -0.203 F 
ATOM     28  C   UNL     1      30.550 -24.490 -14.175  0.00  0.00    +0.073 C 
ATOM     29  C   UNL     1      29.682 -25.196 -15.007  0.00  0.00    +0.153 C 
ATOM     30  C   UNL     1      30.392 -23.113 -14.010  0.00  0.00    +0.017 C 
ATOM     31  C   UNL     1      28.655 -24.528 -15.674  0.00  0.00    +0.031 C 
ATOM     32  C   UNL     1      29.365 -22.444 -14.677  0.00  0.00    +0.001 C 
ATOM     33  C   UNL     1      28.497 -23.151 -15.509  0.00  0.00    +0.002 C 
ENDBRANCH  25  28
ENDBRANCH  24  25
ENDBRANCH   5  24
TORSDOF 5
ENDMDL
MODEL 4
REMARK VINA RESULT:     -11.5      2.587      7.646
REMARK  Name = 54766013
REMARK  5 active torsions:
REMARK  status: ('A' for Active; 'I' for Inactive)
REMARK    1  A    between atoms: C_3  and  C_11
REMARK    2  A    between atoms: C_4  and  C_18
REMARK    3  A    between atoms: C_5  and  C_24
REMARK    4  A    between atoms: C_24  and  N_25
REMARK    5  A    between atoms: N_25  and  C_28
REMARK                            x       y       z     vdW  Elec       q    Type
REMARK                         _______ _______ _______ _____ _____    ______ ____
ROOT
ATOM      1  N   UNL     1      35.213 -23.759 -14.271  0.00  0.00    -0.315 N 
ATOM      2  N   UNL     1      33.506 -24.463 -13.038  0.00  0.00    -0.317 N 
ATOM      3  C   UNL     1      33.062 -24.057 -14.271  0.00  0.00    +0.063 C 
ATOM      4  C   UNL     1      34.103 -23.616 -15.053  0.00  0.00    +0.085 C 
ATOM      5  C   UNL     1      34.807 -24.270 -13.070  0.00  0.00    +0.164 C 
ATOM      6  H   UNL     1      36.138 -23.535 -14.525  0.00  0.00    +0.148 HD
ATOM      7  H   UNL     1      32.970 -24.819 -12.292  0.00  0.00    +0.148 HD
ENDROOT
BRANCH   3  11
ATOM      8  N   UNL     1      29.720 -23.148 -15.662  0.00  0.00    -0.170 N 
ATOM      9  N   UNL     1      28.995 -22.236 -16.356  0.00  0.00    -0.150 NA
ATOM     10  N   UNL     1      27.664 -23.988 -15.740  0.00  0.00    -0.206 NA
ATOM     11  C   UNL     1      31.630 -24.121 -14.623  0.00  0.00    +0.031 C 
ATOM     12  C   UNL     1      31.076 -23.111 -15.325  0.00  0.00    +0.092 C 
ATOM     13  C   UNL     1      30.761 -25.235 -14.233  0.00  0.00    +0.006 C 
ATOM     14  C   UNL     1      28.883 -24.206 -15.297  0.00  0.00    +0.157 C 
ATOM     15  C   UNL     1      29.456 -25.273 -14.556  0.00  0.00    +0.036 C 
ATOM     16  C   UNL     1      27.784 -22.789 -16.370  0.00  0.00    +0.219 C 
ENDBRANCH   3  11
BRANCH   4  18
ATOM     17  N   UNL     1      35.350 -22.575 -16.754  0.00  0.00    -0.409 NA
ATOM     18  C   UNL     1      34.156 -23.099 -16.398  0.00  0.00    +0.127 C 
ATOM     19  C   UNL     1      33.052 -23.155 -17.235  0.00  0.00    +0.086 C 
ATOM     20  C   UNL     1      35.438 -22.082 -18.010  0.00  0.00    +0.109 C 
ATOM     21  C   UNL     1      33.184 -22.638 -18.519  0.00  0.00    -0.016 C 
ATOM     22  C   UNL     1      34.396 -22.090 -18.922  0.00  0.00    +0.023 C 
ATOM     23  C   UNL     1      36.754 -21.500 -18.408  0.00  0.00    +0.066 C 
ENDBRANCH   4  18
BRANCH   5  24
ATOM     24  C   UNL     1      35.769 -24.548 -11.988  0.00  0.00    +0.128 C 
BRANCH  24  25
ATOM     25  N   UNL     1      36.432 -25.827 -12.178  0.00  0.00    -0.328 N 
ATOM     26  H   UNL     1      36.077 -26.612 -11.701  0.00  0.00    +0.147 HD
BRANCH  25  28
ATOM     27  F   UNL     1      36.187 -26.992 -14.676  0.00  0.00    -0.203 F 
ATOM     28  C   UNL     1      37.533 -25.998 -12.992  0.00  0.00    +0.073 C 
ATOM     29  C   UNL     1      37.392 -26.587 -14.248  0.00  0.00    +0.153 C 
ATOM     30  C   UNL     1      38.792 -25.581 -12.555  0.00  0.00    +0.017 C 
ATOM     31  C   UNL     1      38.505 -26.759 -15.069  0.00  0.00    +0.031 C 
ATOM     32  C   UNL     1      39.907 -25.753 -13.377  0.00  0.00    +0.001 C 
ATOM     33  C   UNL     1      39.764 -26.342 -14.633  0.00  0.00    +0.002 C 
ENDBRANCH  25  28
ENDBRANCH  24  25
ENDBRANCH   5  24
TORSDOF 5
ENDMDL
MODEL 5
REMARK VINA RESULT:     -11.3      1.155      5.112
REMARK  Name = 54766013
REMARK  5 active torsions:
REMARK  status: ('A' for Active; 'I' for Inactive)
REMARK    1  A    between atoms: C_3  and  C_11
REMARK    2  A    between atoms: C_4  and  C_18
REMARK    3  A    between atoms: C_5  and  C_24
REMARK    4  A    between atoms: C_24  and  N_25
REMARK    5  A    between atoms: N_25  and  C_28
REMARK                            x       y       z     vdW  Elec       q    Type
REMARK                         _______ _______ _______ _____ _____    ______ ____
ROOT
ATOM      1  N   UNL     1      35.620 -22.756 -17.023  0.00  0.00    -0.315 N 
ATOM      2  N   UNL     1      33.627 -22.408 -17.938  0.00  0.00    -0.317 N 
ATOM      3  C   UNL     1      33.485 -22.991 -16.704  0.00  0.00    +0.063 C 
ATOM      4  C   UNL     1      34.708 -23.216 -16.117  0.00  0.00    +0.085 C 
ATOM      5  C   UNL     1      34.925 -22.280 -18.100  0.00  0.00    +0.164 C 
ATOM      6  H   UNL     1      36.600 -22.764 -16.920  0.00  0.00    +0.148 HD
ATOM      7  H   UNL     1      32.914 -22.144 -18.564  0.00  0.00    +0.148 HD
ENDROOT
BRANCH   3  11
ATOM      8  N   UNL     1      29.799 -22.912 -16.123  0.00  0.00    -0.170 N 
ATOM      9  N   UNL     1      28.612 -22.356 -16.471  0.00  0.00    -0.150 NA
ATOM     10  N   UNL     1      28.295 -23.913 -14.829  0.00  0.00    -0.206 NA
ATOM     11  C   UNL     1      32.149 -23.301 -16.158  0.00  0.00    +0.031 C 
ATOM     12  C   UNL     1      31.072 -22.640 -16.632  0.00  0.00    +0.092 C 
ATOM     13  C   UNL     1      31.928 -24.293 -15.102  0.00  0.00    +0.006 C 
ATOM     14  C   UNL     1      29.576 -23.857 -15.118  0.00  0.00    +0.157 C 
ATOM     15  C   UNL     1      30.703 -24.556 -14.611  0.00  0.00    +0.036 C 
ATOM     16  C   UNL     1      27.757 -22.989 -15.670  0.00  0.00    +0.219 C 
ENDBRANCH   3  11
BRANCH   4  18
ATOM     17  N   UNL     1      35.927 -24.847 -14.941  0.00  0.00    -0.409 NA
ATOM     18  C   UNL     1      35.086 -23.793 -14.852  0.00  0.00    +0.127 C 
ATOM     19  C   UNL     1      34.610 -23.280 -13.655  0.00  0.00    +0.086 C 
ATOM     20  C   UNL     1      36.307 -25.414 -13.774  0.00  0.00    +0.109 C 
ATOM     21  C   UNL     1      35.025 -23.890 -12.476  0.00  0.00    -0.016 C 
ATOM     22  C   UNL     1      35.889 -24.977 -12.527  0.00  0.00    +0.023 C 
ATOM     23  C   UNL     1      37.235 -26.580 -13.867  0.00  0.00    +0.066 C 
ENDBRANCH   4  18
BRANCH   5  24
ATOM     24  C   UNL     1      35.618 -21.705 -19.268  0.00  0.00    +0.128 C 
BRANCH  24  25
ATOM     25  N   UNL     1      35.242 -20.317 -19.482  0.00  0.00    -0.328 N 
ATOM     26  H   UNL     1      34.899 -19.803 -18.716  0.00  0.00    +0.147 HD
BRANCH  25  28
ATOM     27  F   UNL     1      37.462 -18.794 -20.120  0.00  0.00    -0.203 F 
ATOM     28  C   UNL     1      35.340 -19.684 -20.705  0.00  0.00    +0.073 C 
ATOM     29  C   UNL     1      36.467 -18.920 -21.009  0.00  0.00    +0.153 C 
ATOM     30  C   UNL     1      34.309 -19.808 -21.637  0.00  0.00    +0.017 C 
ATOM     31  C   UNL     1      36.564 -18.281 -22.245  0.00  0.00    +0.031 C 
ATOM     32  C   UNL     1      34.407 -19.169 -22.874  0.00  0.00    +0.001 C 
ATOM     33  C   UNL     1      35.534 -18.406 -23.177  0.00  0.00    +0.002 C 
ENDBRANCH  25  28
ENDBRANCH  24  25
ENDBRANCH   5  24
TORSDOF 5
ENDMDL
MODEL 6
REMARK VINA RESULT:     -11.2      2.777      7.818
REMARK  Name = 54766013
REMARK  5 active torsions:
REMARK  status: ('A' for Active; 'I' for Inactive)
REMARK    1  A    between atoms: C_3  and  C_11
REMARK    2  A    between atoms: C_4  and  C_18
REMARK    3  A    between atoms: C_5  and  C_24
REMARK    4  A    between atoms: C_24  and  N_25
REMARK    5  A    between atoms: N_25  and  C_28
REMARK                            x       y       z     vdW  Elec       q    Type
REMARK                         _______ _______ _______ _____ _____    ______ ____
ROOT
ATOM      1  N   UNL     1      34.054 -25.036 -13.019  0.00  0.00    -0.315 N 
ATOM      2  N   UNL     1      33.115 -23.833 -14.632  0.00  0.00    -0.317 N 
ATOM      3  C   UNL     1      34.481 -23.806 -14.758  0.00  0.00    +0.063 C 
ATOM      4  C   UNL     1      35.086 -24.546 -13.768  0.00  0.00    +0.085 C 
ATOM      5  C   UNL     1      32.890 -24.582 -13.575  0.00  0.00    +0.164 C 
ATOM      6  H   UNL     1      34.133 -25.612 -12.224  0.00  0.00    +0.148 HD
ATOM      7  H   UNL     1      32.450 -23.388 -15.206  0.00  0.00    +0.148 HD
ENDROOT
BRANCH   3  11
ATOM      8  N   UNL     1      35.039 -22.096 -18.028  0.00  0.00    -0.170 N 
ATOM      9  N   UNL     1      34.509 -21.753 -19.228  0.00  0.00    -0.150 NA
ATOM     10  N   UNL     1      36.662 -20.999 -19.078  0.00  0.00    -0.206 NA
ATOM     11  C   UNL     1      35.131 -23.052 -15.848  0.00  0.00    +0.031 C 
ATOM     12  C   UNL     1      34.441 -22.801 -16.980  0.00  0.00    +0.092 C 
ATOM     13  C   UNL     1      36.511 -22.564 -15.770  0.00  0.00    +0.006 C 
ATOM     14  C   UNL     1      36.353 -21.625 -17.964  0.00  0.00    +0.157 C 
ATOM     15  C   UNL     1      37.089 -21.886 -16.777  0.00  0.00    +0.036 C 
ATOM     16  C   UNL     1      35.518 -21.104 -19.808  0.00  0.00    +0.219 C 
ENDBRANCH   3  11
BRANCH   4  18
ATOM     17  N   UNL     1      37.050 -25.730 -14.288  0.00  0.00    -0.409 NA
ATOM     18  C   UNL     1      36.468 -24.824 -13.471  0.00  0.00    +0.127 C 
ATOM     19  C   UNL     1      37.121 -24.191 -12.425  0.00  0.00    +0.086 C 
ATOM     20  C   UNL     1      38.348 -26.014 -14.042  0.00  0.00    +0.109 C 
ATOM     21  C   UNL     1      38.457 -24.510 -12.204  0.00  0.00    -0.016 C 
ATOM     22  C   UNL     1      39.090 -25.437 -13.023  0.00  0.00    +0.023 C 
ATOM     23  C   UNL     1      38.995 -27.016 -14.941  0.00  0.00    +0.066 C 
ENDBRANCH   4  18
BRANCH   5  24
ATOM     24  C   UNL     1      31.578 -24.933 -13.003  0.00  0.00    +0.128 C 
BRANCH  24  25
ATOM     25  N   UNL     1      30.606 -23.872 -13.206  0.00  0.00    -0.328 N 
ATOM     26  H   UNL     1      30.532 -23.169 -12.522  0.00  0.00    +0.147 HD
BRANCH  25  28
ATOM     27  F   UNL     1      29.669 -26.169 -14.433  0.00  0.00    -0.203 F 
ATOM     28  C   UNL     1      29.779 -23.800 -14.310  0.00  0.00    +0.073 C 
ATOM     29  C   UNL     1      29.317 -24.969 -14.915  0.00  0.00    +0.153 C 
ATOM     30  C   UNL     1      29.408 -22.556 -14.822  0.00  0.00    +0.017 C 
ATOM     31  C   UNL     1      28.483 -24.895 -16.030  0.00  0.00    +0.031 C 
ATOM     32  C   UNL     1      28.573 -22.482 -15.937  0.00  0.00    +0.001 C 
ATOM     33  C   UNL     1      28.111 -23.651 -16.541  0.00  0.00    +0.002 C 
ENDBRANCH  25  28
ENDBRANCH  24  25
ENDBRANCH   5  24
TORSDOF 5
ENDMDL
MODEL 7
REMARK VINA RESULT:     -11.2      1.542      5.134
REMARK  Name = 54766013
REMARK  5 active torsions:
REMARK  status: ('A' for Active; 'I' for Inactive)
REMARK    1  A    between atoms: C_3  and  C_11
REMARK    2  A    between atoms: C_4  and  C_18
REMARK    3  A    between atoms: C_5  and  C_24
REMARK    4  A    between atoms: C_24  and  N_25
REMARK    5  A    between atoms: N_25  and  C_28
REMARK                            x       y       z     vdW  Elec       q    Type
REMARK                         _______ _______ _______ _____ _____    ______ ____
ROOT
ATOM      1  N   UNL     1      36.823 -22.424 -16.638  0.00  0.00    -0.315 N 
ATOM      2  N   UNL     1      34.701 -22.451 -17.293  0.00  0.00    -0.317 N 
ATOM      3  C   UNL     1      34.823 -23.046 -16.062  0.00  0.00    +0.063 C 
ATOM      4  C   UNL     1      36.130 -23.041 -15.635  0.00  0.00    +0.085 C 
ATOM      5  C   UNL     1      35.924 -22.087 -17.611  0.00  0.00    +0.164 C 
ATOM      6  H   UNL     1      37.792 -22.252 -16.656  0.00  0.00    +0.148 HD
ATOM      7  H   UNL     1      33.879 -22.324 -17.821  0.00  0.00    +0.148 HD
ENDROOT
BRANCH   3  11
ATOM      8  N   UNL     1      31.287 -23.916 -15.242  0.00  0.00    -0.170 N 
ATOM      9  N   UNL     1      29.986 -23.834 -15.619  0.00  0.00    -0.150 NA
ATOM     10  N   UNL     1      30.160 -24.972 -13.645  0.00  0.00    -0.206 NA
ATOM     11  C   UNL     1      33.644 -23.593 -15.362  0.00  0.00    +0.031 C 
ATOM     12  C   UNL     1      32.417 -23.413 -15.893  0.00  0.00    +0.092 C 
ATOM     13  C   UNL     1      33.736 -24.322 -14.093  0.00  0.00    +0.006 C 
ATOM     14  C   UNL     1      31.363 -24.614 -14.034  0.00  0.00    +0.157 C 
ATOM     15  C   UNL     1      32.650 -24.807 -13.465  0.00  0.00    +0.036 C 
ATOM     16  C   UNL     1      29.365 -24.479 -14.633  0.00  0.00    +0.219 C 
ENDBRANCH   3  11
BRANCH   4  18
ATOM     17  N   UNL     1      37.426 -24.702 -14.590  0.00  0.00    -0.409 NA
ATOM     18  C   UNL     1      36.762 -23.535 -14.438  0.00  0.00    +0.127 C 
ATOM     19  C   UNL     1      36.679 -22.840 -13.241  0.00  0.00    +0.086 C 
ATOM     20  C   UNL     1      38.035 -25.195 -13.489  0.00  0.00    +0.109 C 
ATOM     21  C   UNL     1      37.319 -23.380 -12.131  0.00  0.00    -0.016 C 
ATOM     22  C   UNL     1      38.012 -24.578 -12.248  0.00  0.00    +0.023 C 
ATOM     23  C   UNL     1      38.768 -26.485 -13.651  0.00  0.00    +0.066 C 
ENDBRANCH   4  18
BRANCH   5  24
ATOM     24  C   UNL     1      36.349 -21.399 -18.844  0.00  0.00    +0.128 C 
BRANCH  24  25
ATOM     25  N   UNL     1      35.276 -20.592 -19.402  0.00  0.00    -0.328 N 
ATOM     26  H   UNL     1      34.420 -20.555 -18.919  0.00  0.00    +0.147 HD
BRANCH  25  28
ATOM     27  F   UNL     1      37.511 -19.036 -19.893  0.00  0.00    -0.203 F 
ATOM     28  C   UNL     1      35.397 -19.875 -20.575  0.00  0.00    +0.073 C 
ATOM     29  C   UNL     1      36.531 -19.096 -20.806  0.00  0.00    +0.153 C 
ATOM     30  C   UNL     1      34.382 -19.929 -21.532  0.00  0.00    +0.017 C 
ATOM     31  C   UNL     1      36.652 -18.372 -21.991  0.00  0.00    +0.031 C 
ATOM     32  C   UNL     1      34.503 -19.204 -22.718  0.00  0.00    +0.001 C 
ATOM     33  C   UNL     1      35.637 -18.426 -22.948  0.00  0.00    +0.002 C 
ENDBRANCH  25  28
ENDBRANCH  24  25
ENDBRANCH   5  24
TORSDOF 5
ENDMDL
MODEL 8
REMARK VINA RESULT:     -11.1      2.623      7.732
REMARK  Name = 54766013
REMARK  5 active torsions:
REMARK  status: ('A' for Active; 'I' for Inactive)
REMARK    1  A    between atoms: C_3  and  C_11
REMARK    2  A    between atoms: C_4  and  C_18
REMARK    3  A    between atoms: C_5  and  C_24
REMARK    4  A    between atoms: C_24  and  N_25
REMARK    5  A    between atoms: N_25  and  C_28
REMARK                            x       y       z     vdW  Elec       q    Type
REMARK                         _______ _______ _______ _____ _____    ______ ____
ROOT
ATOM      1  N   UNL     1      33.838 -25.039 -13.111  0.00  0.00    -0.315 N 
ATOM      2  N   UNL     1      32.962 -23.841 -14.763  0.00  0.00    -0.317 N 
ATOM      3  C   UNL     1      34.332 -23.812 -14.834  0.00  0.00    +0.063 C 
ATOM      4  C   UNL     1      34.898 -24.548 -13.819  0.00  0.00    +0.085 C 
ATOM      5  C   UNL     1      32.697 -24.589 -13.715  0.00  0.00    +0.164 C 
ATOM      6  H   UNL     1      33.887 -25.613 -12.312  0.00  0.00    +0.148 HD
ATOM      7  H   UNL     1      32.319 -23.400 -15.365  0.00  0.00    +0.148 HD
ENDROOT
BRANCH   3  11
ATOM      8  N   UNL     1      35.003 -22.072 -18.067  0.00  0.00    -0.170 N 
ATOM      9  N   UNL     1      34.508 -21.700 -19.274  0.00  0.00    -0.150 NA
ATOM     10  N   UNL     1      36.673 -21.000 -19.066  0.00  0.00    -0.206 NA
ATOM     11  C   UNL     1      35.023 -23.059 -15.899  0.00  0.00    +0.031 C 
ATOM     12  C   UNL     1      34.365 -22.776 -17.042  0.00  0.00    +0.092 C 
ATOM     13  C   UNL     1      36.412 -22.605 -15.784  0.00  0.00    +0.006 C 
ATOM     14  C   UNL     1      36.325 -21.633 -17.968  0.00  0.00    +0.157 C 
ATOM     15  C   UNL     1      37.028 -21.927 -16.769  0.00  0.00    +0.036 C 
ATOM     16  C   UNL     1      35.544 -21.068 -19.822  0.00  0.00    +0.219 C 
ENDBRANCH   3  11
BRANCH   4  18
ATOM     17  N   UNL     1      36.887 -25.721 -14.262  0.00  0.00    -0.409 NA
ATOM     18  C   UNL     1      36.268 -24.822 -13.466  0.00  0.00    +0.127 C 
ATOM     19  C   UNL     1      36.874 -24.192 -12.390  0.00  0.00    +0.086 C 
ATOM     20  C   UNL     1      38.175 -26.002 -13.963  0.00  0.00    +0.109 C 
ATOM     21  C   UNL     1      38.201 -24.507 -12.116  0.00  0.00    -0.016 C 
ATOM     22  C   UNL     1      38.871 -25.427 -12.912  0.00  0.00    +0.023 C 
ATOM     23  C   UNL     1      38.863 -26.996 -14.839  0.00  0.00    +0.066 C 
ENDBRANCH   4  18
BRANCH   5  24
ATOM     24  C   UNL     1      31.363 -24.942 -13.195  0.00  0.00    +0.128 C 
BRANCH  24  25
ATOM     25  N   UNL     1      30.410 -23.861 -13.391  0.00  0.00    -0.328 N 
ATOM     26  H   UNL     1      30.366 -23.149 -12.713  0.00  0.00    +0.147 HD
BRANCH  25  28
ATOM     27  F   UNL     1      28.973 -21.555 -13.913  0.00  0.00    -0.203 F 
ATOM     28  C   UNL     1      29.564 -23.784 -14.479  0.00  0.00    +0.073 C 
ATOM     29  C   UNL     1      28.847 -22.613 -14.726  0.00  0.00    +0.153 C 
ATOM     30  C   UNL     1      29.424 -24.880 -15.331  0.00  0.00    +0.017 C 
ATOM     31  C   UNL     1      27.992 -22.537 -15.825  0.00  0.00    +0.031 C 
ATOM     32  C   UNL     1      28.569 -24.804 -16.431  0.00  0.00    +0.001 C 
ATOM     33  C   UNL     1      27.853 -23.633 -16.678  0.00  0.00    +0.002 C 
ENDBRANCH  25  28
ENDBRANCH  24  25
ENDBRANCH   5  24
TORSDOF 5
ENDMDL
MODEL 9
REMARK VINA RESULT:     -10.8      1.863      2.628
REMARK  Name = 54766013
REMARK  5 active torsions:
REMARK  status: ('A' for Active; 'I' for Inactive)
REMARK    1  A    between atoms: C_3  and  C_11
REMARK    2  A    between atoms: C_4  and  C_18
REMARK    3  A    between atoms: C_5  and  C_24
REMARK    4  A    between atoms: C_24  and  N_25
REMARK    5  A    between atoms: N_25  and  C_28
REMARK                            x       y       z     vdW  Elec       q    Type
REMARK                         _______ _______ _______ _____ _____    ______ ____
ROOT
ATOM      1  N   UNL     1      34.365 -22.304 -17.569  0.00  0.00    -0.315 N 
ATOM      2  N   UNL     1      36.414 -22.583 -16.760  0.00  0.00    -0.317 N 
ATOM      3  C   UNL     1      35.489 -23.103 -15.891  0.00  0.00    +0.063 C 
ATOM      4  C   UNL     1      34.210 -22.942 -16.371  0.00  0.00    +0.085 C 
ATOM      5  C   UNL     1      35.705 -22.109 -17.761  0.00  0.00    +0.164 C 
ATOM      6  H   UNL     1      33.644 -22.034 -18.183  0.00  0.00    +0.148 HD
ATOM      7  H   UNL     1      37.394 -22.568 -16.658  0.00  0.00    +0.148 HD
ENDROOT
BRANCH   3  11
ATOM      8  N   UNL     1      36.564 -23.538 -12.344  0.00  0.00    -0.170 N 
ATOM      9  N   UNL     1      36.860 -22.927 -11.169  0.00  0.00    -0.150 NA
ATOM     10  N   UNL     1      37.110 -25.189 -10.960  0.00  0.00    -0.206 NA
ATOM     11  C   UNL     1      35.906 -23.736 -14.625  0.00  0.00    +0.031 C 
ATOM     12  C   UNL     1      36.159 -22.960 -13.550  0.00  0.00    +0.092 C 
ATOM     13  C   UNL     1      36.075 -25.184 -14.473  0.00  0.00    +0.006 C 
ATOM     14  C   UNL     1      36.726 -24.917 -12.187  0.00  0.00    +0.157 C 
ATOM     15  C   UNL     1      36.464 -25.742 -13.313  0.00  0.00    +0.036 C 
ATOM     16  C   UNL     1      37.176 -23.957 -10.386  0.00  0.00    +0.219 C 
ENDBRANCH   3  11
BRANCH   4  18
ATOM     17  N   UNL     1      32.964 -24.030 -14.701  0.00  0.00    -0.409 NA
ATOM     18  C   UNL     1      32.921 -23.309 -15.843  0.00  0.00    +0.127 C 
ATOM     19  C   UNL     1      31.748 -22.931 -16.478  0.00  0.00    +0.086 C 
ATOM     20  C   UNL     1      31.772 -24.391 -14.173  0.00  0.00    +0.109 C 
ATOM     21  C   UNL     1      30.543 -23.320 -15.903  0.00  0.00    -0.016 C 
ATOM     22  C   UNL     1      30.546 -24.064 -14.729  0.00  0.00    +0.023 C 
ATOM     23  C   UNL     1      31.814 -25.190 -12.913  0.00  0.00    +0.066 C 
ENDBRANCH   4  18
BRANCH   5  24
ATOM     24  C   UNL     1      36.219 -21.441 -18.971  0.00  0.00    +0.128 C 
BRANCH  24  25
ATOM     25  N   UNL     1      35.178 -20.681 -19.644  0.00  0.00    -0.328 N 
ATOM     26  H   UNL     1      34.252 -20.772 -19.323  0.00  0.00    +0.147 HD
BRANCH  25  28
ATOM     27  F   UNL     1      33.212 -20.155 -21.519  0.00  0.00    -0.203 F 
ATOM     28  C   UNL     1      35.422 -19.840 -20.710  0.00  0.00    +0.073 C 
ATOM     29  C   UNL     1      34.420 -19.586 -21.646  0.00  0.00    +0.153 C 
ATOM     30  C   UNL     1      36.676 -19.243 -20.853  0.00  0.00    +0.017 C 
ATOM     31  C   UNL     1      34.668 -18.736 -22.723  0.00  0.00    +0.031 C 
ATOM     32  C   UNL     1      36.925 -18.393 -21.931  0.00  0.00    +0.001 C 
ATOM     33  C   UNL     1      35.921 -18.139 -22.865  0.00  0.00    +0.002 C 
ENDBRANCH  25  28
ENDBRANCH  24  25
ENDBRANCH   5  24
TORSDOF 5
ENDMDL
