MODEL 1
REMARK VINA RESULT:     -11.5      0.000      0.000
REMARK  Name = 11998575
REMARK  7 active torsions:
REMARK  status: ('A' for Active; 'I' for Inactive)
REMARK    1  A    between atoms: C_6  and  C_18
REMARK    2  A    between atoms: C_14  and  O_22
REMARK    3  A    between atoms: C_15  and  O_16
REMARK    4  A    between atoms: C_18  and  O_20
REMARK    5  A    between atoms: O_22  and  C_23
REMARK    6  A    between atoms: C_23  and  C_24
REMARK    7  A    between atoms: C_29  and  O_30
REMARK                            x       y       z     vdW  Elec       q    Type
REMARK                         _______ _______ _______ _____ _____    ______ ____
ROOT
ATOM      1  O   UNL     1      32.716 -22.145 -18.464  0.00  0.00    -0.421 OA
ATOM      2  O   UNL     1      32.182 -20.970 -20.343  0.00  0.00    -0.244 OA
ATOM      3  C   UNL     1      35.414 -21.339 -18.724  0.00  0.00    +0.009 A 
ATOM      4  C   UNL     1      35.004 -22.205 -17.611  0.00  0.00    +0.038 A 
ATOM      5  C   UNL     1      34.454 -20.916 -19.659  0.00  0.00    +0.076 A 
ATOM      6  C   UNL     1      36.122 -19.670 -20.899  0.00  0.00    +0.004 C 
ATOM      7  C   UNL     1      33.663 -22.583 -17.514  0.00  0.00    +0.152 A 
ATOM      8  C   UNL     1      34.805 -20.087 -20.737  0.00  0.00    +0.004 C 
ATOM      9  C   UNL     1      36.739 -20.901 -18.914  0.00  0.00    +0.000 C 
ATOM     10  C   UNL     1      35.868 -22.693 -16.617  0.00  0.00    +0.043 C 
ATOM     11  C   UNL     1      37.088 -20.076 -19.989  0.00  0.00    -0.002 C 
ATOM     12  C   UNL     1      33.034 -21.328 -19.540  0.00  0.00    +0.346 A 
ATOM     13  C   UNL     1      33.176 -23.404 -16.493  0.00  0.00    +0.078 C 
ATOM     14  C   UNL     1      34.055 -23.872 -15.524  0.00  0.00    +0.176 C 
ATOM     15  C   UNL     1      35.399 -23.518 -15.585  0.00  0.00    +0.173 C 
ENDROOT
BRANCH  15  16
ATOM     16  O   UNL     1      36.275 -23.969 -14.643  0.00  0.00    -0.468 OA
ATOM     17  C   UNL     1      37.642 -23.598 -14.800  0.00  0.00    +0.253 C 
ENDBRANCH  15  16
BRANCH   6  18
ATOM     18  C   UNL     1      36.495 -18.792 -22.045  0.00  0.00    +0.133 C 
ATOM     19  C   UNL     1      35.598 -17.555 -22.159  0.00  0.00    +0.037 C 
BRANCH  18  20
ATOM     20  O   UNL     1      37.853 -18.358 -21.908  0.00  0.00    -0.380 OA
ATOM     21  H   UNL     1      37.907 -17.406 -22.089  0.00  0.00    +0.211 HD
ENDBRANCH  18  20
ENDBRANCH   6  18
BRANCH  14  22
ATOM     22  O   UNL     1      33.591 -24.674 -14.526  0.00  0.00    -0.467 OA
BRANCH  22  23
ATOM     23  C   UNL     1      32.772 -24.062 -13.530  0.00  0.00    +0.232 C 
BRANCH  23  24
ATOM     24  C   UNL     1      31.365 -23.968 -14.046  0.00  0.00    +0.021 C 
ATOM     25  C   UNL     1      30.778 -22.720 -14.218  0.00  0.00    +0.002 C 
ATOM     26  C   UNL     1      30.662 -25.131 -14.344  0.00  0.00    +0.002 C 
ATOM     27  C   UNL     1      29.469 -22.633 -14.697  0.00  0.00    +0.037 C 
ATOM     28  C   UNL     1      29.355 -25.043 -14.822  0.00  0.00    +0.037 C 
ATOM     29  C   UNL     1      28.759 -23.795 -14.998  0.00  0.00    +0.139 C 
BRANCH  29  30
ATOM     30  O   UNL     1      27.483 -23.709 -15.465  0.00  0.00    -0.471 OA
ATOM     31  C   UNL     1      26.998 -22.409 -15.797  0.00  0.00    +0.252 C 
ENDBRANCH  29  30
ENDBRANCH  23  24
ENDBRANCH  22  23
ENDBRANCH  14  22
TORSDOF 7
ENDMDL
MODEL 2
REMARK VINA RESULT:     -11.3      3.012      8.969
REMARK  Name = 11998575
REMARK  7 active torsions:
REMARK  status: ('A' for Active; 'I' for Inactive)
REMARK    1  A    between atoms: C_6  and  C_18
REMARK    2  A    between atoms: C_14  and  O_22
REMARK    3  A    between atoms: C_15  and  O_16
REMARK    4  A    between atoms: C_18  and  O_20
REMARK    5  A    between atoms: O_22  and  C_23
REMARK    6  A    between atoms: C_23  and  C_24
REMARK    7  A    between atoms: C_29  and  O_30
REMARK                            x       y       z     vdW  Elec       q    Type
REMARK                         _______ _______ _______ _____ _____    ______ ____
ROOT
ATOM      1  O   UNL     1      37.523 -22.032 -17.153  0.00  0.00    -0.421 OA
ATOM      2  O   UNL     1      38.848 -22.691 -15.418  0.00  0.00    -0.244 OA
ATOM      3  C   UNL     1      35.267 -23.132 -15.852  0.00  0.00    +0.009 A 
ATOM      4  C   UNL     1      35.122 -22.477 -17.158  0.00  0.00    +0.038 A 
ATOM      5  C   UNL     1      36.537 -23.207 -15.254  0.00  0.00    +0.076 A 
ATOM      6  C   UNL     1      35.632 -24.377 -13.335  0.00  0.00    +0.004 C 
ATOM      7  C   UNL     1      36.258 -21.945 -17.771  0.00  0.00    +0.152 A 
ATOM      8  C   UNL     1      36.717 -23.825 -14.006  0.00  0.00    +0.004 C 
ATOM      9  C   UNL     1      34.187 -23.701 -15.148  0.00  0.00    +0.000 C 
ATOM     10  C   UNL     1      33.910 -22.341 -17.854  0.00  0.00    +0.043 C 
ATOM     11  C   UNL     1      34.368 -24.316 -13.905  0.00  0.00    -0.002 C 
ATOM     12  C   UNL     1      37.732 -22.637 -15.921  0.00  0.00    +0.346 A 
ATOM     13  C   UNL     1      36.223 -21.305 -19.013  0.00  0.00    +0.078 C 
ATOM     14  C   UNL     1      35.009 -21.185 -19.679  0.00  0.00    +0.176 C 
ATOM     15  C   UNL     1      33.853 -21.703 -19.101  0.00  0.00    +0.173 C 
ENDROOT
BRANCH  15  16
ATOM     16  O   UNL     1      32.655 -21.594 -19.741  0.00  0.00    -0.468 OA
ATOM     17  C   UNL     1      32.274 -20.294 -20.183  0.00  0.00    +0.253 C 
ENDBRANCH  15  16
BRANCH   6  18
ATOM     18  C   UNL     1      35.824 -25.034 -12.010  0.00  0.00    +0.133 C 
ATOM     19  C   UNL     1      36.881 -24.333 -11.149  0.00  0.00    +0.037 C 
BRANCH  18  20
ATOM     20  O   UNL     1      34.588 -25.052 -11.287  0.00  0.00    -0.380 OA
ATOM     21  H   UNL     1      34.704 -25.548 -10.462  0.00  0.00    +0.211 HD
ENDBRANCH  18  20
ENDBRANCH   6  18
BRANCH  14  22
ATOM     22  O   UNL     1      34.964 -20.565 -20.890  0.00  0.00    -0.467 OA
BRANCH  22  23
ATOM     23  C   UNL     1      35.864 -19.477 -21.096  0.00  0.00    +0.232 C 
BRANCH  23  24
ATOM     24  C   UNL     1      35.327 -18.597 -22.186  0.00  0.00    +0.021 C 
ATOM     25  C   UNL     1      35.515 -17.222 -22.117  0.00  0.00    +0.002 C 
ATOM     26  C   UNL     1      34.644 -19.167 -23.256  0.00  0.00    +0.002 C 
ATOM     27  C   UNL     1      35.015 -16.404 -23.131  0.00  0.00    +0.037 C 
ATOM     28  C   UNL     1      34.144 -18.349 -24.270  0.00  0.00    +0.037 C 
ATOM     29  C   UNL     1      34.329 -16.968 -24.207  0.00  0.00    +0.139 C 
BRANCH  29  30
ATOM     30  O   UNL     1      33.842 -16.170 -25.196  0.00  0.00    -0.471 OA
ATOM     31  C   UNL     1      33.560 -14.813 -24.857  0.00  0.00    +0.252 C 
ENDBRANCH  29  30
ENDBRANCH  23  24
ENDBRANCH  22  23
ENDBRANCH  14  22
TORSDOF 7
ENDMDL
MODEL 3
REMARK VINA RESULT:     -11.0      3.375      8.353
REMARK  Name = 11998575
REMARK  7 active torsions:
REMARK  status: ('A' for Active; 'I' for Inactive)
REMARK    1  A    between atoms: C_6  and  C_18
REMARK    2  A    between atoms: C_14  and  O_22
REMARK    3  A    between atoms: C_15  and  O_16
REMARK    4  A    between atoms: C_18  and  O_20
REMARK    5  A    between atoms: O_22  and  C_23
REMARK    6  A    between atoms: C_23  and  C_24
REMARK    7  A    between atoms: C_29  and  O_30
REMARK                            x       y       z     vdW  Elec       q    Type
REMARK                         _______ _______ _______ _____ _____    ______ ____
ROOT
ATOM      1  O   UNL     1      32.690 -24.533 -12.441  0.00  0.00    -0.421 OA
ATOM      2  O   UNL     1      30.494 -24.995 -12.034  0.00  0.00    -0.244 OA
ATOM      3  C   UNL     1      32.002 -23.494 -14.981  0.00  0.00    +0.009 A 
ATOM      4  C   UNL     1      33.403 -23.510 -14.542  0.00  0.00    +0.038 A 
ATOM      5  C   UNL     1      31.006 -24.000 -14.127  0.00  0.00    +0.076 A 
ATOM      6  C   UNL     1      29.277 -23.501 -15.750  0.00  0.00    +0.004 C 
ATOM      7  C   UNL     1      33.706 -24.030 -13.282  0.00  0.00    +0.152 A 
ATOM      8  C   UNL     1      29.655 -24.003 -14.509  0.00  0.00    +0.004 C 
ATOM      9  C   UNL     1      31.589 -22.993 -16.230  0.00  0.00    +0.000 C 
ATOM     10  C   UNL     1      34.485 -23.036 -15.302  0.00  0.00    +0.043 C 
ATOM     11  C   UNL     1      30.243 -22.996 -16.610  0.00  0.00    -0.002 C 
ATOM     12  C   UNL     1      31.346 -24.549 -12.793  0.00  0.00    +0.346 A 
ATOM     13  C   UNL     1      35.007 -24.090 -12.776  0.00  0.00    +0.078 C 
ATOM     14  C   UNL     1      36.057 -23.614 -13.551  0.00  0.00    +0.176 C 
ATOM     15  C   UNL     1      35.797 -23.087 -14.813  0.00  0.00    +0.173 C 
ENDROOT
BRANCH  15  16
ATOM     16  O   UNL     1      36.816 -22.616 -15.586  0.00  0.00    -0.468 OA
ATOM     17  C   UNL     1      36.465 -22.070 -16.855  0.00  0.00    +0.253 C 
ENDBRANCH  15  16
BRANCH   6  18
ATOM     18  C   UNL     1      27.842 -23.505 -16.156  0.00  0.00    +0.133 C 
ATOM     19  C   UNL     1      27.049 -22.348 -15.539  0.00  0.00    +0.037 C 
BRANCH  18  20
ATOM     20  O   UNL     1      27.736 -23.420 -17.582  0.00  0.00    -0.380 OA
ATOM     21  H   UNL     1      27.718 -22.487 -17.849  0.00  0.00    +0.211 HD
ENDBRANCH  18  20
ENDBRANCH   6  18
BRANCH  14  22
ATOM     22  O   UNL     1      37.329 -23.668 -13.069  0.00  0.00    -0.467 OA
BRANCH  22  23
ATOM     23  C   UNL     1      37.744 -24.895 -12.470  0.00  0.00    +0.232 C 
BRANCH  23  24
ATOM     24  C   UNL     1      38.593 -25.654 -13.448  0.00  0.00    +0.021 C 
ATOM     25  C   UNL     1      39.969 -25.462 -13.459  0.00  0.00    +0.002 C 
ATOM     26  C   UNL     1      37.993 -26.541 -14.337  0.00  0.00    +0.002 C 
ATOM     27  C   UNL     1      40.758 -26.167 -14.369  0.00  0.00    +0.037 C 
ATOM     28  C   UNL     1      38.782 -27.246 -15.246  0.00  0.00    +0.037 C 
ATOM     29  C   UNL     1      40.164 -27.058 -15.262  0.00  0.00    +0.139 C 
BRANCH  29  30
ATOM     30  O   UNL     1      40.934 -27.746 -16.149  0.00  0.00    -0.471 OA
ATOM     31  C   UNL     1      40.764 -29.162 -16.196  0.00  0.00    +0.252 C 
ENDBRANCH  29  30
ENDBRANCH  23  24
ENDBRANCH  22  23
ENDBRANCH  14  22
TORSDOF 7
ENDMDL
MODEL 4
REMARK VINA RESULT:     -10.5      2.921      9.072
REMARK  Name = 11998575
REMARK  7 active torsions:
REMARK  status: ('A' for Active; 'I' for Inactive)
REMARK    1  A    between atoms: C_6  and  C_18
REMARK    2  A    between atoms: C_14  and  O_22
REMARK    3  A    between atoms: C_15  and  O_16
REMARK    4  A    between atoms: C_18  and  O_20
REMARK    5  A    between atoms: O_22  and  C_23
REMARK    6  A    between atoms: C_23  and  C_24
REMARK    7  A    between atoms: C_29  and  O_30
REMARK                            x       y       z     vdW  Elec       q    Type
REMARK                         _______ _______ _______ _____ _____    ______ ____
ROOT
ATOM      1  O   UNL     1      32.896 -21.438 -19.379  0.00  0.00    -0.421 OA
ATOM      2  O   UNL     1      32.171 -22.757 -17.666  0.00  0.00    -0.244 OA
ATOM      3  C   UNL     1      35.528 -21.547 -18.351  0.00  0.00    +0.009 A 
ATOM      4  C   UNL     1      35.241 -20.784 -19.573  0.00  0.00    +0.038 A 
ATOM      5  C   UNL     1      34.483 -22.221 -17.697  0.00  0.00    +0.076 A 
ATOM      6  C   UNL     1      35.997 -23.039 -15.991  0.00  0.00    +0.004 C 
ATOM      7  C   UNL     1      33.930 -20.753 -20.052  0.00  0.00    +0.152 A 
ATOM      8  C   UNL     1      34.716 -22.962 -16.527  0.00  0.00    +0.004 C 
ATOM      9  C   UNL     1      36.814 -21.643 -17.785  0.00  0.00    +0.000 C 
ATOM     10  C   UNL     1      36.197 -20.070 -20.313  0.00  0.00    +0.043 C 
ATOM     11  C   UNL     1      37.045 -22.380 -16.619  0.00  0.00    -0.002 C 
ATOM     12  C   UNL     1      33.096 -22.176 -18.220  0.00  0.00    +0.346 A 
ATOM     13  C   UNL     1      33.557 -20.055 -21.204  0.00  0.00    +0.078 C 
ATOM     14  C   UNL     1      34.524 -19.357 -21.915  0.00  0.00    +0.176 C 
ATOM     15  C   UNL     1      35.843 -19.363 -21.471  0.00  0.00    +0.173 C 
ENDROOT
BRANCH  15  16
ATOM     16  O   UNL     1      36.805 -18.683 -22.157  0.00  0.00    -0.468 OA
ATOM     17  C   UNL     1      38.083 -18.567 -21.536  0.00  0.00    +0.253 C 
ENDBRANCH  15  16
BRANCH   6  18
ATOM     18  C   UNL     1      36.244 -23.824 -14.748  0.00  0.00    +0.133 C 
ATOM     19  C   UNL     1      34.950 -24.317 -14.092  0.00  0.00    +0.037 C 
BRANCH  18  20
ATOM     20  O   UNL     1      37.066 -24.960 -15.040  0.00  0.00    -0.380 OA
ATOM     21  H   UNL     1      36.987 -25.182 -15.980  0.00  0.00    +0.211 HD
ENDBRANCH  18  20
ENDBRANCH   6  18
BRANCH  14  22
ATOM     22  O   UNL     1      34.172 -18.672 -23.038  0.00  0.00    -0.467 OA
BRANCH  22  23
ATOM     23  C   UNL     1      35.134 -17.766 -23.574  0.00  0.00    +0.232 C 
BRANCH  23  24
ATOM     24  C   UNL     1      34.619 -16.363 -23.429  0.00  0.00    +0.021 C 
ATOM     25  C   UNL     1      33.973 -15.753 -24.497  0.00  0.00    +0.002 C 
ATOM     26  C   UNL     1      34.796 -15.686 -22.227  0.00  0.00    +0.002 C 
ATOM     27  C   UNL     1      33.494 -14.449 -24.362  0.00  0.00    +0.037 C 
ATOM     28  C   UNL     1      34.318 -14.383 -22.092  0.00  0.00    +0.037 C 
ATOM     29  C   UNL     1      33.667 -13.765 -23.159  0.00  0.00    +0.139 C 
BRANCH  29  30
ATOM     30  O   UNL     1      33.200 -12.493 -23.028  0.00  0.00    -0.471 OA
ATOM     31  C   UNL     1      33.698 -11.520 -23.944  0.00  0.00    +0.252 C 
ENDBRANCH  29  30
ENDBRANCH  23  24
ENDBRANCH  22  23
ENDBRANCH  14  22
TORSDOF 7
ENDMDL
MODEL 5
REMARK VINA RESULT:     -10.5      1.855      8.923
REMARK  Name = 11998575
REMARK  7 active torsions:
REMARK  status: ('A' for Active; 'I' for Inactive)
REMARK    1  A    between atoms: C_6  and  C_18
REMARK    2  A    between atoms: C_14  and  O_22
REMARK    3  A    between atoms: C_15  and  O_16
REMARK    4  A    between atoms: C_18  and  O_20
REMARK    5  A    between atoms: O_22  and  C_23
REMARK    6  A    between atoms: C_23  and  C_24
REMARK    7  A    between atoms: C_29  and  O_30
REMARK                            x       y       z     vdW  Elec       q    Type
REMARK                         _______ _______ _______ _____ _____    ______ ____
ROOT
ATOM      1  O   UNL     1      36.190 -22.840 -16.337  0.00  0.00    -0.421 OA
ATOM      2  O   UNL     1      36.196 -23.931 -14.335  0.00  0.00    -0.244 OA
ATOM      3  C   UNL     1      33.371 -23.040 -16.440  0.00  0.00    +0.009 A 
ATOM      4  C   UNL     1      34.106 -22.381 -17.527  0.00  0.00    +0.038 A 
ATOM      5  C   UNL     1      34.080 -23.570 -15.349  0.00  0.00    +0.076 A 
ATOM      6  C   UNL     1      32.029 -24.325 -14.303  0.00  0.00    +0.004 C 
ATOM      7  C   UNL     1      35.498 -22.301 -17.443  0.00  0.00    +0.152 A 
ATOM      8  C   UNL     1      33.414 -24.207 -14.289  0.00  0.00    +0.004 C 
ATOM      9  C   UNL     1      31.968 -23.174 -16.426  0.00  0.00    +0.000 C 
ATOM     10  C   UNL     1      33.512 -21.815 -18.666  0.00  0.00    +0.043 C 
ATOM     11  C   UNL     1      31.306 -23.809 -15.371  0.00  0.00    -0.002 C 
ATOM     12  C   UNL     1      35.558 -23.476 -15.277  0.00  0.00    +0.346 A 
ATOM     13  C   UNL     1      36.286 -21.695 -18.426  0.00  0.00    +0.078 C 
ATOM     14  C   UNL     1      35.670 -21.144 -19.542  0.00  0.00    +0.176 C 
ATOM     15  C   UNL     1      34.284 -21.204 -19.663  0.00  0.00    +0.173 C 
ENDROOT
BRANCH  15  16
ATOM     16  O   UNL     1      33.664 -20.668 -20.753  0.00  0.00    -0.468 OA
ATOM     17  C   UNL     1      32.292 -20.313 -20.606  0.00  0.00    +0.253 C 
ENDBRANCH  15  16
BRANCH   6  18
ATOM     18  C   UNL     1      31.322 -25.003 -13.179  0.00  0.00    +0.133 C 
ATOM     19  C   UNL     1      30.638 -24.015 -12.228  0.00  0.00    +0.037 C 
BRANCH  18  20
ATOM     20  O   UNL     1      30.330 -25.900 -13.693  0.00  0.00    -0.380 OA
ATOM     21  H   UNL     1      29.662 -25.396 -14.182  0.00  0.00    +0.211 HD
ENDBRANCH  18  20
ENDBRANCH   6  18
BRANCH  14  22
ATOM     22  O   UNL     1      36.428 -20.553 -20.506  0.00  0.00    -0.467 OA
BRANCH  22  23
ATOM     23  C   UNL     1      36.615 -19.142 -20.410  0.00  0.00    +0.232 C 
BRANCH  23  24
ATOM     24  C   UNL     1      35.913 -18.476 -21.558  0.00  0.00    +0.021 C 
ATOM     25  C   UNL     1      35.498 -19.235 -22.645  0.00  0.00    +0.002 C 
ATOM     26  C   UNL     1      35.686 -17.104 -21.523  0.00  0.00    +0.002 C 
ATOM     27  C   UNL     1      34.845 -18.616 -23.712  0.00  0.00    +0.037 C 
ATOM     28  C   UNL     1      35.034 -16.485 -22.589  0.00  0.00    +0.037 C 
ATOM     29  C   UNL     1      34.614 -17.241 -23.683  0.00  0.00    +0.139 C 
BRANCH  29  30
ATOM     30  O   UNL     1      33.977 -16.637 -24.724  0.00  0.00    -0.471 OA
ATOM     31  C   UNL     1      33.779 -15.227 -24.635  0.00  0.00    +0.252 C 
ENDBRANCH  29  30
ENDBRANCH  23  24
ENDBRANCH  22  23
ENDBRANCH  14  22
TORSDOF 7
ENDMDL
MODEL 6
REMARK VINA RESULT:     -10.3      2.592      8.802
REMARK  Name = 11998575
REMARK  7 active torsions:
REMARK  status: ('A' for Active; 'I' for Inactive)
REMARK    1  A    between atoms: C_6  and  C_18
REMARK    2  A    between atoms: C_14  and  O_22
REMARK    3  A    between atoms: C_15  and  O_16
REMARK    4  A    between atoms: C_18  and  O_20
REMARK    5  A    between atoms: O_22  and  C_23
REMARK    6  A    between atoms: C_23  and  C_24
REMARK    7  A    between atoms: C_29  and  O_30
REMARK                            x       y       z     vdW  Elec       q    Type
REMARK                         _______ _______ _______ _____ _____    ______ ____
ROOT
ATOM      1  O   UNL     1      32.713 -22.337 -18.220  0.00  0.00    -0.421 OA
ATOM      2  O   UNL     1      31.944 -23.614 -16.494  0.00  0.00    -0.244 OA
ATOM      3  C   UNL     1      35.318 -22.416 -17.122  0.00  0.00    +0.009 A 
ATOM      4  C   UNL     1      35.062 -21.685 -18.370  0.00  0.00    +0.038 A 
ATOM      5  C   UNL     1      34.256 -23.075 -16.479  0.00  0.00    +0.076 A 
ATOM      6  C   UNL     1      35.725 -23.847 -14.713  0.00  0.00    +0.004 C 
ATOM      7  C   UNL     1      33.763 -21.667 -18.883  0.00  0.00    +0.152 A 
ATOM      8  C   UNL     1      34.459 -23.786 -15.284  0.00  0.00    +0.004 C 
ATOM      9  C   UNL     1      36.588 -22.496 -16.520  0.00  0.00    +0.000 C 
ATOM     10  C   UNL     1      36.036 -20.988 -19.102  0.00  0.00    +0.043 C 
ATOM     11  C   UNL     1      36.790 -23.203 -15.330  0.00  0.00    -0.002 C 
ATOM     12  C   UNL     1      32.883 -23.045 -17.038  0.00  0.00    +0.346 A 
ATOM     13  C   UNL     1      33.420 -20.999 -20.062  0.00  0.00    +0.078 C 
ATOM     14  C   UNL     1      34.405 -20.318 -20.765  0.00  0.00    +0.176 C 
ATOM     15  C   UNL     1      35.712 -20.311 -20.286  0.00  0.00    +0.173 C 
ENDROOT
BRANCH  15  16
ATOM     16  O   UNL     1      36.691 -19.647 -20.964  0.00  0.00    -0.468 OA
ATOM     17  C   UNL     1      37.496 -18.740 -20.214  0.00  0.00    +0.253 C 
ENDBRANCH  15  16
BRANCH   6  18
ATOM     18  C   UNL     1      35.940 -24.600 -13.445  0.00  0.00    +0.133 C 
ATOM     19  C   UNL     1      34.875 -24.294 -12.386  0.00  0.00    +0.037 C 
BRANCH  18  20
ATOM     20  O   UNL     1      35.932 -26.009 -13.703  0.00  0.00    -0.380 OA
ATOM     21  H   UNL     1      36.416 -26.189 -14.524  0.00  0.00    +0.211 HD
ENDBRANCH  18  20
ENDBRANCH   6  18
BRANCH  14  22
ATOM     22  O   UNL     1      34.082 -19.663 -21.914  0.00  0.00    -0.467 OA
BRANCH  22  23
ATOM     23  C   UNL     1      35.157 -19.106 -22.668  0.00  0.00    +0.232 C 
BRANCH  23  24
ATOM     24  C   UNL     1      34.812 -17.694 -23.043  0.00  0.00    +0.021 C 
ATOM     25  C   UNL     1      35.044 -16.665 -22.138  0.00  0.00    +0.002 C 
ATOM     26  C   UNL     1      34.261 -17.429 -24.293  0.00  0.00    +0.002 C 
ATOM     27  C   UNL     1      34.722 -15.352 -22.486  0.00  0.00    +0.037 C 
ATOM     28  C   UNL     1      33.940 -16.117 -24.641  0.00  0.00    +0.037 C 
ATOM     29  C   UNL     1      34.171 -15.079 -23.738  0.00  0.00    +0.139 C 
BRANCH  29  30
ATOM     30  O   UNL     1      33.857 -13.799 -24.078  0.00  0.00    -0.471 OA
ATOM     31  C   UNL     1      33.937 -12.815 -23.048  0.00  0.00    +0.252 C 
ENDBRANCH  29  30
ENDBRANCH  23  24
ENDBRANCH  22  23
ENDBRANCH  14  22
TORSDOF 7
ENDMDL
MODEL 7
REMARK VINA RESULT:     -10.3      9.866     14.928
REMARK  Name = 11998575
REMARK  7 active torsions:
REMARK  status: ('A' for Active; 'I' for Inactive)
REMARK    1  A    between atoms: C_6  and  C_18
REMARK    2  A    between atoms: C_14  and  O_22
REMARK    3  A    between atoms: C_15  and  O_16
REMARK    4  A    between atoms: C_18  and  O_20
REMARK    5  A    between atoms: O_22  and  C_23
REMARK    6  A    between atoms: C_23  and  C_24
REMARK    7  A    between atoms: C_29  and  O_30
REMARK                            x       y       z     vdW  Elec       q    Type
REMARK                         _______ _______ _______ _____ _____    ______ ____
ROOT
ATOM      1  O   UNL     1      34.716  -7.573 -24.407  0.00  0.00    -0.421 OA
ATOM      2  O   UNL     1      35.045  -5.373 -24.908  0.00  0.00    -0.244 OA
ATOM      3  C   UNL     1      32.440  -6.886 -22.876  0.00  0.00    +0.009 A 
ATOM      4  C   UNL     1      32.854  -8.289 -22.998  0.00  0.00    +0.038 A 
ATOM      5  C   UNL     1      33.185  -5.887 -23.526  0.00  0.00    +0.076 A 
ATOM      6  C   UNL     1      31.709  -4.156 -22.691  0.00  0.00    +0.004 C 
ATOM      7  C   UNL     1      33.983  -8.592 -23.762  0.00  0.00    +0.152 A 
ATOM      8  C   UNL     1      32.822  -4.534 -23.435  0.00  0.00    +0.004 C 
ATOM      9  C   UNL     1      31.318  -6.473 -22.131  0.00  0.00    +0.000 C 
ATOM     10  C   UNL     1      32.194  -9.373 -22.397  0.00  0.00    +0.043 C 
ATOM     11  C   UNL     1      30.958  -5.125 -22.039  0.00  0.00    -0.002 C 
ATOM     12  C   UNL     1      34.382  -6.227 -24.333  0.00  0.00    +0.346 A 
ATOM     13  C   UNL     1      34.457  -9.895 -23.937  0.00  0.00    +0.078 C 
ATOM     14  C   UNL     1      33.783 -10.947 -23.330  0.00  0.00    +0.176 C 
ATOM     15  C   UNL     1      32.653 -10.687 -22.560  0.00  0.00    +0.173 C 
ENDROOT
BRANCH  15  16
ATOM     16  O   UNL     1      31.981 -11.708 -21.957  0.00  0.00    -0.468 OA
ATOM     17  C   UNL     1      31.598 -11.516 -20.597  0.00  0.00    +0.253 C 
ENDBRANCH  15  16
BRANCH   6  18
ATOM     18  C   UNL     1      31.325  -2.719 -22.593  0.00  0.00    +0.133 C 
ATOM     19  C   UNL     1      30.972  -2.106 -23.952  0.00  0.00    +0.037 C 
BRANCH  18  20
ATOM     20  O   UNL     1      30.198  -2.571 -21.721  0.00  0.00    -0.380 OA
ATOM     21  H   UNL     1      29.538  -3.250 -21.930  0.00  0.00    +0.211 HD
ENDBRANCH  18  20
ENDBRANCH   6  18
BRANCH  14  22
ATOM     22  O   UNL     1      34.237 -12.220 -23.492  0.00  0.00    -0.467 OA
BRANCH  22  23
ATOM     23  C   UNL     1      33.276 -13.208 -23.864  0.00  0.00    +0.232 C 
BRANCH  23  24
ATOM     24  C   UNL     1      33.867 -14.571 -23.647  0.00  0.00    +0.021 C 
ATOM     25  C   UNL     1      34.490 -14.867 -22.440  0.00  0.00    +0.002 C 
ATOM     26  C   UNL     1      33.788 -15.525 -24.657  0.00  0.00    +0.002 C 
ATOM     27  C   UNL     1      35.040 -16.133 -22.238  0.00  0.00    +0.037 C 
ATOM     28  C   UNL     1      34.338 -16.791 -24.455  0.00  0.00    +0.037 C 
ATOM     29  C   UNL     1      34.963 -17.095 -23.246  0.00  0.00    +0.139 C 
BRANCH  29  30
ATOM     30  O   UNL     1      35.499 -18.330 -23.049  0.00  0.00    -0.471 OA
ATOM     31  C   UNL     1      34.602 -19.378 -22.687  0.00  0.00    +0.252 C 
ENDBRANCH  29  30
ENDBRANCH  23  24
ENDBRANCH  22  23
ENDBRANCH  14  22
TORSDOF 7
ENDMDL
MODEL 8
REMARK VINA RESULT:     -10.3      1.615      2.308
REMARK  Name = 11998575
REMARK  7 active torsions:
REMARK  status: ('A' for Active; 'I' for Inactive)
REMARK    1  A    between atoms: C_6  and  C_18
REMARK    2  A    between atoms: C_14  and  O_22
REMARK    3  A    between atoms: C_15  and  O_16
REMARK    4  A    between atoms: C_18  and  O_20
REMARK    5  A    between atoms: O_22  and  C_23
REMARK    6  A    between atoms: C_23  and  C_24
REMARK    7  A    between atoms: C_29  and  O_30
REMARK                            x       y       z     vdW  Elec       q    Type
REMARK                         _______ _______ _______ _____ _____    ______ ____
ROOT
ATOM      1  O   UNL     1      33.032 -21.468 -19.459  0.00  0.00    -0.421 OA
ATOM      2  O   UNL     1      31.915 -20.442 -21.161  0.00  0.00    -0.244 OA
ATOM      3  C   UNL     1      35.418 -20.163 -20.234  0.00  0.00    +0.009 A 
ATOM      4  C   UNL     1      35.414 -21.076 -19.085  0.00  0.00    +0.038 A 
ATOM      5  C   UNL     1      34.226 -19.944 -20.946  0.00  0.00    +0.076 A 
ATOM      6  C   UNL     1      35.340 -18.418 -22.463  0.00  0.00    +0.004 C 
ATOM      7  C   UNL     1      34.218 -21.703 -18.730  0.00  0.00    +0.152 A 
ATOM      8  C   UNL     1      34.188 -19.078 -22.051  0.00  0.00    +0.004 C 
ATOM      9  C   UNL     1      36.569 -19.480 -20.675  0.00  0.00    +0.000 C 
ATOM     10  C   UNL     1      36.538 -21.376 -18.297  0.00  0.00    +0.043 C 
ATOM     11  C   UNL     1      36.530 -18.619 -21.776  0.00  0.00    -0.002 C 
ATOM     12  C   UNL     1      32.965 -20.619 -20.555  0.00  0.00    +0.346 A 
ATOM     13  C   UNL     1      34.113 -22.589 -17.654  0.00  0.00    +0.078 C 
ATOM     14  C   UNL     1      35.242 -22.867 -16.894  0.00  0.00    +0.176 C 
ATOM     15  C   UNL     1      36.453 -22.262 -17.215  0.00  0.00    +0.173 C 
ENDROOT
BRANCH  15  16
ATOM     16  O   UNL     1      37.571 -22.524 -16.479  0.00  0.00    -0.468 OA
ATOM     17  C   UNL     1      38.138 -21.436 -15.754  0.00  0.00    +0.253 C 
ENDBRANCH  15  16
BRANCH   6  18
ATOM     18  C   UNL     1      35.299 -17.499 -23.637  0.00  0.00    +0.133 C 
ATOM     19  C   UNL     1      33.942 -17.506 -24.348  0.00  0.00    +0.037 C 
BRANCH  18  20
ATOM     20  O   UNL     1      35.588 -16.159 -23.221  0.00  0.00    -0.380 OA
ATOM     21  H   UNL     1      35.117 -15.969 -22.395  0.00  0.00    +0.211 HD
ENDBRANCH  18  20
ENDBRANCH   6  18
BRANCH  14  22
ATOM     22  O   UNL     1      35.151 -23.729 -15.844  0.00  0.00    -0.467 OA
BRANCH  22  23
ATOM     23  C   UNL     1      34.779 -23.178 -14.582  0.00  0.00    +0.232 C 
BRANCH  23  24
ATOM     24  C   UNL     1      33.383 -23.618 -14.249  0.00  0.00    +0.021 C 
ATOM     25  C   UNL     1      32.300 -22.877 -14.706  0.00  0.00    +0.002 C 
ATOM     26  C   UNL     1      33.187 -24.763 -13.483  0.00  0.00    +0.002 C 
ATOM     27  C   UNL     1      31.002 -23.287 -14.395  0.00  0.00    +0.037 C 
ATOM     28  C   UNL     1      31.890 -25.172 -13.173  0.00  0.00    +0.037 C 
ATOM     29  C   UNL     1      30.798 -24.434 -13.629  0.00  0.00    +0.139 C 
BRANCH  29  30
ATOM     30  O   UNL     1      29.532 -24.833 -13.327  0.00  0.00    -0.471 OA
ATOM     31  C   UNL     1      28.837 -25.593 -14.314  0.00  0.00    +0.252 C 
ENDBRANCH  29  30
ENDBRANCH  23  24
ENDBRANCH  22  23
ENDBRANCH  14  22
TORSDOF 7
ENDMDL
MODEL 9
REMARK VINA RESULT:     -10.2      7.679     12.570
REMARK  Name = 11998575
REMARK  7 active torsions:
REMARK  status: ('A' for Active; 'I' for Inactive)
REMARK    1  A    between atoms: C_6  and  C_18
REMARK    2  A    between atoms: C_14  and  O_22
REMARK    3  A    between atoms: C_15  and  O_16
REMARK    4  A    between atoms: C_18  and  O_20
REMARK    5  A    between atoms: O_22  and  C_23
REMARK    6  A    between atoms: C_23  and  C_24
REMARK    7  A    between atoms: C_29  and  O_30
REMARK                            x       y       z     vdW  Elec       q    Type
REMARK                         _______ _______ _______ _____ _____    ______ ____
ROOT
ATOM      1  O   UNL     1      32.078 -11.787 -20.789  0.00  0.00    -0.421 OA
ATOM      2  O   UNL     1      31.427 -10.267 -19.219  0.00  0.00    -0.244 OA
ATOM      3  C   UNL     1      32.644  -9.684 -22.593  0.00  0.00    +0.009 A 
ATOM      4  C   UNL     1      32.857 -11.080 -22.994  0.00  0.00    +0.038 A 
ATOM      5  C   UNL     1      32.156  -9.402 -21.306  0.00  0.00    +0.076 A 
ATOM      6  C   UNL     1      32.206  -7.019 -21.742  0.00  0.00    +0.004 C 
ATOM      7  C   UNL     1      32.567 -12.093 -22.077  0.00  0.00    +0.152 A 
ATOM      8  C   UNL     1      31.940  -8.080 -20.884  0.00  0.00    +0.004 C 
ATOM      9  C   UNL     1      32.904  -8.588 -23.440  0.00  0.00    +0.000 C 
ATOM     10  C   UNL     1      33.337 -11.488 -24.249  0.00  0.00    +0.043 C 
ATOM     11  C   UNL     1      32.688  -7.272 -23.019  0.00  0.00    -0.002 C 
ATOM     12  C   UNL     1      31.853 -10.490 -20.345  0.00  0.00    +0.346 A 
ATOM     13  C   UNL     1      32.734 -13.450 -22.365  0.00  0.00    +0.078 C 
ATOM     14  C   UNL     1      33.211 -13.823 -23.615  0.00  0.00    +0.176 C 
ATOM     15  C   UNL     1      33.512 -12.844 -24.557  0.00  0.00    +0.173 C 
ENDROOT
BRANCH  15  16
ATOM     16  O   UNL     1      33.981 -13.193 -25.788  0.00  0.00    -0.468 OA
ATOM     17  C   UNL     1      33.635 -12.340 -26.877  0.00  0.00    +0.253 C 
ENDBRANCH  15  16
BRANCH   6  18
ATOM     18  C   UNL     1      31.974  -5.616 -21.294  0.00  0.00    +0.133 C 
ATOM     19  C   UNL     1      30.528  -5.157 -21.507  0.00  0.00    +0.037 C 
BRANCH  18  20
ATOM     20  O   UNL     1      32.292  -5.486 -19.903  0.00  0.00    -0.380 OA
ATOM     21  H   UNL     1      33.064  -6.035 -19.696  0.00  0.00    +0.211 HD
ENDBRANCH  18  20
ENDBRANCH   6  18
BRANCH  14  22
ATOM     22  O   UNL     1      33.377 -15.143 -23.906  0.00  0.00    -0.467 OA
BRANCH  22  23
ATOM     23  C   UNL     1      34.718 -15.621 -24.008  0.00  0.00    +0.232 C 
BRANCH  23  24
ATOM     24  C   UNL     1      34.860 -16.860 -23.172  0.00  0.00    +0.021 C 
ATOM     25  C   UNL     1      34.470 -18.089 -23.690  0.00  0.00    +0.002 C 
ATOM     26  C   UNL     1      35.378 -16.765 -21.884  0.00  0.00    +0.002 C 
ATOM     27  C   UNL     1      34.602 -19.240 -22.913  0.00  0.00    +0.037 C 
ATOM     28  C   UNL     1      35.509 -17.916 -21.106  0.00  0.00    +0.037 C 
ATOM     29  C   UNL     1      35.121 -19.153 -21.621  0.00  0.00    +0.139 C 
BRANCH  29  30
ATOM     30  O   UNL     1      35.249 -20.276 -20.863  0.00  0.00    -0.471 OA
ATOM     31  C   UNL     1      34.186 -20.576 -19.960  0.00  0.00    +0.252 C 
ENDBRANCH  29  30
ENDBRANCH  23  24
ENDBRANCH  22  23
ENDBRANCH  14  22
TORSDOF 7
ENDMDL
