MODEL 1
REMARK VINA RESULT:     -11.4      0.000      0.000
REMARK  Name = 3351
REMARK  5 active torsions:
REMARK  status: ('A' for Active; 'I' for Inactive)
REMARK    1  A    between atoms: N_2  and  C_10
REMARK    2  A    between atoms: C_8  and  C_20
REMARK    3  A    between atoms: C_10  and  C_13
REMARK    4  A    between atoms: C_20  and  O_21
REMARK    5  A    between atoms: O_21  and  C_23
REMARK                            x       y       z     vdW  Elec       q    Type
REMARK                         _______ _______ _______ _____ _____    ______ ____
ROOT
ATOM      1  O   UNL     1      35.270 -17.022 -23.482  0.00  0.00    -0.271 OA
ATOM      2  N   UNL     1      32.897 -12.996 -21.729  0.00  0.00    +0.392 N 
ATOM      3  N   UNL     1      34.586 -15.278 -22.108  0.00  0.00    -0.281 N 
ATOM      4  C   UNL     1      32.934 -13.689 -23.024  0.00  0.00    -0.055 C 
ATOM      5  C   UNL     1      33.120 -13.947 -20.630  0.00  0.00    -0.055 C 
ATOM      6  C   UNL     1      34.278 -14.388 -23.226  0.00  0.00    +0.071 C 
ATOM      7  C   UNL     1      34.466 -14.658 -20.786  0.00  0.00    +0.071 C 
ATOM      8  C   UNL     1      35.072 -16.561 -22.355  0.00  0.00    +0.270 C 
ATOM      9  H   UNL     1      33.646 -12.302 -21.712  0.00  0.00    -0.079 HD
ENDROOT
BRANCH   2  10
ATOM     10  C   UNL     1      31.623 -12.300 -21.554  0.00  0.00    -0.050 C 
BRANCH  10  13
ATOM     11  O   UNL     1      32.247  -7.402 -21.588  0.00  0.00    -0.435 OA
ATOM     12  O   UNL     1      32.290  -7.275 -19.181  0.00  0.00    -0.435 OA
ATOM     13  C   UNL     1      31.800 -10.965 -20.882  0.00  0.00    -0.040 C 
ATOM     14  C   UNL     1      31.937  -9.822 -21.664  0.00  0.00    +0.034 C 
ATOM     15  C   UNL     1      31.824 -10.902 -19.484  0.00  0.00    -0.003 C 
ATOM     16  C   UNL     1      32.097  -8.621 -21.003  0.00  0.00    +0.176 C 
ATOM     17  C   UNL     1      32.122  -8.550 -19.629  0.00  0.00    +0.176 C 
ATOM     18  C   UNL     1      31.988  -9.673 -18.840  0.00  0.00    +0.040 C 
ATOM     19  C   UNL     1      32.369  -6.554 -20.428  0.00  0.00    +0.429 C 
ENDBRANCH  10  13
ENDBRANCH   2  10
BRANCH   8  20
ATOM     20  C   UNL     1      35.360 -17.418 -21.148  0.00  0.00    +0.290 C 
BRANCH  20  21
ATOM     21  O   UNL     1      35.413 -18.748 -21.601  0.00  0.00    -0.466 OA
BRANCH  21  23
ATOM     22 CL   UNL     1      33.555 -22.925 -17.916  0.00  0.00    -0.082 Cl
ATOM     23  C   UNL     1      34.977 -19.728 -20.739  0.00  0.00    +0.139 C 
ATOM     24  C   UNL     1      33.618 -19.972 -20.615  0.00  0.00    +0.038 C 
ATOM     25  C   UNL     1      35.906 -20.454 -20.007  0.00  0.00    +0.038 C 
ATOM     26  C   UNL     1      33.176 -20.964 -19.739  0.00  0.00    +0.015 C 
ATOM     27  C   UNL     1      35.464 -21.446 -19.131  0.00  0.00    +0.015 C 
ATOM     28  C   UNL     1      34.100 -21.701 -18.997  0.00  0.00    +0.058 C 
ENDBRANCH  21  23
ENDBRANCH  20  21
ENDBRANCH   8  20
TORSDOF 5
ENDMDL
MODEL 2
REMARK VINA RESULT:     -11.0      5.529      8.269
REMARK  Name = 3351
REMARK  5 active torsions:
REMARK  status: ('A' for Active; 'I' for Inactive)
REMARK    1  A    between atoms: N_2  and  C_10
REMARK    2  A    between atoms: C_8  and  C_20
REMARK    3  A    between atoms: C_10  and  C_13
REMARK    4  A    between atoms: C_20  and  O_21
REMARK    5  A    between atoms: O_21  and  C_23
REMARK                            x       y       z     vdW  Elec       q    Type
REMARK                         _______ _______ _______ _____ _____    ______ ____
ROOT
ATOM      1  O   UNL     1      31.606 -22.371 -17.264  0.00  0.00    -0.271 OA
ATOM      2  N   UNL     1      35.031 -20.623 -20.446  0.00  0.00    +0.392 N 
ATOM      3  N   UNL     1      33.468 -22.209 -18.643  0.00  0.00    -0.281 N 
ATOM      4  C   UNL     1      33.747 -20.123 -19.935  0.00  0.00    -0.055 C 
ATOM      5  C   UNL     1      35.688 -21.474 -19.443  0.00  0.00    -0.055 C 
ATOM      6  C   UNL     1      32.820 -21.283 -19.572  0.00  0.00    +0.071 C 
ATOM      7  C   UNL     1      34.798 -22.659 -19.063  0.00  0.00    +0.071 C 
ATOM      8  C   UNL     1      32.769 -22.682 -17.534  0.00  0.00    +0.270 C 
ATOM      9  H   UNL     1      34.851 -21.187 -21.278  0.00  0.00    -0.079 HD
ENDROOT
BRANCH   2  10
ATOM     10  C   UNL     1      35.902 -19.511 -20.825  0.00  0.00    -0.050 C 
BRANCH  10  13
ATOM     11  O   UNL     1      34.826 -15.349 -23.254  0.00  0.00    -0.435 OA
ATOM     12  O   UNL     1      33.903 -16.547 -25.131  0.00  0.00    -0.435 OA
ATOM     13  C   UNL     1      35.355 -18.746 -22.001  0.00  0.00    -0.040 C 
ATOM     14  C   UNL     1      35.393 -17.356 -21.984  0.00  0.00    +0.034 C 
ATOM     15  C   UNL     1      34.821 -19.452 -23.086  0.00  0.00    -0.003 C 
ATOM     16  C   UNL     1      34.880 -16.698 -23.084  0.00  0.00    +0.176 C 
ATOM     17  C   UNL     1      34.353 -17.382 -24.155  0.00  0.00    +0.176 C 
ATOM     18  C   UNL     1      34.309 -18.761 -24.187  0.00  0.00    +0.040 C 
ATOM     19  C   UNL     1      34.206 -15.260 -24.552  0.00  0.00    +0.429 C 
ENDBRANCH  10  13
ENDBRANCH   2  10
BRANCH   8  20
ATOM     20  C   UNL     1      33.510 -23.628 -16.623  0.00  0.00    +0.290 C 
BRANCH  20  21
ATOM     21  O   UNL     1      34.331 -22.835 -15.801  0.00  0.00    -0.466 OA
BRANCH  21  23
ATOM     22 CL   UNL     1      39.399 -25.187 -13.993  0.00  0.00    -0.082 Cl
ATOM     23  C   UNL     1      35.519 -23.385 -15.376  0.00  0.00    +0.139 C 
ATOM     24  C   UNL     1      36.710 -22.727 -15.644  0.00  0.00    +0.038 C 
ATOM     25  C   UNL     1      35.505 -24.590 -14.687  0.00  0.00    +0.038 C 
ATOM     26  C   UNL     1      37.914 -23.286 -15.216  0.00  0.00    +0.015 C 
ATOM     27  C   UNL     1      36.709 -25.148 -14.259  0.00  0.00    +0.015 C 
ATOM     28  C   UNL     1      37.913 -24.497 -14.522  0.00  0.00    +0.058 C 
ENDBRANCH  21  23
ENDBRANCH  20  21
ENDBRANCH   8  20
TORSDOF 5
ENDMDL
MODEL 3
REMARK VINA RESULT:     -10.8      4.436     10.363
REMARK  Name = 3351
REMARK  5 active torsions:
REMARK  status: ('A' for Active; 'I' for Inactive)
REMARK    1  A    between atoms: N_2  and  C_10
REMARK    2  A    between atoms: C_8  and  C_20
REMARK    3  A    between atoms: C_10  and  C_13
REMARK    4  A    between atoms: C_20  and  O_21
REMARK    5  A    between atoms: O_21  and  C_23
REMARK                            x       y       z     vdW  Elec       q    Type
REMARK                         _______ _______ _______ _____ _____    ______ ____
ROOT
ATOM      1  O   UNL     1      33.346 -13.587 -25.459  0.00  0.00    -0.271 OA
ATOM      2  N   UNL     1      34.989 -17.352 -22.623  0.00  0.00    +0.392 N 
ATOM      3  N   UNL     1      33.862 -14.916 -23.624  0.00  0.00    -0.281 N 
ATOM      4  C   UNL     1      34.848 -17.135 -24.070  0.00  0.00    -0.055 C 
ATOM      5  C   UNL     1      35.240 -16.078 -21.934  0.00  0.00    -0.055 C 
ATOM      6  C   UNL     1      33.701 -16.168 -24.363  0.00  0.00    +0.071 C 
ATOM      7  C   UNL     1      34.105 -15.084 -22.189  0.00  0.00    +0.071 C 
ATOM      8  C   UNL     1      33.661 -13.697 -24.271  0.00  0.00    +0.270 C 
ATOM      9  H   UNL     1      34.115 -17.744 -22.269  0.00  0.00    -0.079 HD
ENDROOT
BRANCH   2  10
ATOM     10  C   UNL     1      36.063 -18.305 -22.349  0.00  0.00    -0.050 C 
BRANCH  10  13
ATOM     11  O   UNL     1      32.784 -20.956 -19.780  0.00  0.00    -0.435 OA
ATOM     12  O   UNL     1      34.495 -21.960 -18.411  0.00  0.00    -0.435 OA
ATOM     13  C   UNL     1      35.678 -19.293 -21.280  0.00  0.00    -0.040 C 
ATOM     14  C   UNL     1      34.335 -19.611 -21.100  0.00  0.00    +0.034 C 
ATOM     15  C   UNL     1      36.679 -19.870 -20.491  0.00  0.00    -0.003 C 
ATOM     16  C   UNL     1      34.031 -20.521 -20.108  0.00  0.00    +0.176 C 
ATOM     17  C   UNL     1      35.008 -21.094 -19.327  0.00  0.00    +0.176 C 
ATOM     18  C   UNL     1      36.343 -20.789 -19.493  0.00  0.00    +0.040 C 
ATOM     19  C   UNL     1      33.086 -21.868 -18.704  0.00  0.00    +0.429 C 
ENDBRANCH  10  13
ENDBRANCH   2  10
BRANCH   8  20
ATOM     20  C   UNL     1      33.851 -12.454 -23.440  0.00  0.00    +0.290 C 
BRANCH  20  21
ATOM     21  O   UNL     1      34.184 -11.420 -24.333  0.00  0.00    -0.466 OA
BRANCH  21  23
ATOM     22 CL   UNL     1      33.234  -5.903 -22.559  0.00  0.00    -0.082 Cl
ATOM     23  C   UNL     1      33.961 -10.127 -23.915  0.00  0.00    +0.139 C 
ATOM     24  C   UNL     1      32.724  -9.783 -23.392  0.00  0.00    +0.038 C 
ATOM     25  C   UNL     1      34.979  -9.190 -24.027  0.00  0.00    +0.038 C 
ATOM     26  C   UNL     1      32.498  -8.472 -22.971  0.00  0.00    +0.015 C 
ATOM     27  C   UNL     1      34.752  -7.879 -23.606  0.00  0.00    +0.015 C 
ATOM     28  C   UNL     1      33.513  -7.520 -23.078  0.00  0.00    +0.058 C 
ENDBRANCH  21  23
ENDBRANCH  20  21
ENDBRANCH   8  20
TORSDOF 5
ENDMDL
MODEL 4
REMARK VINA RESULT:     -10.8      1.199      2.030
REMARK  Name = 3351
REMARK  5 active torsions:
REMARK  status: ('A' for Active; 'I' for Inactive)
REMARK    1  A    between atoms: N_2  and  C_10
REMARK    2  A    between atoms: C_8  and  C_20
REMARK    3  A    between atoms: C_10  and  C_13
REMARK    4  A    between atoms: C_20  and  O_21
REMARK    5  A    between atoms: O_21  and  C_23
REMARK                            x       y       z     vdW  Elec       q    Type
REMARK                         _______ _______ _______ _____ _____    ______ ____
ROOT
ATOM      1  O   UNL     1      35.427 -17.963 -23.321  0.00  0.00    -0.271 OA
ATOM      2  N   UNL     1      33.474 -13.449 -22.469  0.00  0.00    +0.392 N 
ATOM      3  N   UNL     1      34.919 -15.919 -22.340  0.00  0.00    -0.281 N 
ATOM      4  C   UNL     1      33.448 -14.388 -23.600  0.00  0.00    -0.055 C 
ATOM      5  C   UNL     1      33.589 -14.178 -21.197  0.00  0.00    -0.055 C 
ATOM      6  C   UNL     1      34.713 -15.245 -23.621  0.00  0.00    +0.071 C 
ATOM      7  C   UNL     1      34.854 -15.038 -21.171  0.00  0.00    +0.071 C 
ATOM      8  C   UNL     1      35.269 -17.268 -22.314  0.00  0.00    +0.270 C 
ATOM      9  H   UNL     1      34.291 -12.845 -22.569  0.00  0.00    -0.079 HD
ENDROOT
BRANCH   2  10
ATOM     10  C   UNL     1      32.279 -12.607 -22.472  0.00  0.00    -0.050 C 
BRANCH  10  13
ATOM     11  O   UNL     1      31.798  -7.879 -21.134  0.00  0.00    -0.435 OA
ATOM     12  O   UNL     1      33.460  -7.142 -22.715  0.00  0.00    -0.435 OA
ATOM     13  C   UNL     1      32.622 -11.145 -22.565  0.00  0.00    -0.040 C 
ATOM     14  C   UNL     1      31.972 -10.239 -21.732  0.00  0.00    +0.034 C 
ATOM     15  C   UNL     1      33.588 -10.727 -23.487  0.00  0.00    -0.003 C 
ATOM     16  C   UNL     1      32.319  -8.909 -21.853  0.00  0.00    +0.176 C 
ATOM     17  C   UNL     1      33.268  -8.489 -22.757  0.00  0.00    +0.176 C 
ATOM     18  C   UNL     1      33.922  -9.374 -23.589  0.00  0.00    +0.040 C 
ATOM     19  C   UNL     1      32.525  -6.762 -21.684  0.00  0.00    +0.429 C 
ENDBRANCH  10  13
ENDBRANCH   2  10
BRANCH   8  20
ATOM     20  C   UNL     1      35.457 -17.890 -20.953  0.00  0.00    +0.290 C 
BRANCH  20  21
ATOM     21  O   UNL     1      35.751 -19.248 -21.168  0.00  0.00    -0.466 OA
BRANCH  21  23
ATOM     22 CL   UNL     1      33.224 -23.162 -17.593  0.00  0.00    -0.082 Cl
ATOM     23  C   UNL     1      35.159 -20.165 -20.328  0.00  0.00    +0.139 C 
ATOM     24  C   UNL     1      35.956 -20.991 -19.550  0.00  0.00    +0.038 C 
ATOM     25  C   UNL     1      33.775 -20.247 -20.277  0.00  0.00    +0.038 C 
ATOM     26  C   UNL     1      35.356 -21.921 -18.701  0.00  0.00    +0.015 C 
ATOM     27  C   UNL     1      33.175 -21.177 -19.428  0.00  0.00    +0.015 C 
ATOM     28  C   UNL     1      33.964 -22.014 -18.640  0.00  0.00    +0.058 C 
ENDBRANCH  21  23
ENDBRANCH  20  21
ENDBRANCH   8  20
TORSDOF 5
ENDMDL
MODEL 5
REMARK VINA RESULT:     -10.6      4.335      6.390
REMARK  Name = 3351
REMARK  5 active torsions:
REMARK  status: ('A' for Active; 'I' for Inactive)
REMARK    1  A    between atoms: N_2  and  C_10
REMARK    2  A    between atoms: C_8  and  C_20
REMARK    3  A    between atoms: C_10  and  C_13
REMARK    4  A    between atoms: C_20  and  O_21
REMARK    5  A    between atoms: O_21  and  C_23
REMARK                            x       y       z     vdW  Elec       q    Type
REMARK                         _______ _______ _______ _____ _____    ______ ____
ROOT
ATOM      1  O   UNL     1      36.844 -21.936 -18.526  0.00  0.00    -0.271 OA
ATOM      2  N   UNL     1      35.278 -18.576 -21.869  0.00  0.00    +0.392 N 
ATOM      3  N   UNL     1      35.494 -20.504 -19.761  0.00  0.00    -0.281 N 
ATOM      4  C   UNL     1      36.593 -19.088 -21.459  0.00  0.00    -0.055 C 
ATOM      5  C   UNL     1      34.247 -19.610 -21.698  0.00  0.00    -0.055 C 
ATOM      6  C   UNL     1      36.567 -19.540 -19.999  0.00  0.00    +0.071 C 
ATOM      7  C   UNL     1      34.177 -20.079 -20.243  0.00  0.00    +0.071 C 
ATOM      8  C   UNL     1      35.747 -21.656 -19.018  0.00  0.00    +0.270 C 
ATOM      9  H   UNL     1      35.040 -17.782 -21.273  0.00  0.00    -0.079 HD
ENDROOT
BRANCH   2  10
ATOM     10  C   UNL     1      35.316 -18.113 -23.255  0.00  0.00    -0.050 C 
BRANCH  10  13
ATOM     11  O   UNL     1      33.415 -14.327 -25.791  0.00  0.00    -0.435 OA
ATOM     12  O   UNL     1      33.486 -12.860 -23.879  0.00  0.00    -0.435 OA
ATOM     13  C   UNL     1      34.831 -16.694 -23.386  0.00  0.00    -0.040 C 
ATOM     14  C   UNL     1      34.348 -16.251 -24.614  0.00  0.00    +0.034 C 
ATOM     15  C   UNL     1      34.878 -15.850 -22.270  0.00  0.00    -0.003 C 
ATOM     16  C   UNL     1      33.916 -14.942 -24.686  0.00  0.00    +0.176 C 
ATOM     17  C   UNL     1      33.957 -14.105 -23.594  0.00  0.00    +0.176 C 
ATOM     18  C   UNL     1      34.433 -14.529 -22.371  0.00  0.00    +0.040 C 
ATOM     19  C   UNL     1      33.144 -13.008 -25.273  0.00  0.00    +0.429 C 
ENDBRANCH  10  13
ENDBRANCH   2  10
BRANCH   8  20
ATOM     20  C   UNL     1      34.589 -22.601 -18.822  0.00  0.00    +0.290 C 
BRANCH  20  21
ATOM     21  O   UNL     1      34.747 -23.173 -17.548  0.00  0.00    -0.466 OA
BRANCH  21  23
ATOM     22 CL   UNL     1      30.072 -23.182 -13.994  0.00  0.00    -0.082 Cl
ATOM     23  C   UNL     1      33.650 -23.177 -16.715  0.00  0.00    +0.139 C 
ATOM     24  C   UNL     1      32.412 -22.809 -17.218  0.00  0.00    +0.038 C 
ATOM     25  C   UNL     1      33.804 -23.548 -15.387  0.00  0.00    +0.038 C 
ATOM     26  C   UNL     1      31.301 -22.810 -16.374  0.00  0.00    +0.015 C 
ATOM     27  C   UNL     1      32.693 -23.549 -14.543  0.00  0.00    +0.015 C 
ATOM     28  C   UNL     1      31.442 -23.181 -15.036  0.00  0.00    +0.058 C 
ENDBRANCH  21  23
ENDBRANCH  20  21
ENDBRANCH   8  20
TORSDOF 5
ENDMDL
MODEL 6
REMARK VINA RESULT:     -10.4      7.744     11.497
REMARK  Name = 3351
REMARK  5 active torsions:
REMARK  status: ('A' for Active; 'I' for Inactive)
REMARK    1  A    between atoms: N_2  and  C_10
REMARK    2  A    between atoms: C_8  and  C_20
REMARK    3  A    between atoms: C_10  and  C_13
REMARK    4  A    between atoms: C_20  and  O_21
REMARK    5  A    between atoms: O_21  and  C_23
REMARK                            x       y       z     vdW  Elec       q    Type
REMARK                         _______ _______ _______ _____ _____    ______ ____
ROOT
ATOM      1  O   UNL     1      37.479 -21.458 -16.875  0.00  0.00    -0.271 OA
ATOM      2  N   UNL     1      33.637 -23.726 -14.637  0.00  0.00    +0.392 N 
ATOM      3  N   UNL     1      35.590 -22.755 -16.495  0.00  0.00    -0.281 N 
ATOM      4  C   UNL     1      34.780 -22.930 -14.169  0.00  0.00    -0.055 C 
ATOM      5  C   UNL     1      33.235 -23.305 -15.987  0.00  0.00    -0.055 C 
ATOM      6  C   UNL     1      35.968 -23.077 -15.119  0.00  0.00    +0.071 C 
ATOM      7  C   UNL     1      34.394 -23.452 -16.975  0.00  0.00    +0.071 C 
ATOM      8  C   UNL     1      36.416 -21.943 -17.270  0.00  0.00    +0.270 C 
ATOM      9  H   UNL     1      33.921 -24.706 -14.677  0.00  0.00    -0.079 HD
ENDROOT
BRANCH   2  10
ATOM     10  C   UNL     1      32.515 -23.611 -13.708  0.00  0.00    -0.050 C 
BRANCH  10  13
ATOM     11  O   UNL     1      28.706 -22.157 -16.494  0.00  0.00    -0.435 OA
ATOM     12  O   UNL     1      27.604 -24.292 -16.305  0.00  0.00    -0.435 OA
ATOM     13  C   UNL     1      31.193 -23.830 -14.394  0.00  0.00    -0.040 C 
ATOM     14  C   UNL     1      30.628 -22.792 -15.128  0.00  0.00    +0.034 C 
ATOM     15  C   UNL     1      30.561 -25.073 -14.277  0.00  0.00    -0.003 C 
ATOM     16  C   UNL     1      29.415 -23.040 -15.739  0.00  0.00    +0.176 C 
ATOM     17  C   UNL     1      28.786 -24.259 -15.631  0.00  0.00    +0.176 C 
ATOM     18  C   UNL     1      29.333 -25.297 -14.906  0.00  0.00    +0.040 C 
ATOM     19  C   UNL     1      27.561 -22.957 -16.850  0.00  0.00    +0.429 C 
ENDBRANCH  10  13
ENDBRANCH   2  10
BRANCH   8  20
ATOM     20  C   UNL     1      35.952 -21.655 -18.676  0.00  0.00    +0.290 C 
BRANCH  20  21
ATOM     21  O   UNL     1      36.621 -20.489 -19.089  0.00  0.00    -0.466 OA
BRANCH  21  23
ATOM     22 CL   UNL     1      34.655 -17.830 -23.942  0.00  0.00    -0.082 Cl
ATOM     23  C   UNL     1      36.161 -19.867 -20.228  0.00  0.00    +0.139 C 
ATOM     24  C   UNL     1      36.956 -18.919 -20.855  0.00  0.00    +0.038 C 
ATOM     25  C   UNL     1      34.910 -20.198 -20.728  0.00  0.00    +0.038 C 
ATOM     26  C   UNL     1      36.489 -18.286 -22.008  0.00  0.00    +0.015 C 
ATOM     27  C   UNL     1      34.443 -19.565 -21.881  0.00  0.00    +0.015 C 
ATOM     28  C   UNL     1      35.232 -18.610 -22.521  0.00  0.00    +0.058 C 
ENDBRANCH  21  23
ENDBRANCH  20  21
ENDBRANCH   8  20
TORSDOF 5
ENDMDL
MODEL 7
REMARK VINA RESULT:     -10.3      4.216     10.306
REMARK  Name = 3351
REMARK  5 active torsions:
REMARK  status: ('A' for Active; 'I' for Inactive)
REMARK    1  A    between atoms: N_2  and  C_10
REMARK    2  A    between atoms: C_8  and  C_20
REMARK    3  A    between atoms: C_10  and  C_13
REMARK    4  A    between atoms: C_20  and  O_21
REMARK    5  A    between atoms: O_21  and  C_23
REMARK                            x       y       z     vdW  Elec       q    Type
REMARK                         _______ _______ _______ _____ _____    ______ ____
ROOT
ATOM      1  O   UNL     1      34.338 -16.216 -25.125  0.00  0.00    -0.271 OA
ATOM      2  N   UNL     1      35.587 -19.071 -21.226  0.00  0.00    +0.392 N 
ATOM      3  N   UNL     1      34.620 -17.004 -22.958  0.00  0.00    -0.281 N 
ATOM      4  C   UNL     1      35.617 -19.247 -22.685  0.00  0.00    -0.055 C 
ATOM      5  C   UNL     1      35.777 -17.657 -20.874  0.00  0.00    -0.055 C 
ATOM      6  C   UNL     1      34.526 -18.410 -23.353  0.00  0.00    +0.071 C 
ATOM      7  C   UNL     1      34.693 -16.784 -21.511  0.00  0.00    +0.071 C 
ATOM      8  C   UNL     1      34.512 -16.003 -23.922  0.00  0.00    +0.270 C 
ATOM      9  H   UNL     1      34.673 -19.369 -20.883  0.00  0.00    -0.079 HD
ENDROOT
BRANCH   2  10
ATOM     10  C   UNL     1      36.609 -19.900 -20.588  0.00  0.00    -0.050 C 
BRANCH  10  13
ATOM     11  O   UNL     1      32.927 -22.480 -18.547  0.00  0.00    -0.435 OA
ATOM     12  O   UNL     1      34.309 -23.228 -16.720  0.00  0.00    -0.435 OA
ATOM     13  C   UNL     1      36.024 -20.797 -19.529  0.00  0.00    -0.040 C 
ATOM     14  C   UNL     1      34.690 -21.180 -19.625  0.00  0.00    +0.034 C 
ATOM     15  C   UNL     1      36.835 -21.225 -18.473  0.00  0.00    -0.003 C 
ATOM     16  C   UNL     1      34.198 -22.002 -18.631  0.00  0.00    +0.176 C 
ATOM     17  C   UNL     1      34.987 -22.429 -17.588  0.00  0.00    +0.176 C 
ATOM     18  C   UNL     1      36.311 -22.057 -17.480  0.00  0.00    +0.040 C 
ATOM     19  C   UNL     1      33.004 -23.257 -17.335  0.00  0.00    +0.429 C 
ENDBRANCH  10  13
ENDBRANCH   2  10
BRANCH   8  20
ATOM     20  C   UNL     1      34.624 -14.581 -23.433  0.00  0.00    +0.290 C 
BRANCH  20  21
ATOM     21  O   UNL     1      33.313 -14.135 -23.188  0.00  0.00    -0.466 OA
BRANCH  21  23
ATOM     22 CL   UNL     1      32.459  -8.338 -22.809  0.00  0.00    -0.082 Cl
ATOM     23  C   UNL     1      33.114 -12.776 -23.098  0.00  0.00    +0.139 C 
ATOM     24  C   UNL     1      32.288 -12.273 -22.104  0.00  0.00    +0.038 C 
ATOM     25  C   UNL     1      33.742 -11.934 -24.003  0.00  0.00    +0.038 C 
ATOM     26  C   UNL     1      32.084 -10.896 -22.014  0.00  0.00    +0.015 C 
ATOM     27  C   UNL     1      33.539 -10.556 -23.913  0.00  0.00    +0.015 C 
ATOM     28  C   UNL     1      32.710 -10.037 -22.920  0.00  0.00    +0.058 C 
ENDBRANCH  21  23
ENDBRANCH  20  21
ENDBRANCH   8  20
TORSDOF 5
ENDMDL
MODEL 8
REMARK VINA RESULT:     -10.2      8.821     11.925
REMARK  Name = 3351
REMARK  5 active torsions:
REMARK  status: ('A' for Active; 'I' for Inactive)
REMARK    1  A    between atoms: N_2  and  C_10
REMARK    2  A    between atoms: C_8  and  C_20
REMARK    3  A    between atoms: C_10  and  C_13
REMARK    4  A    between atoms: C_20  and  O_21
REMARK    5  A    between atoms: O_21  and  C_23
REMARK                            x       y       z     vdW  Elec       q    Type
REMARK                         _______ _______ _______ _____ _____    ______ ____
ROOT
ATOM      1  O   UNL     1      37.865 -22.787 -14.382  0.00  0.00    -0.271 OA
ATOM      2  N   UNL     1      33.121 -24.291 -13.999  0.00  0.00    +0.392 N 
ATOM      3  N   UNL     1      35.685 -23.396 -14.908  0.00  0.00    -0.281 N 
ATOM      4  C   UNL     1      34.249 -24.189 -13.063  0.00  0.00    -0.055 C 
ATOM      5  C   UNL     1      33.222 -23.259 -15.041  0.00  0.00    -0.055 C 
ATOM      6  C   UNL     1      35.579 -24.345 -13.800  0.00  0.00    +0.071 C 
ATOM      7  C   UNL     1      34.535 -23.390 -15.816  0.00  0.00    +0.071 C 
ATOM      8  C   UNL     1      36.866 -22.680 -15.098  0.00  0.00    +0.270 C 
ATOM      9  H   UNL     1      33.154 -25.207 -14.447  0.00  0.00    -0.079 HD
ENDROOT
BRANCH   2  10
ATOM     10  C   UNL     1      31.850 -24.176 -13.285  0.00  0.00    -0.050 C 
BRANCH  10  13
ATOM     11  O   UNL     1      28.459 -22.049 -16.176  0.00  0.00    -0.435 OA
ATOM     12  O   UNL     1      27.480 -24.166 -16.782  0.00  0.00    -0.435 OA
ATOM     13  C   UNL     1      30.673 -24.211 -14.224  0.00  0.00    -0.040 C 
ATOM     14  C   UNL     1      30.169 -23.016 -14.728  0.00  0.00    +0.034 C 
ATOM     15  C   UNL     1      30.112 -25.446 -14.569  0.00  0.00    -0.003 C 
ATOM     16  C   UNL     1      29.090 -23.099 -15.584  0.00  0.00    +0.176 C 
ATOM     17  C   UNL     1      28.532 -24.308 -15.930  0.00  0.00    +0.176 C 
ATOM     18  C   UNL     1      29.020 -25.501 -15.439  0.00  0.00    +0.040 C 
ATOM     19  C   UNL     1      27.440 -22.732 -16.934  0.00  0.00    +0.429 C 
ENDBRANCH  10  13
ENDBRANCH   2  10
BRANCH   8  20
ATOM     20  C   UNL     1      36.893 -21.719 -16.260  0.00  0.00    +0.290 C 
BRANCH  20  21
ATOM     21  O   UNL     1      36.391 -22.418 -17.372  0.00  0.00    -0.466 OA
BRANCH  21  23
ATOM     22 CL   UNL     1      34.611 -19.243 -21.981  0.00  0.00    -0.082 Cl
ATOM     23  C   UNL     1      35.973 -21.672 -18.452  0.00  0.00    +0.139 C 
ATOM     24  C   UNL     1      34.634 -21.684 -18.811  0.00  0.00    +0.038 C 
ATOM     25  C   UNL     1      36.899 -20.922 -19.162  0.00  0.00    +0.038 C 
ATOM     26  C   UNL     1      34.211 -20.931 -19.906  0.00  0.00    +0.015 C 
ATOM     27  C   UNL     1      36.476 -20.169 -20.257  0.00  0.00    +0.015 C 
ATOM     28  C   UNL     1      35.133 -20.172 -20.629  0.00  0.00    +0.058 C 
ENDBRANCH  21  23
ENDBRANCH  20  21
ENDBRANCH   8  20
TORSDOF 5
ENDMDL
MODEL 9
REMARK VINA RESULT:     -10.2      3.965     10.226
REMARK  Name = 3351
REMARK  5 active torsions:
REMARK  status: ('A' for Active; 'I' for Inactive)
REMARK    1  A    between atoms: N_2  and  C_10
REMARK    2  A    between atoms: C_8  and  C_20
REMARK    3  A    between atoms: C_10  and  C_13
REMARK    4  A    between atoms: C_20  and  O_21
REMARK    5  A    between atoms: O_21  and  C_23
REMARK                            x       y       z     vdW  Elec       q    Type
REMARK                         _______ _______ _______ _____ _____    ______ ____
ROOT
ATOM      1  O   UNL     1      32.429 -12.899 -20.011  0.00  0.00    -0.271 OA
ATOM      2  N   UNL     1      35.140 -16.150 -22.654  0.00  0.00    +0.392 N 
ATOM      3  N   UNL     1      33.677 -13.876 -21.709  0.00  0.00    -0.281 N 
ATOM      4  C   UNL     1      34.621 -16.117 -21.279  0.00  0.00    -0.055 C 
ATOM      5  C   UNL     1      34.249 -15.411 -23.559  0.00  0.00    -0.055 C 
ATOM      6  C   UNL     1      34.484 -14.677 -20.787  0.00  0.00    +0.071 C 
ATOM      7  C   UNL     1      34.097 -13.956 -23.110  0.00  0.00    +0.071 C 
ATOM      8  C   UNL     1      32.687 -13.031 -21.210  0.00  0.00    +0.270 C 
ATOM      9  H   UNL     1      36.056 -15.700 -22.664  0.00  0.00    -0.079 HD
ENDROOT
BRANCH   2  10
ATOM     10  C   UNL     1      35.303 -17.531 -23.108  0.00  0.00    -0.050 C 
BRANCH  10  13
ATOM     11  O   UNL     1      34.226 -21.077 -19.846  0.00  0.00    -0.435 OA
ATOM     12  O   UNL     1      36.439 -21.032 -18.892  0.00  0.00    -0.435 OA
ATOM     13  C   UNL     1      35.644 -18.459 -21.973  0.00  0.00    -0.040 C 
ATOM     14  C   UNL     1      34.672 -19.330 -21.492  0.00  0.00    +0.034 C 
ATOM     15  C   UNL     1      36.932 -18.424 -21.426  0.00  0.00    -0.003 C 
ATOM     16  C   UNL     1      35.031 -20.162 -20.451  0.00  0.00    +0.176 C 
ATOM     17  C   UNL     1      36.295 -20.135 -19.906  0.00  0.00    +0.176 C 
ATOM     18  C   UNL     1      37.269 -19.277 -20.372  0.00  0.00    +0.040 C 
ATOM     19  C   UNL     1      35.124 -21.625 -18.860  0.00  0.00    +0.429 C 
ENDBRANCH  10  13
ENDBRANCH   2  10
BRANCH   8  20
ATOM     20  C   UNL     1      31.897 -12.245 -22.225  0.00  0.00    +0.290 C 
BRANCH  20  21
ATOM     21  O   UNL     1      31.628 -10.993 -21.645  0.00  0.00    -0.466 OA
BRANCH  21  23
ATOM     22 CL   UNL     1      34.760  -6.405 -23.550  0.00  0.00    -0.082 Cl
ATOM     23  C   UNL     1      32.361  -9.917 -22.093  0.00  0.00    +0.139 C 
ATOM     24  C   UNL     1      33.129 -10.046 -23.240  0.00  0.00    +0.038 C 
ATOM     25  C   UNL     1      32.319  -8.723 -21.388  0.00  0.00    +0.038 C 
ATOM     26  C   UNL     1      33.874  -8.956 -23.693  0.00  0.00    +0.015 C 
ATOM     27  C   UNL     1      33.064  -7.633 -21.841  0.00  0.00    +0.015 C 
ATOM     28  C   UNL     1      33.841  -7.749 -22.992  0.00  0.00    +0.058 C 
ENDBRANCH  21  23
ENDBRANCH  20  21
ENDBRANCH   8  20
TORSDOF 5
ENDMDL
