MODEL 1
REMARK VINA RESULT:     -11.8      0.000      0.000
REMARK  Name = 447731
REMARK  4 active torsions:
REMARK  status: ('A' for Active; 'I' for Inactive)
REMARK    1  A    between atoms: N_2  and  C_13
REMARK    2  A    between atoms: C_3  and  C_19
REMARK    3  A    between atoms: C_6  and  C_17
REMARK    4  A    between atoms: C_27  and  C_31
REMARK                            x       y       z     vdW  Elec       q    Type
REMARK                         _______ _______ _______ _____ _____    ______ ____
ROOT
ATOM      1  O   UNL     1      33.772 -23.935 -17.587  0.00  0.00    -0.270 OA
ATOM      2  N   UNL     1      35.212 -22.482 -16.427  0.00  0.00    -0.280 N 
ATOM      3  C   UNL     1      34.390 -22.880 -17.489  0.00  0.00    +0.249 C 
ATOM      4  H   UNL     1      35.632 -21.596 -16.514  0.00  0.00    +0.155 HD
ENDROOT
BRANCH   2  13
ATOM      5  N   UNL     1      37.335 -26.486 -11.844  0.00  0.00    +0.387 N 
ATOM      6  C   UNL     1      38.220 -25.572 -13.961  0.00  0.00    +0.001 C 
ATOM      7  C   UNL     1      36.985 -24.685 -14.029  0.00  0.00    -0.029 C 
ATOM      8  C   UNL     1      38.540 -26.006 -12.516  0.00  0.00    -0.077 C 
ATOM      9  C   UNL     1      36.098 -24.628 -12.934  0.00  0.00    -0.048 C 
ATOM     10  C   UNL     1      36.391 -25.381 -11.661  0.00  0.00    -0.055 C 
ATOM     11  C   UNL     1      36.661 -23.975 -15.196  0.00  0.00    +0.010 C 
ATOM     12  C   UNL     1      34.951 -23.824 -13.005  0.00  0.00    -0.005 C 
ATOM     13  C   UNL     1      35.508 -23.188 -15.259  0.00  0.00    +0.050 C 
ATOM     14  C   UNL     1      34.658 -23.109 -14.162  0.00  0.00    +0.014 C 
ATOM     15  H   UNL     1      37.586 -26.870 -10.932  0.00  0.00    -0.084 HD
ATOM     16  H   UNL     1      36.897 -27.210 -12.415  0.00  0.00    -0.084 HD
BRANCH   6  17
ATOM     17  C   UNL     1      39.473 -24.929 -14.566  0.00  0.00    +0.002 C 
ATOM     18  C   UNL     1      40.543 -25.965 -14.837  0.00  0.00    +0.000 C 
ENDBRANCH   6  17
ENDBRANCH   2  13
BRANCH   3  19
ATOM     19  C   UNL     1      34.292 -21.914 -18.615  0.00  0.00    +0.054 C 
ATOM     20  C   UNL     1      35.366 -20.390 -20.135  0.00  0.00    +0.000 C 
ATOM     21  C   UNL     1      34.107 -20.111 -20.718  0.00  0.00    +0.000 C 
ATOM     22  C   UNL     1      35.442 -21.306 -19.071  0.00  0.00    +0.005 C 
ATOM     23  C   UNL     1      33.056 -21.659 -19.164  0.00  0.00    +0.005 C 
ATOM     24  C   UNL     1      32.961 -20.754 -20.220  0.00  0.00    +0.000 C 
ATOM     25  C   UNL     1      34.030 -19.195 -21.780  0.00  0.00    +0.003 C 
ATOM     26  C   UNL     1      36.511 -19.748 -20.631  0.00  0.00    +0.000 C 
ATOM     27  C   UNL     1      35.178 -18.565 -22.261  0.00  0.00    +0.031 C 
ATOM     28  C   UNL     1      36.416 -18.842 -21.687  0.00  0.00    +0.003 C 
BRANCH  27  31
ATOM     29  N   UNL     1      35.622 -16.339 -23.267  0.00  0.00    -0.343 N 
ATOM     30  N   UNL     1      34.470 -17.970 -24.478  0.00  0.00    -0.285 NA
ATOM     31  C   UNL     1      35.082 -17.621 -23.362  0.00  0.00    +0.117 C 
ATOM     32  H   UNL     1      35.546 -15.715 -24.024  0.00  0.00    +0.144 HD
ATOM     33  H   UNL     1      36.081 -16.058 -22.442  0.00  0.00    +0.144 HD
ATOM     34  H   UNL     1      34.403 -17.332 -25.225  0.00  0.00    +0.188 HD
ENDBRANCH  27  31
ENDBRANCH   3  19
TORSDOF 4
ENDMDL
MODEL 2
REMARK VINA RESULT:     -11.6      1.113      2.534
REMARK  Name = 447731
REMARK  4 active torsions:
REMARK  status: ('A' for Active; 'I' for Inactive)
REMARK    1  A    between atoms: N_2  and  C_13
REMARK    2  A    between atoms: C_3  and  C_19
REMARK    3  A    between atoms: C_6  and  C_17
REMARK    4  A    between atoms: C_27  and  C_31
REMARK                            x       y       z     vdW  Elec       q    Type
REMARK                         _______ _______ _______ _____ _____    ______ ____
ROOT
ATOM      1  O   UNL     1      34.296 -23.521 -17.505  0.00  0.00    -0.270 OA
ATOM      2  N   UNL     1      36.028 -22.119 -16.752  0.00  0.00    -0.280 N 
ATOM      3  C   UNL     1      34.994 -22.518 -17.609  0.00  0.00    +0.249 C 
ATOM      4  H   UNL     1      36.486 -21.280 -16.987  0.00  0.00    +0.155 HD
ENDROOT
BRANCH   2  13
ATOM      5  N   UNL     1      37.072 -24.587 -10.890  0.00  0.00    +0.387 N 
ATOM      6  C   UNL     1      35.095 -23.991 -12.246  0.00  0.00    +0.001 C 
ATOM      7  C   UNL     1      36.043 -23.710 -13.403  0.00  0.00    -0.029 C 
ATOM      8  C   UNL     1      35.704 -24.975 -11.227  0.00  0.00    -0.077 C 
ATOM      9  C   UNL     1      37.409 -24.041 -13.289  0.00  0.00    -0.048 C 
ATOM     10  C   UNL     1      37.937 -24.740 -12.062  0.00  0.00    -0.055 C 
ATOM     11  C   UNL     1      35.604 -23.049 -14.561  0.00  0.00    +0.010 C 
ATOM     12  C   UNL     1      38.286 -23.765 -14.349  0.00  0.00    -0.005 C 
ATOM     13  C   UNL     1      36.489 -22.767 -15.604  0.00  0.00    +0.050 C 
ATOM     14  C   UNL     1      37.827 -23.130 -15.500  0.00  0.00    +0.014 C 
ATOM     15  H   UNL     1      37.416 -25.182 -10.136  0.00  0.00    -0.084 HD
ATOM     16  H   UNL     1      37.080 -23.612 -10.591  0.00  0.00    -0.084 HD
BRANCH   6  17
ATOM     17  C   UNL     1      33.729 -24.529 -12.687  0.00  0.00    +0.002 C 
ATOM     18  C   UNL     1      32.709 -23.415 -12.785  0.00  0.00    +0.000 C 
ENDBRANCH   6  17
ENDBRANCH   2  13
BRANCH   3  19
ATOM     19  C   UNL     1      34.753 -21.626 -18.774  0.00  0.00    +0.054 C 
ATOM     20  C   UNL     1      35.607 -20.091 -20.418  0.00  0.00    +0.000 C 
ATOM     21  C   UNL     1      34.301 -19.960 -20.949  0.00  0.00    +0.000 C 
ATOM     22  C   UNL     1      35.818 -20.938 -19.317  0.00  0.00    +0.005 C 
ATOM     23  C   UNL     1      33.475 -21.515 -19.271  0.00  0.00    +0.005 C 
ATOM     24  C   UNL     1      33.246 -20.679 -20.363  0.00  0.00    +0.000 C 
ATOM     25  C   UNL     1      34.089 -19.113 -22.049  0.00  0.00    +0.003 C 
ATOM     26  C   UNL     1      36.661 -19.372 -21.002  0.00  0.00    +0.000 C 
ATOM     27  C   UNL     1      35.149 -18.405 -22.617  0.00  0.00    +0.031 C 
ATOM     28  C   UNL     1      36.433 -18.535 -22.094  0.00  0.00    +0.003 C 
BRANCH  27  31
ATOM     29  N   UNL     1      35.432 -16.240 -23.798  0.00  0.00    -0.343 N 
ATOM     30  N   UNL     1      34.191 -17.961 -24.774  0.00  0.00    -0.285 NA
ATOM     31  C   UNL     1      34.913 -17.533 -23.756  0.00  0.00    +0.117 C 
ATOM     32  H   UNL     1      35.260 -15.666 -24.579  0.00  0.00    +0.144 HD
ATOM     33  H   UNL     1      35.971 -15.901 -23.047  0.00  0.00    +0.144 HD
ATOM     34  H   UNL     1      34.029 -17.371 -25.547  0.00  0.00    +0.188 HD
ENDBRANCH  27  31
ENDBRANCH   3  19
TORSDOF 4
ENDMDL
MODEL 3
REMARK VINA RESULT:     -10.6      8.619     15.579
REMARK  Name = 447731
REMARK  4 active torsions:
REMARK  status: ('A' for Active; 'I' for Inactive)
REMARK    1  A    between atoms: N_2  and  C_13
REMARK    2  A    between atoms: C_3  and  C_19
REMARK    3  A    between atoms: C_6  and  C_17
REMARK    4  A    between atoms: C_27  and  C_31
REMARK                            x       y       z     vdW  Elec       q    Type
REMARK                         _______ _______ _______ _____ _____    ______ ____
ROOT
ATOM      1  O   UNL     1      33.348 -11.041 -25.139  0.00  0.00    -0.270 OA
ATOM      2  N   UNL     1      33.028 -10.293 -22.932  0.00  0.00    -0.280 N 
ATOM      3  C   UNL     1      33.368 -11.220 -23.926  0.00  0.00    +0.249 C 
ATOM      4  H   UNL     1      33.103 -10.608 -22.003  0.00  0.00    +0.155 HD
ENDROOT
BRANCH   2  13
ATOM      5  N   UNL     1      32.329  -3.918 -23.580  0.00  0.00    +0.387 N 
ATOM      6  C   UNL     1      34.068  -5.585 -24.128  0.00  0.00    +0.001 C 
ATOM      7  C   UNL     1      33.086  -6.667 -23.704  0.00  0.00    -0.029 C 
ATOM      8  C   UNL     1      33.350  -4.289 -24.557  0.00  0.00    -0.077 C 
ATOM      9  C   UNL     1      31.749  -6.327 -23.410  0.00  0.00    -0.048 C 
ATOM     10  C   UNL     1      31.254  -4.913 -23.580  0.00  0.00    -0.055 C 
ATOM     11  C   UNL     1      33.500  -7.996 -23.519  0.00  0.00    +0.010 C 
ATOM     12  C   UNL     1      30.848  -7.322 -23.002  0.00  0.00    -0.005 C 
ATOM     13  C   UNL     1      32.597  -8.975 -23.099  0.00  0.00    +0.050 C 
ATOM     14  C   UNL     1      31.271  -8.640 -22.847  0.00  0.00    +0.014 C 
ATOM     15  H   UNL     1      31.944  -3.005 -23.823  0.00  0.00    -0.084 HD
ATOM     16  H   UNL     1      32.751  -3.879 -22.652  0.00  0.00    -0.084 HD
BRANCH   6  17
ATOM     17  C   UNL     1      35.010  -6.017 -25.257  0.00  0.00    +0.002 C 
ATOM     18  C   UNL     1      35.299  -4.868 -26.199  0.00  0.00    +0.000 C 
ENDBRANCH   6  17
ENDBRANCH   2  13
BRANCH   3  19
ATOM     19  C   UNL     1      33.767 -12.564 -23.432  0.00  0.00    +0.054 C 
ATOM     20  C   UNL     1      34.183 -14.892 -23.873  0.00  0.00    +0.000 C 
ATOM     21  C   UNL     1      34.513 -15.075 -22.508  0.00  0.00    +0.000 C 
ATOM     22  C   UNL     1      33.807 -13.615 -24.324  0.00  0.00    +0.005 C 
ATOM     23  C   UNL     1      34.083 -12.715 -22.101  0.00  0.00    +0.005 C 
ATOM     24  C   UNL     1      34.457 -13.975 -21.636  0.00  0.00    +0.000 C 
ATOM     25  C   UNL     1      34.887 -16.351 -22.057  0.00  0.00    +0.003 C 
ATOM     26  C   UNL     1      34.237 -15.991 -24.745  0.00  0.00    +0.000 C 
ATOM     27  C   UNL     1      34.936 -17.431 -22.938  0.00  0.00    +0.031 C 
ATOM     28  C   UNL     1      34.612 -17.251 -24.280  0.00  0.00    +0.003 C 
BRANCH  27  31
ATOM     29  N   UNL     1      36.062 -18.897 -21.281  0.00  0.00    -0.343 N 
ATOM     30  N   UNL     1      34.986 -19.825 -23.135  0.00  0.00    -0.285 NA
ATOM     31  C   UNL     1      35.326 -18.746 -22.455  0.00  0.00    +0.117 C 
ATOM     32  H   UNL     1      36.316 -19.797 -20.972  0.00  0.00    +0.144 HD
ATOM     33  H   UNL     1      36.329 -18.105 -20.760  0.00  0.00    +0.144 HD
ATOM     34  H   UNL     1      35.249 -20.716 -22.810  0.00  0.00    +0.188 HD
ENDBRANCH  27  31
ENDBRANCH   3  19
TORSDOF 4
ENDMDL
MODEL 4
REMARK VINA RESULT:     -10.5      8.322     15.170
REMARK  Name = 447731
REMARK  4 active torsions:
REMARK  status: ('A' for Active; 'I' for Inactive)
REMARK    1  A    between atoms: N_2  and  C_13
REMARK    2  A    between atoms: C_3  and  C_19
REMARK    3  A    between atoms: C_6  and  C_17
REMARK    4  A    between atoms: C_27  and  C_31
REMARK                            x       y       z     vdW  Elec       q    Type
REMARK                         _______ _______ _______ _____ _____    ______ ____
ROOT
ATOM      1  O   UNL     1      33.364 -11.318 -25.275  0.00  0.00    -0.270 OA
ATOM      2  N   UNL     1      33.008 -10.853 -22.997  0.00  0.00    -0.280 N 
ATOM      3  C   UNL     1      33.368 -11.648 -24.094  0.00  0.00    +0.249 C 
ATOM      4  H   UNL     1      33.071 -11.282 -22.113  0.00  0.00    +0.155 HD
ENDROOT
BRANCH   2  13
ATOM      5  N   UNL     1      32.287  -4.449 -22.910  0.00  0.00    +0.387 N 
ATOM      6  C   UNL     1      34.012  -6.037 -23.688  0.00  0.00    +0.001 C 
ATOM      7  C   UNL     1      33.042  -7.164 -23.361  0.00  0.00    -0.029 C 
ATOM      8  C   UNL     1      33.282  -4.705 -23.950  0.00  0.00    -0.077 C 
ATOM      9  C   UNL     1      31.714  -6.864 -22.995  0.00  0.00    -0.048 C 
ATOM     10  C   UNL     1      31.213  -5.442 -22.992  0.00  0.00    -0.055 C 
ATOM     11  C   UNL     1      33.462  -8.504 -23.336  0.00  0.00    +0.010 C 
ATOM     12  C   UNL     1      30.825  -7.902 -22.676  0.00  0.00    -0.005 C 
ATOM     13  C   UNL     1      32.571  -9.527 -23.004  0.00  0.00    +0.050 C 
ATOM     14  C   UNL     1      31.253  -9.227 -22.681  0.00  0.00    +0.014 C 
ATOM     15  H   UNL     1      31.895  -3.516 -23.040  0.00  0.00    -0.084 HD
ATOM     16  H   UNL     1      32.734  -4.512 -21.995  0.00  0.00    -0.084 HD
BRANCH   6  17
ATOM     17  C   UNL     1      34.923  -6.338 -24.883  0.00  0.00    +0.002 C 
ATOM     18  C   UNL     1      35.028  -5.142 -25.805  0.00  0.00    +0.000 C 
ENDBRANCH   6  17
ENDBRANCH   2  13
BRANCH   3  19
ATOM     19  C   UNL     1      33.768 -13.041 -23.766  0.00  0.00    +0.054 C 
ATOM     20  C   UNL     1      34.413 -14.679 -22.127  0.00  0.00    +0.000 C 
ATOM     21  C   UNL     1      34.515 -15.645 -23.157  0.00  0.00    +0.000 C 
ATOM     22  C   UNL     1      34.033 -13.366 -22.453  0.00  0.00    +0.005 C 
ATOM     23  C   UNL     1      33.860 -13.961 -24.786  0.00  0.00    +0.005 C 
ATOM     24  C   UNL     1      34.236 -15.269 -24.481  0.00  0.00    +0.000 C 
ATOM     25  C   UNL     1      34.895 -16.958 -22.832  0.00  0.00    +0.003 C 
ATOM     26  C   UNL     1      34.693 -15.055 -20.804  0.00  0.00    +0.000 C 
ATOM     27  C   UNL     1      35.170 -17.313 -21.512  0.00  0.00    +0.031 C 
ATOM     28  C   UNL     1      35.069 -16.363 -20.499  0.00  0.00    +0.003 C 
BRANCH  27  31
ATOM     29  N   UNL     1      36.646 -18.942 -20.357  0.00  0.00    -0.343 N 
ATOM     30  N   UNL     1      34.888 -19.691 -21.700  0.00  0.00    -0.285 NA
ATOM     31  C   UNL     1      35.562 -18.676 -21.192  0.00  0.00    +0.117 C 
ATOM     32  H   UNL     1      36.894 -19.872 -20.153  0.00  0.00    +0.144 HD
ATOM     33  H   UNL     1      37.163 -18.199 -19.970  0.00  0.00    +0.144 HD
ATOM     34  H   UNL     1      35.152 -20.615 -21.485  0.00  0.00    +0.188 HD
ENDBRANCH  27  31
ENDBRANCH   3  19
TORSDOF 4
ENDMDL
MODEL 5
REMARK VINA RESULT:     -10.2      7.942     14.732
REMARK  Name = 447731
REMARK  4 active torsions:
REMARK  status: ('A' for Active; 'I' for Inactive)
REMARK    1  A    between atoms: N_2  and  C_13
REMARK    2  A    between atoms: C_3  and  C_19
REMARK    3  A    between atoms: C_6  and  C_17
REMARK    4  A    between atoms: C_27  and  C_31
REMARK                            x       y       z     vdW  Elec       q    Type
REMARK                         _______ _______ _______ _____ _____    ______ ____
ROOT
ATOM      1  O   UNL     1      33.101 -11.854 -25.330  0.00  0.00    -0.270 OA
ATOM      2  N   UNL     1      34.240 -11.088 -23.421  0.00  0.00    -0.280 N 
ATOM      3  C   UNL     1      33.747 -12.055 -24.307  0.00  0.00    +0.249 C 
ATOM      4  H   UNL     1      34.741 -11.429 -22.644  0.00  0.00    +0.155 HD
ENDROOT
BRANCH   2  13
ATOM      5  N   UNL     1      32.425  -4.905 -23.301  0.00  0.00    +0.387 N 
ATOM      6  C   UNL     1      31.953  -6.927 -21.962  0.00  0.00    +0.001 C 
ATOM      7  C   UNL     1      33.013  -7.649 -22.782  0.00  0.00    -0.029 C 
ATOM      8  C   UNL     1      32.173  -5.401 -21.949  0.00  0.00    -0.077 C 
ATOM      9  C   UNL     1      33.822  -6.924 -23.681  0.00  0.00    -0.048 C 
ATOM     10  C   UNL     1      33.703  -5.424 -23.793  0.00  0.00    -0.055 C 
ATOM     11  C   UNL     1      33.155  -9.045 -22.724  0.00  0.00    +0.010 C 
ATOM     12  C   UNL     1      34.787  -7.592 -24.449  0.00  0.00    -0.005 C 
ATOM     13  C   UNL     1      34.110  -9.700 -23.503  0.00  0.00    +0.050 C 
ATOM     14  C   UNL     1      34.929  -8.974 -24.360  0.00  0.00    +0.014 C 
ATOM     15  H   UNL     1      32.457  -3.885 -23.286  0.00  0.00    -0.084 HD
ATOM     16  H   UNL     1      31.675  -5.218 -23.918  0.00  0.00    -0.084 HD
BRANCH   6  17
ATOM     17  C   UNL     1      31.856  -7.418 -20.513  0.00  0.00    +0.002 C 
ATOM     18  C   UNL     1      32.750  -6.608 -19.600  0.00  0.00    +0.000 C 
ENDBRANCH   6  17
ENDBRANCH   2  13
BRANCH   3  19
ATOM     19  C   UNL     1      34.026 -13.465 -23.931  0.00  0.00    +0.054 C 
ATOM     20  C   UNL     1      34.581 -15.087 -22.243  0.00  0.00    +0.000 C 
ATOM     21  C   UNL     1      34.547 -16.102 -23.231  0.00  0.00    +0.000 C 
ATOM     22  C   UNL     1      34.315 -13.758 -22.614  0.00  0.00    +0.005 C 
ATOM     23  C   UNL     1      33.987 -14.432 -24.909  0.00  0.00    +0.005 C 
ATOM     24  C   UNL     1      34.249 -15.757 -24.559  0.00  0.00    +0.000 C 
ATOM     25  C   UNL     1      34.814 -17.430 -22.861  0.00  0.00    +0.003 C 
ATOM     26  C   UNL     1      34.880 -15.432 -20.916  0.00  0.00    +0.000 C 
ATOM     27  C   UNL     1      35.109 -17.754 -21.536  0.00  0.00    +0.031 C 
ATOM     28  C   UNL     1      35.142 -16.756 -20.566  0.00  0.00    +0.003 C 
BRANCH  27  31
ATOM     29  N   UNL     1      36.418 -19.459 -20.294  0.00  0.00    -0.343 N 
ATOM     30  N   UNL     1      34.646 -20.107 -21.671  0.00  0.00    -0.285 NA
ATOM     31  C   UNL     1      35.383 -19.134 -21.169  0.00  0.00    +0.117 C 
ATOM     32  H   UNL     1      36.586 -20.400 -20.059  0.00  0.00    +0.144 HD
ATOM     33  H   UNL     1      36.981 -18.748 -19.911  0.00  0.00    +0.144 HD
ATOM     34  H   UNL     1      34.829 -21.042 -21.424  0.00  0.00    +0.188 HD
ENDBRANCH  27  31
ENDBRANCH   3  19
TORSDOF 4
ENDMDL
MODEL 6
REMARK VINA RESULT:     -10.2      8.045     14.964
REMARK  Name = 447731
REMARK  4 active torsions:
REMARK  status: ('A' for Active; 'I' for Inactive)
REMARK    1  A    between atoms: N_2  and  C_13
REMARK    2  A    between atoms: C_3  and  C_19
REMARK    3  A    between atoms: C_6  and  C_17
REMARK    4  A    between atoms: C_27  and  C_31
REMARK                            x       y       z     vdW  Elec       q    Type
REMARK                         _______ _______ _______ _____ _____    ______ ____
ROOT
ATOM      1  O   UNL     1      33.328 -12.130 -24.674  0.00  0.00    -0.270 OA
ATOM      2  N   UNL     1      34.256 -10.867 -22.920  0.00  0.00    -0.280 N 
ATOM      3  C   UNL     1      33.881 -12.043 -23.582  0.00  0.00    +0.249 C 
ATOM      4  H   UNL     1      34.692 -10.984 -22.045  0.00  0.00    +0.155 HD
ENDROOT
BRANCH   2  13
ATOM      5  N   UNL     1      32.203  -4.973 -24.531  0.00  0.00    +0.387 N 
ATOM      6  C   UNL     1      31.609  -6.664 -22.831  0.00  0.00    +0.001 C 
ATOM      7  C   UNL     1      32.811  -7.473 -23.297  0.00  0.00    -0.029 C 
ATOM      8  C   UNL     1      31.765  -5.164 -23.150  0.00  0.00    -0.077 C 
ATOM      9  C   UNL     1      33.719  -6.916 -24.219  0.00  0.00    -0.048 C 
ATOM     10  C   UNL     1      33.561  -5.495 -24.700  0.00  0.00    -0.055 C 
ATOM     11  C   UNL     1      32.996  -8.804 -22.889  0.00  0.00    +0.010 C 
ATOM     12  C   UNL     1      34.817  -7.669 -24.663  0.00  0.00    -0.005 C 
ATOM     13  C   UNL     1      34.085  -9.549 -23.348  0.00  0.00    +0.050 C 
ATOM     14  C   UNL     1      34.998  -8.979 -24.229  0.00  0.00    +0.014 C 
ATOM     15  H   UNL     1      32.193  -3.978 -24.755  0.00  0.00    -0.084 HD
ATOM     16  H   UNL     1      31.571  -5.474 -25.156  0.00  0.00    -0.084 HD
BRANCH   6  17
ATOM     17  C   UNL     1      31.308  -6.816 -21.335  0.00  0.00    +0.002 C 
ATOM     18  C   UNL     1      32.280  -6.012 -20.498  0.00  0.00    +0.000 C 
ENDBRANCH   6  17
ENDBRANCH   2  13
BRANCH   3  19
ATOM     19  C   UNL     1      34.172 -13.305 -22.853  0.00  0.00    +0.054 C 
ATOM     20  C   UNL     1      34.735 -15.644 -22.905  0.00  0.00    +0.000 C 
ATOM     21  C   UNL     1      34.716 -15.662 -21.490  0.00  0.00    +0.000 C 
ATOM     22  C   UNL     1      34.457 -14.442 -23.580  0.00  0.00    +0.005 C 
ATOM     23  C   UNL     1      34.148 -13.297 -21.477  0.00  0.00    +0.005 C 
ATOM     24  C   UNL     1      34.420 -14.480 -20.791  0.00  0.00    +0.000 C 
ATOM     25  C   UNL     1      34.993 -16.862 -20.815  0.00  0.00    +0.003 C 
ATOM     26  C   UNL     1      35.030 -16.825 -23.603  0.00  0.00    +0.000 C 
ATOM     27  C   UNL     1      35.284 -18.027 -21.525  0.00  0.00    +0.031 C 
ATOM     28  C   UNL     1      35.302 -18.008 -22.917  0.00  0.00    +0.003 C 
BRANCH  27  31
ATOM     29  N   UNL     1      36.802 -19.478 -20.201  0.00  0.00    -0.343 N 
ATOM     30  N   UNL     1      34.649 -20.206 -20.738  0.00  0.00    -0.285 NA
ATOM     31  C   UNL     1      35.568 -19.262 -20.812  0.00  0.00    +0.117 C 
ATOM     32  H   UNL     1      36.974 -20.321 -19.723  0.00  0.00    +0.144 HD
ATOM     33  H   UNL     1      37.503 -18.787 -20.247  0.00  0.00    +0.144 HD
ATOM     34  H   UNL     1      34.840 -21.043 -20.255  0.00  0.00    +0.188 HD
ENDBRANCH  27  31
ENDBRANCH   3  19
TORSDOF 4
ENDMDL
MODEL 7
REMARK VINA RESULT:     -10.0      9.549     14.447
REMARK  Name = 447731
REMARK  4 active torsions:
REMARK  status: ('A' for Active; 'I' for Inactive)
REMARK    1  A    between atoms: N_2  and  C_13
REMARK    2  A    between atoms: C_3  and  C_19
REMARK    3  A    between atoms: C_6  and  C_17
REMARK    4  A    between atoms: C_27  and  C_31
REMARK                            x       y       z     vdW  Elec       q    Type
REMARK                         _______ _______ _______ _____ _____    ______ ____
ROOT
ATOM      1  O   UNL     1      31.394 -11.086 -21.540  0.00  0.00    -0.270 OA
ATOM      2  N   UNL     1      33.100 -10.893 -23.148  0.00  0.00    -0.280 N 
ATOM      3  C   UNL     1      32.150 -10.415 -22.235  0.00  0.00    +0.249 C 
ATOM      4  H   UNL     1      33.624 -10.209 -23.624  0.00  0.00    +0.155 HD
ENDROOT
BRANCH   2  13
ATOM      5  N   UNL     1      35.327 -16.924 -23.610  0.00  0.00    +0.387 N 
ATOM      6  C   UNL     1      34.995 -15.281 -21.795  0.00  0.00    +0.001 C 
ATOM      7  C   UNL     1      34.299 -14.385 -22.810  0.00  0.00    -0.029 C 
ATOM      8  C   UNL     1      34.947 -16.766 -22.208  0.00  0.00    -0.077 C 
ATOM      9  C   UNL     1      34.012 -14.874 -24.100  0.00  0.00    -0.048 C 
ATOM     10  C   UNL     1      34.319 -16.302 -24.473  0.00  0.00    -0.055 C 
ATOM     11  C   UNL     1      34.004 -13.043 -22.516  0.00  0.00    +0.010 C 
ATOM     12  C   UNL     1      33.387 -14.041 -25.041  0.00  0.00    -0.005 C 
ATOM     13  C   UNL     1      33.394 -12.220 -23.465  0.00  0.00    +0.050 C 
ATOM     14  C   UNL     1      33.080 -12.721 -24.724  0.00  0.00    +0.014 C 
ATOM     15  H   UNL     1      35.396 -17.917 -23.832  0.00  0.00    -0.084 HD
ATOM     16  H   UNL     1      36.228 -16.471 -23.767  0.00  0.00    -0.084 HD
BRANCH   6  17
ATOM     17  C   UNL     1      34.436 -15.151 -20.374  0.00  0.00    +0.002 C 
ATOM     18  C   UNL     1      33.174 -14.315 -20.357  0.00  0.00    +0.000 C 
ENDBRANCH   6  17
ENDBRANCH   2  13
BRANCH   3  19
ATOM     19  C   UNL     1      32.049  -8.936 -22.136  0.00  0.00    +0.054 C 
ATOM     20  C   UNL     1      31.724  -6.806 -23.207  0.00  0.00    +0.000 C 
ATOM     21  C   UNL     1      31.862  -6.171 -21.949  0.00  0.00    +0.000 C 
ATOM     22  C   UNL     1      31.821  -8.206 -23.284  0.00  0.00    +0.005 C 
ATOM     23  C   UNL     1      32.187  -8.343 -20.902  0.00  0.00    +0.005 C 
ATOM     24  C   UNL     1      32.094  -6.955 -20.806  0.00  0.00    +0.000 C 
ATOM     25  C   UNL     1      31.765  -4.772 -21.872  0.00  0.00    +0.003 C 
ATOM     26  C   UNL     1      31.493  -6.024 -24.349  0.00  0.00    +0.000 C 
ATOM     27  C   UNL     1      31.535  -4.010 -23.018  0.00  0.00    +0.031 C 
ATOM     28  C   UNL     1      31.399  -4.636 -24.254  0.00  0.00    +0.003 C 
BRANCH  27  31
ATOM     29  N   UNL     1      30.778  -1.951 -21.856  0.00  0.00    -0.343 N 
ATOM     30  N   UNL     1      31.976  -1.803 -23.855  0.00  0.00    -0.285 NA
ATOM     31  C   UNL     1      31.438  -2.563 -22.920  0.00  0.00    +0.117 C 
ATOM     32  H   UNL     1      30.724  -0.969 -21.809  0.00  0.00    +0.144 HD
ATOM     33  H   UNL     1      30.367  -2.501 -21.149  0.00  0.00    +0.144 HD
ATOM     34  H   UNL     1      31.911  -0.822 -23.792  0.00  0.00    +0.188 HD
ENDBRANCH  27  31
ENDBRANCH   3  19
TORSDOF 4
ENDMDL
MODEL 8
REMARK VINA RESULT:      -9.9      9.940     15.066
REMARK  Name = 447731
REMARK  4 active torsions:
REMARK  status: ('A' for Active; 'I' for Inactive)
REMARK    1  A    between atoms: N_2  and  C_13
REMARK    2  A    between atoms: C_3  and  C_19
REMARK    3  A    between atoms: C_6  and  C_17
REMARK    4  A    between atoms: C_27  and  C_31
REMARK                            x       y       z     vdW  Elec       q    Type
REMARK                         _______ _______ _______ _____ _____    ______ ____
ROOT
ATOM      1  O   UNL     1      35.575  -9.573 -23.653  0.00  0.00    -0.270 OA
ATOM      2  N   UNL     1      33.394 -10.393 -23.968  0.00  0.00    -0.280 N 
ATOM      3  C   UNL     1      34.367  -9.404 -23.777  0.00  0.00    +0.249 C 
ATOM      4  H   UNL     1      32.465 -10.076 -24.048  0.00  0.00    +0.155 HD
ENDROOT
BRANCH   2  13
ATOM      5  N   UNL     1      35.078 -16.585 -23.362  0.00  0.00    +0.387 N 
ATOM      6  C   UNL     1      34.814 -14.654 -21.845  0.00  0.00    +0.001 C 
ATOM      7  C   UNL     1      34.251 -13.875 -23.025  0.00  0.00    -0.029 C 
ATOM      8  C   UNL     1      34.649 -16.176 -22.026  0.00  0.00    -0.077 C 
ATOM      9  C   UNL     1      33.981 -14.537 -24.240  0.00  0.00    -0.048 C 
ATOM     10  C   UNL     1      34.173 -16.027 -24.370  0.00  0.00    -0.055 C 
ATOM     11  C   UNL     1      34.067 -12.484 -22.960  0.00  0.00    +0.010 C 
ATOM     12  C   UNL     1      33.479 -13.815 -25.334  0.00  0.00    -0.005 C 
ATOM     13  C   UNL     1      33.580 -11.774 -24.060  0.00  0.00    +0.050 C 
ATOM     14  C   UNL     1      33.281 -12.440 -25.243  0.00  0.00    +0.014 C 
ATOM     15  H   UNL     1      35.066 -17.604 -23.424  0.00  0.00    -0.084 HD
ATOM     16  H   UNL     1      36.023 -16.240 -23.532  0.00  0.00    -0.084 HD
BRANCH   6  17
ATOM     17  C   UNL     1      34.203 -14.254 -20.497  0.00  0.00    +0.002 C 
ATOM     18  C   UNL     1      32.769 -13.801 -20.660  0.00  0.00    +0.000 C 
ENDBRANCH   6  17
ENDBRANCH   2  13
BRANCH   3  19
ATOM     19  C   UNL     1      33.852  -8.012 -23.692  0.00  0.00    +0.054 C 
ATOM     20  C   UNL     1      32.238  -6.450 -22.830  0.00  0.00    +0.000 C 
ATOM     21  C   UNL     1      32.891  -5.411 -23.536  0.00  0.00    +0.000 C 
ATOM     22  C   UNL     1      32.738  -7.761 -22.919  0.00  0.00    +0.005 C 
ATOM     23  C   UNL     1      34.504  -7.020 -24.389  0.00  0.00    +0.005 C 
ATOM     24  C   UNL     1      34.022  -5.714 -24.312  0.00  0.00    +0.000 C 
ATOM     25  C   UNL     1      32.392  -4.101 -23.448  0.00  0.00    +0.003 C 
ATOM     26  C   UNL     1      31.107  -6.148 -22.055  0.00  0.00    +0.000 C 
ATOM     27  C   UNL     1      31.266  -3.819 -22.673  0.00  0.00    +0.031 C 
ATOM     28  C   UNL     1      30.625  -4.842 -21.978  0.00  0.00    +0.003 C 
BRANCH  27  31
ATOM     29  N   UNL     1      30.305  -1.786 -23.723  0.00  0.00    -0.343 N 
ATOM     30  N   UNL     1      30.737  -1.835 -21.428  0.00  0.00    -0.285 NA
ATOM     31  C   UNL     1      30.762  -2.458 -22.591  0.00  0.00    +0.117 C 
ATOM     32  H   UNL     1      29.968  -0.864 -23.646  0.00  0.00    +0.144 HD
ATOM     33  H   UNL     1      30.318  -2.232 -24.601  0.00  0.00    +0.144 HD
ATOM     34  H   UNL     1      30.396  -0.912 -21.371  0.00  0.00    +0.188 HD
ENDBRANCH  27  31
ENDBRANCH   3  19
TORSDOF 4
ENDMDL
MODEL 9
REMARK VINA RESULT:      -9.6      0.706      1.513
REMARK  Name = 447731
REMARK  4 active torsions:
REMARK  status: ('A' for Active; 'I' for Inactive)
REMARK    1  A    between atoms: N_2  and  C_13
REMARK    2  A    between atoms: C_3  and  C_19
REMARK    3  A    between atoms: C_6  and  C_17
REMARK    4  A    between atoms: C_27  and  C_31
REMARK                            x       y       z     vdW  Elec       q    Type
REMARK                         _______ _______ _______ _____ _____    ______ ____
ROOT
ATOM      1  O   UNL     1      34.429 -23.375 -17.611  0.00  0.00    -0.270 OA
ATOM      2  N   UNL     1      36.116 -22.271 -16.401  0.00  0.00    -0.280 N 
ATOM      3  C   UNL     1      35.261 -22.482 -17.490  0.00  0.00    +0.249 C 
ATOM      4  H   UNL     1      36.726 -21.501 -16.472  0.00  0.00    +0.155 HD
ENDROOT
BRANCH   2  13
ATOM      5  N   UNL     1      37.250 -26.572 -11.736  0.00  0.00    +0.387 N 
ATOM      6  C   UNL     1      38.425 -25.791 -13.764  0.00  0.00    +0.001 C 
ATOM      7  C   UNL     1      37.347 -24.728 -13.911  0.00  0.00    -0.029 C 
ATOM      8  C   UNL     1      38.562 -26.276 -12.307  0.00  0.00    -0.077 C 
ATOM      9  C   UNL     1      36.396 -24.543 -12.887  0.00  0.00    -0.048 C 
ATOM     10  C   UNL     1      36.472 -25.337 -11.607  0.00  0.00    -0.055 C 
ATOM     11  C   UNL     1      37.224 -23.971 -15.088  0.00  0.00    +0.010 C 
ATOM     12  C   UNL     1      35.391 -23.575 -13.031  0.00  0.00    -0.005 C 
ATOM     13  C   UNL     1      36.212 -23.019 -15.226  0.00  0.00    +0.050 C 
ATOM     14  C   UNL     1      35.300 -22.817 -14.196  0.00  0.00    +0.014 C 
ATOM     15  H   UNL     1      37.369 -26.994 -10.815  0.00  0.00    -0.084 HD
ATOM     16  H   UNL     1      36.754 -27.218 -12.350  0.00  0.00    -0.084 HD
BRANCH   6  17
ATOM     17  C   UNL     1      39.804 -25.342 -14.261  0.00  0.00    +0.002 C 
ATOM     18  C   UNL     1      40.488 -26.442 -15.043  0.00  0.00    +0.000 C 
ENDBRANCH   6  17
ENDBRANCH   2  13
BRANCH   3  19
ATOM     19  C   UNL     1      35.416 -21.524 -18.616  0.00  0.00    +0.054 C 
ATOM     20  C   UNL     1      34.462 -20.374 -20.501  0.00  0.00    +0.000 C 
ATOM     21  C   UNL     1      35.707 -19.735 -20.720  0.00  0.00    +0.000 C 
ATOM     22  C   UNL     1      34.332 -21.276 -19.432  0.00  0.00    +0.005 C 
ATOM     23  C   UNL     1      36.636 -20.917 -18.807  0.00  0.00    +0.005 C 
ATOM     24  C   UNL     1      36.784 -20.019 -19.864  0.00  0.00    +0.000 C 
ATOM     25  C   UNL     1      35.838 -18.833 -21.789  0.00  0.00    +0.003 C 
ATOM     26  C   UNL     1      33.386 -20.091 -21.357  0.00  0.00    +0.000 C 
ATOM     27  C   UNL     1      34.758 -18.565 -22.629  0.00  0.00    +0.031 C 
ATOM     28  C   UNL     1      33.534 -19.193 -22.413  0.00  0.00    +0.003 C 
BRANCH  27  31
ATOM     29  N   UNL     1      35.557 -16.406 -23.559  0.00  0.00    -0.343 N 
ATOM     30  N   UNL     1      34.425 -17.929 -24.922  0.00  0.00    -0.285 NA
ATOM     31  C   UNL     1      34.910 -17.628 -23.731  0.00  0.00    +0.117 C 
ATOM     32  H   UNL     1      35.649 -15.787 -24.319  0.00  0.00    +0.144 HD
ATOM     33  H   UNL     1      35.923 -16.162 -22.678  0.00  0.00    +0.144 HD
ATOM     34  H   UNL     1      34.527 -17.296 -25.670  0.00  0.00    +0.188 HD
ENDBRANCH  27  31
ENDBRANCH   3  19
TORSDOF 4
ENDMDL
