MODEL 1
REMARK VINA RESULT:     -11.7      0.000      0.000
REMARK  Name = 158376
REMARK  11 active torsions:
REMARK  status: ('A' for Active; 'I' for Inactive)
REMARK    1  A    between atoms: C_1  and  N_22
REMARK    2  A    between atoms: C_2  and  C_9
REMARK    3  A    between atoms: N_8  and  CA_11
REMARK    4  A    between atoms: CA_11  and  C_13
REMARK    5  A    between atoms: CA_11  and  CB_16
REMARK    6  A    between atoms: C_13  and  O_14
REMARK    7  A    between atoms: CB_16  and  CG_17
REMARK    8  A    between atoms: CG_17  and  CD_19
REMARK    9  A    between atoms: CD_19  and  OE1_20
REMARK   10  A    between atoms: N_22  and  C_24
REMARK   11  A    between atoms: C_24  and  C_29
REMARK                            x       y       z     vdW  Elec       q    Type
REMARK                         _______ _______ _______ _____ _____    ______ ____
ROOT
ATOM      1  C   UNL     1      35.545 -19.674 -20.454  0.00  0.00    +0.048 C 
ATOM      2  C   UNL     1      34.351 -21.784 -19.073  0.00  0.00    +0.053 C 
ATOM      3  C   UNL     1      36.332 -20.555 -19.711  0.00  0.00    +0.015 C 
ATOM      4  C   UNL     1      34.163 -19.847 -20.507  0.00  0.00    +0.015 C 
ATOM      5  C   UNL     1      35.735 -21.609 -19.022  0.00  0.00    +0.006 C 
ATOM      6  C   UNL     1      33.566 -20.903 -19.815  0.00  0.00    +0.006 C 
ENDROOT
BRANCH   2   9
ATOM      7  O   UNL     1      33.748 -24.036 -18.823  0.00  0.00    -0.270 OA
ATOM      8  N   UNL     1      33.140 -22.586 -17.117  0.00  0.00    -0.293 N 
ATOM      9  C   ACE A   0      33.715 -22.907 -18.338  0.00  0.00    +0.246 C 
ATOM     10  H   UNL     1      33.164 -21.651 -16.813  0.00  0.00    +0.150 HD
BRANCH   8  11
ATOM     11  CA  UNL     1      32.507 -23.571 -16.276  0.00  0.00    +0.172 C 
BRANCH  11  13
ATOM     12  OXT UNL     1      30.448 -22.398 -16.838  0.00  0.00    -0.248 OA
ATOM     13  C   UNL     1      31.059 -23.163 -16.102  0.00  0.00    +0.332 C 
BRANCH  13  14
ATOM     14  O   UNL     1      30.482 -23.780 -15.037  0.00  0.00    -0.479 OA
ATOM     15  H   UNL     1      30.337 -24.704 -15.054  0.00  0.00    +0.295 HD
ENDBRANCH  13  14
ENDBRANCH  11  13
BRANCH  11  16
ATOM     16  CB  UNL     1      33.252 -23.787 -14.953  0.00  0.00    +0.043 C 
BRANCH  16  17
ATOM     17  CG  UNL     1      34.782 -23.840 -15.049  0.00  0.00    +0.112 C 
BRANCH  17  19
ATOM     18  OE2 UNL     1      35.949 -25.977 -15.141  0.00  0.00    -0.250 OA
ATOM     19  CD  UNL     1      35.385 -25.110 -14.489  0.00  0.00    +0.314 C 
BRANCH  19  20
ATOM     20  OE1 UNL     1      35.191 -25.206 -13.146  0.00  0.00    -0.480 OA
ATOM     21  HE1 UNL     1      34.353 -25.458 -12.811  0.00  0.00    +0.295 HD
ENDBRANCH  19  20
ENDBRANCH  17  19
ENDBRANCH  16  17
ENDBRANCH  11  16
ENDBRANCH   8  11
ENDBRANCH   2   9
BRANCH   1  22
ATOM     22  N   UNL     1      36.148 -18.608 -21.153  0.00  0.00    -0.302 N 
ATOM     23  C   UNL     1      37.478 -18.755 -21.711  0.00  0.00    +0.112 C 
BRANCH  22  24
ATOM     24  C   UNL     1      35.440 -17.355 -21.335  0.00  0.00    +0.118 C 
BRANCH  24  29
ATOM     25  O   UNL     1      34.549 -17.334 -24.922  0.00  0.00    -0.427 OA
ATOM     26  N   UNL     1      33.771 -15.144 -25.469  0.00  0.00    -0.294 NA
ATOM     27  N   UNL     1      33.783 -13.598 -23.587  0.00  0.00    -0.317 NA
ATOM     28  N   UNL     1      33.062 -12.928 -25.711  0.00  0.00    -0.283 N 
ATOM     29  C   UNL     1      35.006 -17.054 -22.736  0.00  0.00    +0.031 C 
ATOM     30  C   UNL     1      34.521 -15.826 -23.246  0.00  0.00    +0.180 C 
ATOM     31  C   UNL     1      34.252 -16.044 -24.594  0.00  0.00    +0.281 C 
ATOM     32  C   UNL     1      35.005 -17.935 -23.793  0.00  0.00    +0.176 C 
ATOM     33  C   UNL     1      34.267 -14.547 -22.754  0.00  0.00    +0.181 C 
ATOM     34  C   UNL     1      33.568 -13.950 -24.875  0.00  0.00    +0.200 C 
ATOM     35  H   UNL     1      32.881 -13.114 -26.661  0.00  0.00    +0.156 HD
ATOM     36  H   UNL     1      32.890 -12.031 -25.343  0.00  0.00    +0.156 HD
ATOM     37  N   UNL     1      34.508 -14.229 -21.405  0.00  0.00    -0.335 N 
ATOM     38  H   UNL     1      34.324 -13.321 -21.073  0.00  0.00    +0.144 HD
ATOM     39  H   UNL     1      34.861 -14.914 -20.793  0.00  0.00    +0.144 HD
ENDBRANCH  24  29
ENDBRANCH  22  24
ENDBRANCH   1  22
TORSDOF 11
ENDMDL
MODEL 2
REMARK VINA RESULT:     -11.0      1.849      2.563
REMARK  Name = 158376
REMARK  11 active torsions:
REMARK  status: ('A' for Active; 'I' for Inactive)
REMARK    1  A    between atoms: C_1  and  N_22
REMARK    2  A    between atoms: C_2  and  C_9
REMARK    3  A    between atoms: N_8  and  CA_11
REMARK    4  A    between atoms: CA_11  and  C_13
REMARK    5  A    between atoms: CA_11  and  CB_16
REMARK    6  A    between atoms: C_13  and  O_14
REMARK    7  A    between atoms: CB_16  and  CG_17
REMARK    8  A    between atoms: CG_17  and  CD_19
REMARK    9  A    between atoms: CD_19  and  OE1_20
REMARK   10  A    between atoms: N_22  and  C_24
REMARK   11  A    between atoms: C_24  and  C_29
REMARK                            x       y       z     vdW  Elec       q    Type
REMARK                         _______ _______ _______ _____ _____    ______ ____
ROOT
ATOM      1  C   UNL     1      35.196 -20.311 -20.124  0.00  0.00    +0.048 C 
ATOM      2  C   UNL     1      33.782 -22.088 -18.501  0.00  0.00    +0.053 C 
ATOM      3  C   UNL     1      35.882 -21.149 -19.245  0.00  0.00    +0.015 C 
ATOM      4  C   UNL     1      33.804 -20.362 -20.192  0.00  0.00    +0.015 C 
ATOM      5  C   UNL     1      35.175 -22.037 -18.434  0.00  0.00    +0.006 C 
ATOM      6  C   UNL     1      33.097 -21.250 -19.380  0.00  0.00    +0.006 C 
ENDROOT
BRANCH   2   9
ATOM      7  O   UNL     1      33.354 -24.218 -17.622  0.00  0.00    -0.270 OA
ATOM      8  N   UNL     1      32.007 -22.482 -16.879  0.00  0.00    -0.293 N 
ATOM      9  C   ACE A   0      33.030 -23.034 -17.638  0.00  0.00    +0.246 C 
ATOM     10  H   UNL     1      31.823 -21.519 -16.961  0.00  0.00    +0.150 HD
BRANCH   8  11
ATOM     11  CA  UNL     1      31.204 -23.265 -15.975  0.00  0.00    +0.172 C 
BRANCH  11  13
ATOM     12  OXT UNL     1      29.057 -22.643 -16.943  0.00  0.00    -0.248 OA
ATOM     13  C   UNL     1      29.807 -22.678 -15.976  0.00  0.00    +0.332 C 
BRANCH  13  14
ATOM     14  O   UNL     1      29.451 -22.215 -14.749  0.00  0.00    -0.479 OA
ATOM     15  H   UNL     1      29.258 -21.307 -14.629  0.00  0.00    +0.295 HD
ENDBRANCH  13  14
ENDBRANCH  11  13
BRANCH  11  16
ATOM     16  CB  UNL     1      31.826 -23.381 -14.578  0.00  0.00    +0.043 C 
BRANCH  16  17
ATOM     17  CG  UNL     1      31.795 -24.779 -13.947  0.00  0.00    +0.112 C 
BRANCH  17  19
ATOM     18  OE2 UNL     1      29.447 -25.426 -14.042  0.00  0.00    -0.250 OA
ATOM     19  CD  UNL     1      30.444 -25.163 -13.383  0.00  0.00    +0.314 C 
BRANCH  19  20
ATOM     20  OE1 UNL     1      30.447 -25.147 -12.024  0.00  0.00    -0.480 OA
ATOM     21  HE1 UNL     1      29.677 -25.395 -11.551  0.00  0.00    +0.295 HD
ENDBRANCH  19  20
ENDBRANCH  17  19
ENDBRANCH  16  17
ENDBRANCH  11  16
ENDBRANCH   8  11
ENDBRANCH   2   9
BRANCH   1  22
ATOM     22  N   UNL     1      35.909 -19.414 -20.945  0.00  0.00    -0.302 N 
ATOM     23  C   UNL     1      37.277 -19.057 -20.626  0.00  0.00    +0.112 C 
BRANCH  22  24
ATOM     24  C   UNL     1      35.289 -18.850 -22.128  0.00  0.00    +0.118 C 
BRANCH  24  29
ATOM     25  O   UNL     1      34.880 -15.271 -21.299  0.00  0.00    -0.427 OA
ATOM     26  N   UNL     1      34.062 -14.158 -23.247  0.00  0.00    -0.294 NA
ATOM     27  N   UNL     1      33.739 -15.632 -25.159  0.00  0.00    -0.317 NA
ATOM     28  N   UNL     1      33.270 -13.343 -25.292  0.00  0.00    -0.283 N 
ATOM     29  C   UNL     1      35.028 -17.376 -22.082  0.00  0.00    +0.031 C 
ATOM     30  C   UNL     1      34.546 -16.550 -23.126  0.00  0.00    +0.180 C 
ATOM     31  C   UNL     1      34.471 -15.263 -22.600  0.00  0.00    +0.281 C 
ATOM     32  C   UNL     1      35.213 -16.552 -20.996  0.00  0.00    +0.176 C 
ATOM     33  C   UNL     1      34.160 -16.708 -24.455  0.00  0.00    +0.181 C 
ATOM     34  C   UNL     1      33.717 -14.440 -24.520  0.00  0.00    +0.200 C 
ATOM     35  H   UNL     1      33.228 -12.445 -24.890  0.00  0.00    +0.156 HD
ATOM     36  H   UNL     1      33.001 -13.477 -26.229  0.00  0.00    +0.156 HD
ATOM     37  N   UNL     1      34.200 -17.970 -25.075  0.00  0.00    -0.335 N 
ATOM     38  H   UNL     1      33.924 -18.066 -26.015  0.00  0.00    +0.144 HD
ATOM     39  H   UNL     1      34.504 -18.758 -24.570  0.00  0.00    +0.144 HD
ENDBRANCH  24  29
ENDBRANCH  22  24
ENDBRANCH   1  22
TORSDOF 11
ENDMDL
MODEL 3
REMARK VINA RESULT:     -11.0      1.640      1.939
REMARK  Name = 158376
REMARK  11 active torsions:
REMARK  status: ('A' for Active; 'I' for Inactive)
REMARK    1  A    between atoms: C_1  and  N_22
REMARK    2  A    between atoms: C_2  and  C_9
REMARK    3  A    between atoms: N_8  and  CA_11
REMARK    4  A    between atoms: CA_11  and  C_13
REMARK    5  A    between atoms: CA_11  and  CB_16
REMARK    6  A    between atoms: C_13  and  O_14
REMARK    7  A    between atoms: CB_16  and  CG_17
REMARK    8  A    between atoms: CG_17  and  CD_19
REMARK    9  A    between atoms: CD_19  and  OE1_20
REMARK   10  A    between atoms: N_22  and  C_24
REMARK   11  A    between atoms: C_24  and  C_29
REMARK                            x       y       z     vdW  Elec       q    Type
REMARK                         _______ _______ _______ _____ _____    ______ ____
ROOT
ATOM      1  C   UNL     1      34.532 -20.075 -20.924  0.00  0.00    +0.048 C 
ATOM      2  C   UNL     1      33.777 -21.719 -18.799  0.00  0.00    +0.053 C 
ATOM      3  C   UNL     1      35.506 -20.725 -20.165  0.00  0.00    +0.015 C 
ATOM      4  C   UNL     1      33.182 -20.247 -20.621  0.00  0.00    +0.015 C 
ATOM      5  C   UNL     1      35.128 -21.547 -19.103  0.00  0.00    +0.006 C 
ATOM      6  C   UNL     1      32.804 -21.069 -19.559  0.00  0.00    +0.006 C 
ENDROOT
BRANCH   2   9
ATOM      7  O   UNL     1      34.207 -23.343 -17.165  0.00  0.00    -0.270 OA
ATOM      8  N   UNL     1      32.058 -22.474 -17.246  0.00  0.00    -0.293 N 
ATOM      9  C   ACE A   0      33.374 -22.594 -17.669  0.00  0.00    +0.246 C 
ATOM     10  H   UNL     1      31.465 -21.845 -17.716  0.00  0.00    +0.150 HD
BRANCH   8  11
ATOM     11  CA  UNL     1      31.525 -23.237 -16.146  0.00  0.00    +0.172 C 
BRANCH  11  13
ATOM     12  OXT UNL     1      29.388 -22.122 -16.500  0.00  0.00    -0.248 OA
ATOM     13  C   UNL     1      30.014 -23.132 -16.204  0.00  0.00    +0.332 C 
BRANCH  13  14
ATOM     14  O   UNL     1      29.412 -24.318 -15.922  0.00  0.00    -0.479 OA
ATOM     15  H   UNL     1      29.473 -24.680 -15.061  0.00  0.00    +0.295 HD
ENDBRANCH  13  14
ENDBRANCH  11  13
BRANCH  11  16
ATOM     16  CB  UNL     1      32.122 -22.826 -14.795  0.00  0.00    +0.043 C 
BRANCH  16  17
ATOM     17  CG  UNL     1      31.420 -23.392 -13.554  0.00  0.00    +0.112 C 
BRANCH  17  19
ATOM     18  OE2 UNL     1      30.901 -25.755 -13.843  0.00  0.00    -0.250 OA
ATOM     19  CD  UNL     1      31.614 -24.881 -13.370  0.00  0.00    +0.314 C 
BRANCH  19  20
ATOM     20  OE1 UNL     1      32.676 -25.152 -12.565  0.00  0.00    -0.480 OA
ATOM     21  HE1 UNL     1      32.928 -24.540 -11.901  0.00  0.00    +0.295 HD
ENDBRANCH  19  20
ENDBRANCH  17  19
ENDBRANCH  16  17
ENDBRANCH  11  16
ENDBRANCH   8  11
ENDBRANCH   2   9
BRANCH   1  22
ATOM     22  N   UNL     1      34.914 -19.245 -21.998  0.00  0.00    -0.302 N 
ATOM     23  C   UNL     1      34.910 -19.753 -23.355  0.00  0.00    +0.112 C 
BRANCH  22  24
ATOM     24  C   UNL     1      35.300 -17.868 -21.761  0.00  0.00    +0.118 C 
BRANCH  24  29
ATOM     25  O   UNL     1      34.428 -16.027 -24.845  0.00  0.00    -0.427 OA
ATOM     26  N   UNL     1      33.807 -13.808 -24.221  0.00  0.00    -0.294 NA
ATOM     27  N   UNL     1      33.919 -13.393 -21.823  0.00  0.00    -0.317 NA
ATOM     28  N   UNL     1      33.255 -11.720 -23.320  0.00  0.00    -0.283 N 
ATOM     29  C   UNL     1      34.894 -16.889 -22.819  0.00  0.00    +0.031 C 
ATOM     30  C   UNL     1      34.498 -15.541 -22.644  0.00  0.00    +0.180 C 
ATOM     31  C   UNL     1      34.220 -15.050 -23.917  0.00  0.00    +0.281 C 
ATOM     32  C   UNL     1      34.836 -17.134 -24.171  0.00  0.00    +0.176 C 
ATOM     33  C   UNL     1      34.332 -14.658 -21.580  0.00  0.00    +0.181 C 
ATOM     34  C   UNL     1      33.685 -13.051 -23.111  0.00  0.00    +0.200 C 
ATOM     35  H   UNL     1      33.066 -11.403 -24.233  0.00  0.00    +0.156 HD
ATOM     36  H   UNL     1      33.145 -11.112 -22.554  0.00  0.00    +0.156 HD
ATOM     37  N   UNL     1      34.589 -15.061 -20.257  0.00  0.00    -0.335 N 
ATOM     38  H   UNL     1      34.467 -14.425 -19.516  0.00  0.00    +0.144 HD
ATOM     39  H   UNL     1      34.891 -15.979 -20.071  0.00  0.00    +0.144 HD
ENDBRANCH  24  29
ENDBRANCH  22  24
ENDBRANCH   1  22
TORSDOF 11
ENDMDL
MODEL 4
REMARK VINA RESULT:     -11.0      1.256      1.786
REMARK  Name = 158376
REMARK  11 active torsions:
REMARK  status: ('A' for Active; 'I' for Inactive)
REMARK    1  A    between atoms: C_1  and  N_22
REMARK    2  A    between atoms: C_2  and  C_9
REMARK    3  A    between atoms: N_8  and  CA_11
REMARK    4  A    between atoms: CA_11  and  C_13
REMARK    5  A    between atoms: CA_11  and  CB_16
REMARK    6  A    between atoms: C_13  and  O_14
REMARK    7  A    between atoms: CB_16  and  CG_17
REMARK    8  A    between atoms: CG_17  and  CD_19
REMARK    9  A    between atoms: CD_19  and  OE1_20
REMARK   10  A    between atoms: N_22  and  C_24
REMARK   11  A    between atoms: C_24  and  C_29
REMARK                            x       y       z     vdW  Elec       q    Type
REMARK                         _______ _______ _______ _____ _____    ______ ____
ROOT
ATOM      1  C   UNL     1      35.421 -20.084 -20.323  0.00  0.00    +0.048 C 
ATOM      2  C   UNL     1      34.133 -22.016 -18.775  0.00  0.00    +0.053 C 
ATOM      3  C   UNL     1      36.168 -20.944 -19.518  0.00  0.00    +0.015 C 
ATOM      4  C   UNL     1      34.030 -20.190 -20.355  0.00  0.00    +0.015 C 
ATOM      5  C   UNL     1      35.524 -21.910 -18.745  0.00  0.00    +0.006 C 
ATOM      6  C   UNL     1      33.387 -21.156 -19.580  0.00  0.00    +0.006 C 
ENDROOT
BRANCH   2   9
ATOM      7  O   UNL     1      33.528 -24.226 -18.279  0.00  0.00    -0.270 OA
ATOM      8  N   UNL     1      32.771 -22.576 -16.834  0.00  0.00    -0.293 N 
ATOM      9  C   ACE A   0      33.447 -23.045 -17.952  0.00  0.00    +0.246 C 
ATOM     10  H   UNL     1      32.763 -21.608 -16.656  0.00  0.00    +0.150 HD
BRANCH   8  11
ATOM     11  CA  UNL     1      32.078 -23.453 -15.924  0.00  0.00    +0.172 C 
BRANCH  11  13
ATOM     12  OXT UNL     1      29.974 -22.587 -16.794  0.00  0.00    -0.248 OA
ATOM     13  C   UNL     1      30.638 -22.989 -15.846  0.00  0.00    +0.332 C 
BRANCH  13  14
ATOM     14  O   UNL     1      30.135 -23.104 -14.589  0.00  0.00    -0.479 OA
ATOM     15  H   UNL     1      30.686 -22.948 -13.848  0.00  0.00    +0.295 HD
ENDBRANCH  13  14
ENDBRANCH  11  13
BRANCH  11  16
ATOM     16  CB  UNL     1      32.769 -23.556 -14.559  0.00  0.00    +0.043 C 
BRANCH  16  17
ATOM     17  CG  UNL     1      34.293 -23.377 -14.567  0.00  0.00    +0.112 C 
BRANCH  17  19
ATOM     18  OE2 UNL     1      35.546 -25.273 -15.446  0.00  0.00    -0.250 OA
ATOM     19  CD  UNL     1      35.060 -24.680 -14.493  0.00  0.00    +0.314 C 
BRANCH  19  20
ATOM     20  OE1 UNL     1      35.120 -25.154 -13.221  0.00  0.00    -0.480 OA
ATOM     21  HE1 UNL     1      34.749 -24.657 -12.518  0.00  0.00    +0.295 HD
ENDBRANCH  19  20
ENDBRANCH  17  19
ENDBRANCH  16  17
ENDBRANCH  11  16
ENDBRANCH   8  11
ENDBRANCH   2   9
BRANCH   1  22
ATOM     22  N   UNL     1      36.071 -19.108 -21.106  0.00  0.00    -0.302 N 
ATOM     23  C   UNL     1      37.496 -18.885 -20.966  0.00  0.00    +0.112 C 
BRANCH  22  24
ATOM     24  C   UNL     1      35.325 -18.325 -22.072  0.00  0.00    +0.118 C 
BRANCH  24  29
ATOM     25  O   UNL     1      34.756 -15.085 -20.386  0.00  0.00    -0.427 OA
ATOM     26  N   UNL     1      34.093 -13.504 -22.048  0.00  0.00    -0.294 NA
ATOM     27  N   UNL     1      33.980 -14.430 -24.298  0.00  0.00    -0.317 NA
ATOM     28  N   UNL     1      33.471 -12.184 -23.876  0.00  0.00    -0.283 N 
ATOM     29  C   UNL     1      35.026 -16.914 -21.671  0.00  0.00    +0.031 C 
ATOM     30  C   UNL     1      34.621 -15.845 -22.505  0.00  0.00    +0.180 C 
ATOM     31  C   UNL     1      34.468 -14.739 -21.674  0.00  0.00    +0.281 C 
ATOM     32  C   UNL     1      35.091 -16.402 -20.396  0.00  0.00    +0.176 C 
ATOM     33  C   UNL     1      34.362 -15.652 -23.861  0.00  0.00    +0.181 C 
ATOM     34  C   UNL     1      33.872 -13.445 -23.377  0.00  0.00    +0.200 C 
ATOM     35  H   UNL     1      33.371 -11.421 -23.262  0.00  0.00    +0.156 HD
ATOM     36  H   UNL     1      33.292 -12.070 -24.837  0.00  0.00    +0.156 HD
ATOM     37  N   UNL     1      34.488 -16.709 -24.780  0.00  0.00    -0.335 N 
ATOM     38  H   UNL     1      34.301 -16.556 -25.734  0.00  0.00    +0.144 HD
ATOM     39  H   UNL     1      34.764 -17.602 -24.470  0.00  0.00    +0.144 HD
ENDBRANCH  24  29
ENDBRANCH  22  24
ENDBRANCH   1  22
TORSDOF 11
ENDMDL
MODEL 5
REMARK VINA RESULT:     -10.9      3.370     10.721
REMARK  Name = 158376
REMARK  11 active torsions:
REMARK  status: ('A' for Active; 'I' for Inactive)
REMARK    1  A    between atoms: C_1  and  N_22
REMARK    2  A    between atoms: C_2  and  C_9
REMARK    3  A    between atoms: N_8  and  CA_11
REMARK    4  A    between atoms: CA_11  and  C_13
REMARK    5  A    between atoms: CA_11  and  CB_16
REMARK    6  A    between atoms: C_13  and  O_14
REMARK    7  A    between atoms: CB_16  and  CG_17
REMARK    8  A    between atoms: CG_17  and  CD_19
REMARK    9  A    between atoms: CD_19  and  OE1_20
REMARK   10  A    between atoms: N_22  and  C_24
REMARK   11  A    between atoms: C_24  and  C_29
REMARK                            x       y       z     vdW  Elec       q    Type
REMARK                         _______ _______ _______ _____ _____    ______ ____
ROOT
ATOM      1  C   UNL     1      35.236 -17.264 -22.465  0.00  0.00    +0.048 C 
ATOM      2  C   UNL     1      34.214 -14.906 -23.551  0.00  0.00    +0.053 C 
ATOM      3  C   UNL     1      35.054 -16.144 -21.653  0.00  0.00    +0.015 C 
ATOM      4  C   UNL     1      34.907 -17.205 -23.819  0.00  0.00    +0.015 C 
ATOM      5  C   UNL     1      34.542 -14.966 -22.196  0.00  0.00    +0.006 C 
ATOM      6  C   UNL     1      34.396 -16.025 -24.362  0.00  0.00    +0.006 C 
ENDROOT
BRANCH   2   9
ATOM      7  O   UNL     1      33.004 -13.704 -25.159  0.00  0.00    -0.270 OA
ATOM      8  N   UNL     1      33.944 -12.487 -23.422  0.00  0.00    -0.293 N 
ATOM      9  C   ACE A   0      33.669 -13.650 -24.128  0.00  0.00    +0.246 C 
ATOM     10  H   UNL     1      34.488 -12.547 -22.604  0.00  0.00    +0.150 HD
BRANCH   8  11
ATOM     11  CA  UNL     1      33.464 -11.194 -23.841  0.00  0.00    +0.172 C 
BRANCH  11  13
ATOM     12  OXT UNL     1      34.882 -10.582 -25.725  0.00  0.00    -0.248 OA
ATOM     13  C   UNL     1      34.608 -10.484 -24.536  0.00  0.00    +0.332 C 
BRANCH  13  14
ATOM     14  O   UNL     1      35.293  -9.675 -23.685  0.00  0.00    -0.479 OA
ATOM     15  H   UNL     1      35.544  -9.989 -22.840  0.00  0.00    +0.295 HD
ENDBRANCH  13  14
ENDBRANCH  11  13
BRANCH  11  16
ATOM     16  CB  UNL     1      32.843 -10.392 -22.692  0.00  0.00    +0.043 C 
BRANCH  16  17
ATOM     17  CG  UNL     1      31.546 -10.962 -22.104  0.00  0.00    +0.112 C 
BRANCH  17  19
ATOM     18  OE2 UNL     1      31.840 -11.154 -19.692  0.00  0.00    -0.250 OA
ATOM     19  CD  UNL     1      31.740 -11.686 -20.789  0.00  0.00    +0.314 C 
BRANCH  19  20
ATOM     20  OE1 UNL     1      31.832 -13.031 -20.968  0.00  0.00    -0.480 OA
ATOM     21  HE1 UNL     1      31.080 -13.520 -21.237  0.00  0.00    +0.295 HD
ENDBRANCH  19  20
ENDBRANCH  17  19
ENDBRANCH  16  17
ENDBRANCH  11  16
ENDBRANCH   8  11
ENDBRANCH   2   9
BRANCH   1  22
ATOM     22  N   UNL     1      35.751 -18.456 -21.917  0.00  0.00    -0.302 N 
ATOM     23  C   UNL     1      37.178 -18.618 -21.720  0.00  0.00    +0.112 C 
BRANCH  22  24
ATOM     24  C   UNL     1      34.859 -19.532 -21.528  0.00  0.00    +0.118 C 
BRANCH  24  29
ATOM     25  O   UNL     1      36.669 -21.346 -18.864  0.00  0.00    -0.427 OA
ATOM     26  N   UNL     1      35.057 -22.544 -17.572  0.00  0.00    -0.294 NA
ATOM     27  N   UNL     1      32.764 -22.248 -18.339  0.00  0.00    -0.317 NA
ATOM     28  N   UNL     1      33.268 -23.598 -16.495  0.00  0.00    -0.283 N 
ATOM     29  C   UNL     1      35.313 -20.364 -20.369  0.00  0.00    +0.031 C 
ATOM     30  C   UNL     1      34.513 -21.138 -19.494  0.00  0.00    +0.180 C 
ATOM     31  C   UNL     1      35.388 -21.724 -18.584  0.00  0.00    +0.281 C 
ATOM     32  C   UNL     1      36.612 -20.525 -19.945  0.00  0.00    +0.176 C 
ATOM     33  C   UNL     1      33.159 -21.429 -19.340  0.00  0.00    +0.181 C 
ATOM     34  C   UNL     1      33.724 -22.747 -17.527  0.00  0.00    +0.200 C 
ATOM     35  H   UNL     1      33.913 -23.998 -15.866  0.00  0.00    +0.156 HD
ATOM     36  H   UNL     1      32.307 -23.791 -16.404  0.00  0.00    +0.156 HD
ATOM     37  N   UNL     1      32.198 -20.885 -20.211  0.00  0.00    -0.335 N 
ATOM     38  H   UNL     1      31.245 -21.099 -20.089  0.00  0.00    +0.144 HD
ATOM     39  H   UNL     1      32.477 -20.288 -20.943  0.00  0.00    +0.144 HD
ENDBRANCH  24  29
ENDBRANCH  22  24
ENDBRANCH   1  22
TORSDOF 11
ENDMDL
MODEL 6
REMARK VINA RESULT:     -10.8      3.868     11.150
REMARK  Name = 158376
REMARK  11 active torsions:
REMARK  status: ('A' for Active; 'I' for Inactive)
REMARK    1  A    between atoms: C_1  and  N_22
REMARK    2  A    between atoms: C_2  and  C_9
REMARK    3  A    between atoms: N_8  and  CA_11
REMARK    4  A    between atoms: CA_11  and  C_13
REMARK    5  A    between atoms: CA_11  and  CB_16
REMARK    6  A    between atoms: C_13  and  O_14
REMARK    7  A    between atoms: CB_16  and  CG_17
REMARK    8  A    between atoms: CG_17  and  CD_19
REMARK    9  A    between atoms: CD_19  and  OE1_20
REMARK   10  A    between atoms: N_22  and  C_24
REMARK   11  A    between atoms: C_24  and  C_29
REMARK                            x       y       z     vdW  Elec       q    Type
REMARK                         _______ _______ _______ _____ _____    ______ ____
ROOT
ATOM      1  C   UNL     1      34.019 -23.172 -15.793  0.00  0.00    +0.048 C 
ATOM      2  C   UNL     1      35.151 -22.021 -18.069  0.00  0.00    +0.053 C 
ATOM      3  C   UNL     1      33.251 -23.004 -16.946  0.00  0.00    +0.015 C 
ATOM      4  C   UNL     1      35.353 -22.765 -15.779  0.00  0.00    +0.015 C 
ATOM      5  C   UNL     1      33.817 -22.429 -18.083  0.00  0.00    +0.006 C 
ATOM      6  C   UNL     1      35.919 -22.189 -16.917  0.00  0.00    +0.006 C 
ENDROOT
BRANCH   2   9
ATOM      7  O   UNL     1      36.866 -21.778 -19.649  0.00  0.00    -0.270 OA
ATOM      8  N   UNL     1      34.980 -20.458 -19.931  0.00  0.00    -0.293 N 
ATOM      9  C   ACE A   0      35.754 -21.409 -19.281  0.00  0.00    +0.246 C 
ATOM     10  H   UNL     1      34.099 -20.228 -19.557  0.00  0.00    +0.150 HD
BRANCH   8  11
ATOM     11  CA  UNL     1      35.415 -19.793 -21.133  0.00  0.00    +0.172 C 
BRANCH  11  13
ATOM     12  OXT UNL     1      35.794 -17.517 -20.355  0.00  0.00    -0.248 OA
ATOM     13  C   UNL     1      36.245 -18.595 -20.719  0.00  0.00    +0.332 C 
BRANCH  13  14
ATOM     14  O   UNL     1      37.577 -18.862 -20.760  0.00  0.00    -0.479 OA
ATOM     15  H   UNL     1      37.966 -19.185 -21.548  0.00  0.00    +0.295 HD
ENDBRANCH  13  14
ENDBRANCH  11  13
BRANCH  11  16
ATOM     16  CB  UNL     1      34.254 -19.448 -22.073  0.00  0.00    +0.043 C 
BRANCH  16  17
ATOM     17  CG  UNL     1      34.624 -19.263 -23.550  0.00  0.00    +0.112 C 
BRANCH  17  19
ATOM     18  OE2 UNL     1      33.650 -17.460 -24.869  0.00  0.00    -0.250 OA
ATOM     19  CD  UNL     1      34.470 -17.841 -24.044  0.00  0.00    +0.314 C 
BRANCH  19  20
ATOM     20  OE1 UNL     1      35.393 -17.015 -23.485  0.00  0.00    -0.480 OA
ATOM     21  HE1 UNL     1      35.119 -16.226 -23.060  0.00  0.00    +0.295 HD
ENDBRANCH  19  20
ENDBRANCH  17  19
ENDBRANCH  16  17
ENDBRANCH  11  16
ENDBRANCH   8  11
ENDBRANCH   2   9
BRANCH   1  22
ATOM     22  N   UNL     1      33.448 -23.754 -14.644  0.00  0.00    -0.302 N 
ATOM     23  C   UNL     1      32.213 -23.232 -14.092  0.00  0.00    +0.112 C 
BRANCH  22  24
ATOM     24  C   UNL     1      34.080 -24.893 -14.006  0.00  0.00    +0.118 C 
BRANCH  24  29
ATOM     25  O   UNL     1      36.981 -23.717 -12.041  0.00  0.00    -0.427 OA
ATOM     26  N   UNL     1      38.892 -24.969 -12.738  0.00  0.00    -0.294 NA
ATOM     27  N   UNL     1      38.414 -26.605 -14.479  0.00  0.00    -0.317 NA
ATOM     28  N   UNL     1      40.573 -26.339 -13.614  0.00  0.00    -0.283 N 
ATOM     29  C   UNL     1      35.410 -24.626 -13.372  0.00  0.00    +0.031 C 
ATOM     30  C   UNL     1      36.644 -25.259 -13.652  0.00  0.00    +0.180 C 
ATOM     31  C   UNL     1      37.583 -24.670 -12.810  0.00  0.00    +0.281 C 
ATOM     32  C   UNL     1      35.669 -23.698 -12.390  0.00  0.00    +0.176 C 
ATOM     33  C   UNL     1      37.106 -26.260 -14.505  0.00  0.00    +0.181 C 
ATOM     34  C   UNL     1      39.214 -25.948 -13.609  0.00  0.00    +0.200 C 
ATOM     35  H   UNL     1      41.213 -25.902 -13.006  0.00  0.00    +0.156 HD
ATOM     36  H   UNL     1      40.878 -27.047 -14.226  0.00  0.00    +0.156 HD
ATOM     37  N   UNL     1      36.234 -26.914 -15.393  0.00  0.00    -0.335 N 
ATOM     38  H   UNL     1      36.576 -27.618 -15.989  0.00  0.00    +0.144 HD
ATOM     39  H   UNL     1      35.281 -26.668 -15.419  0.00  0.00    +0.144 HD
ENDBRANCH  24  29
ENDBRANCH  22  24
ENDBRANCH   1  22
TORSDOF 11
ENDMDL
MODEL 7
REMARK VINA RESULT:     -10.3      2.379      4.138
REMARK  Name = 158376
REMARK  11 active torsions:
REMARK  status: ('A' for Active; 'I' for Inactive)
REMARK    1  A    between atoms: C_1  and  N_22
REMARK    2  A    between atoms: C_2  and  C_9
REMARK    3  A    between atoms: N_8  and  CA_11
REMARK    4  A    between atoms: CA_11  and  C_13
REMARK    5  A    between atoms: CA_11  and  CB_16
REMARK    6  A    between atoms: C_13  and  O_14
REMARK    7  A    between atoms: CB_16  and  CG_17
REMARK    8  A    between atoms: CG_17  and  CD_19
REMARK    9  A    between atoms: CD_19  and  OE1_20
REMARK   10  A    between atoms: N_22  and  C_24
REMARK   11  A    between atoms: C_24  and  C_29
REMARK                            x       y       z     vdW  Elec       q    Type
REMARK                         _______ _______ _______ _____ _____    ______ ____
ROOT
ATOM      1  C   UNL     1      34.599 -21.206 -19.320  0.00  0.00    +0.048 C 
ATOM      2  C   UNL     1      35.351 -22.570 -17.005  0.00  0.00    +0.053 C 
ATOM      3  C   UNL     1      35.923 -21.161 -18.884  0.00  0.00    +0.015 C 
ATOM      4  C   UNL     1      33.651 -21.933 -18.600  0.00  0.00    +0.015 C 
ATOM      5  C   UNL     1      36.299 -21.843 -17.727  0.00  0.00    +0.006 C 
ATOM      6  C   UNL     1      34.027 -22.614 -17.442  0.00  0.00    +0.006 C 
ENDROOT
BRANCH   2   9
ATOM      7  O   UNL     1      35.222 -24.374 -15.513  0.00  0.00    -0.270 OA
ATOM      8  N   UNL     1      36.736 -22.692 -15.004  0.00  0.00    -0.293 N 
ATOM      9  C   ACE A   0      35.751 -23.296 -15.773  0.00  0.00    +0.246 C 
ATOM     10  H   UNL     1      37.099 -21.825 -15.295  0.00  0.00    +0.150 HD
BRANCH   8  11
ATOM     11  CA  UNL     1      37.248 -23.285 -13.794  0.00  0.00    +0.172 C 
BRANCH  11  13
ATOM     12  OXT UNL     1      37.774 -25.663 -13.837  0.00  0.00    -0.248 OA
ATOM     13  C   UNL     1      38.036 -24.518 -14.186  0.00  0.00    +0.332 C 
BRANCH  13  14
ATOM     14  O   UNL     1      39.069 -24.218 -15.017  0.00  0.00    -0.479 OA
ATOM     15  H   UNL     1      38.952 -24.267 -15.944  0.00  0.00    +0.295 HD
ENDBRANCH  13  14
ENDBRANCH  11  13
BRANCH  11  16
ATOM     16  CB  UNL     1      36.152 -23.554 -12.756  0.00  0.00    +0.043 C 
BRANCH  16  17
ATOM     17  CG  UNL     1      36.592 -23.489 -11.289  0.00  0.00    +0.112 C 
BRANCH  17  19
ATOM     18  OE2 UNL     1      35.578 -24.619  -9.383  0.00  0.00    -0.250 OA
ATOM     19  CD  UNL     1      36.146 -24.677 -10.465  0.00  0.00    +0.314 C 
BRANCH  19  20
ATOM     20  OE1 UNL     1      36.490 -25.852 -11.055  0.00  0.00    -0.480 OA
ATOM     21  HE1 UNL     1      36.132 -26.078 -11.891  0.00  0.00    +0.295 HD
ENDBRANCH  19  20
ENDBRANCH  17  19
ENDBRANCH  16  17
ENDBRANCH  11  16
ENDBRANCH   8  11
ENDBRANCH   2   9
BRANCH   1  22
ATOM     22  N   UNL     1      34.219 -20.518 -20.491  0.00  0.00    -0.302 N 
ATOM     23  C   UNL     1      32.817 -20.335 -20.812  0.00  0.00    +0.112 C 
BRANCH  22  24
ATOM     24  C   UNL     1      35.225 -19.972 -21.381  0.00  0.00    +0.118 C 
BRANCH  24  29
ATOM     25  O   UNL     1      35.446 -16.293 -21.095  0.00  0.00    -0.427 OA
ATOM     26  N   UNL     1      34.663 -15.353 -23.146  0.00  0.00    -0.294 NA
ATOM     27  N   UNL     1      33.964 -17.013 -24.786  0.00  0.00    -0.317 NA
ATOM     28  N   UNL     1      33.850 -14.721 -25.247  0.00  0.00    -0.283 N 
ATOM     29  C   UNL     1      35.202 -18.484 -21.550  0.00  0.00    +0.031 C 
ATOM     30  C   UNL     1      34.775 -17.748 -22.681  0.00  0.00    +0.180 C 
ATOM     31  C   UNL     1      34.943 -16.405 -22.358  0.00  0.00    +0.281 C 
ATOM     32  C   UNL     1      35.597 -17.555 -20.616  0.00  0.00    +0.176 C 
ATOM     33  C   UNL     1      34.266 -18.031 -23.948  0.00  0.00    +0.181 C 
ATOM     34  C   UNL     1      34.179 -15.754 -24.339  0.00  0.00    +0.200 C 
ATOM     35  H   UNL     1      33.981 -13.779 -24.988  0.00  0.00    +0.156 HD
ATOM     36  H   UNL     1      33.492 -14.942 -26.136  0.00  0.00    +0.156 HD
ATOM     37  N   UNL     1      34.060 -19.358 -24.366  0.00  0.00    -0.335 N 
ATOM     38  H   UNL     1      33.700 -19.540 -25.264  0.00  0.00    +0.144 HD
ATOM     39  H   UNL     1      34.276 -20.104 -23.762  0.00  0.00    +0.144 HD
ENDBRANCH  24  29
ENDBRANCH  22  24
ENDBRANCH   1  22
TORSDOF 11
ENDMDL
MODEL 8
REMARK VINA RESULT:     -10.3      3.145     10.894
REMARK  Name = 158376
REMARK  11 active torsions:
REMARK  status: ('A' for Active; 'I' for Inactive)
REMARK    1  A    between atoms: C_1  and  N_22
REMARK    2  A    between atoms: C_2  and  C_9
REMARK    3  A    between atoms: N_8  and  CA_11
REMARK    4  A    between atoms: CA_11  and  C_13
REMARK    5  A    between atoms: CA_11  and  CB_16
REMARK    6  A    between atoms: C_13  and  O_14
REMARK    7  A    between atoms: CB_16  and  CG_17
REMARK    8  A    between atoms: CG_17  and  CD_19
REMARK    9  A    between atoms: CD_19  and  OE1_20
REMARK   10  A    between atoms: N_22  and  C_24
REMARK   11  A    between atoms: C_24  and  C_29
REMARK                            x       y       z     vdW  Elec       q    Type
REMARK                         _______ _______ _______ _____ _____    ______ ____
ROOT
ATOM      1  C   UNL     1      33.880 -22.541 -17.615  0.00  0.00    +0.048 C 
ATOM      2  C   UNL     1      35.260 -20.878 -19.380  0.00  0.00    +0.053 C 
ATOM      3  C   UNL     1      33.186 -21.850 -18.608  0.00  0.00    +0.015 C 
ATOM      4  C   UNL     1      35.263 -22.401 -17.504  0.00  0.00    +0.015 C 
ATOM      5  C   UNL     1      33.876 -21.019 -19.491  0.00  0.00    +0.006 C 
ATOM      6  C   UNL     1      35.953 -21.569 -18.386  0.00  0.00    +0.006 C 
ENDROOT
BRANCH   2   9
ATOM      7  O   UNL     1      37.193 -20.185 -20.512  0.00  0.00    -0.270 OA
ATOM      8  N   UNL     1      35.241 -19.007 -20.941  0.00  0.00    -0.293 N 
ATOM      9  C   ACE A   0      35.995 -19.993 -20.320  0.00  0.00    +0.246 C 
ATOM     10  H   UNL     1      34.285 -18.932 -20.721  0.00  0.00    +0.150 HD
BRANCH   8  11
ATOM     11  CA  UNL     1      35.804 -18.087 -21.897  0.00  0.00    +0.172 C 
BRANCH  11  13
ATOM     12  OXT UNL     1      34.919 -15.878 -22.413  0.00  0.00    -0.248 OA
ATOM     13  C   UNL     1      35.262 -16.709 -21.581  0.00  0.00    +0.332 C 
BRANCH  13  14
ATOM     14  O   UNL     1      35.157 -16.498 -20.243  0.00  0.00    -0.479 OA
ATOM     15  H   UNL     1      35.125 -15.625 -19.907  0.00  0.00    +0.295 HD
ENDBRANCH  13  14
ENDBRANCH  11  13
BRANCH  11  16
ATOM     16  CB  UNL     1      35.575 -18.526 -23.348  0.00  0.00    +0.043 C 
BRANCH  16  17
ATOM     17  CG  UNL     1      34.174 -19.061 -23.671  0.00  0.00    +0.112 C 
BRANCH  17  19
ATOM     18  OE2 UNL     1      32.329 -18.504 -25.162  0.00  0.00    -0.250 OA
ATOM     19  CD  UNL     1      33.423 -18.230 -24.688  0.00  0.00    +0.314 C 
BRANCH  19  20
ATOM     20  OE1 UNL     1      34.133 -17.132 -25.059  0.00  0.00    -0.480 OA
ATOM     21  HE1 UNL     1      35.048 -17.208 -25.246  0.00  0.00    +0.295 HD
ENDBRANCH  19  20
ENDBRANCH  17  19
ENDBRANCH  16  17
ENDBRANCH  11  16
ENDBRANCH   8  11
ENDBRANCH   2   9
BRANCH   1  22
ATOM     22  N   UNL     1      33.183 -23.382 -16.723  0.00  0.00    -0.302 N 
ATOM     23  C   UNL     1      31.761 -23.208 -16.509  0.00  0.00    +0.112 C 
BRANCH  22  24
ATOM     24  C   UNL     1      33.878 -24.443 -16.020  0.00  0.00    +0.118 C 
BRANCH  24  29
ATOM     25  O   UNL     1      33.108 -24.267 -12.409  0.00  0.00    -0.427 OA
ATOM     26  N   UNL     1      35.171 -24.017 -11.233  0.00  0.00    -0.294 NA
ATOM     27  N   UNL     1      37.127 -23.949 -12.682  0.00  0.00    -0.317 NA
ATOM     28  N   UNL     1      37.327 -23.778 -10.356  0.00  0.00    -0.283 N 
ATOM     29  C   UNL     1      33.870 -24.344 -14.526  0.00  0.00    +0.031 C 
ATOM     30  C   UNL     1      34.981 -24.193 -13.662  0.00  0.00    +0.180 C 
ATOM     31  C   UNL     1      34.466 -24.151 -12.370  0.00  0.00    +0.281 C 
ATOM     32  C   UNL     1      32.758 -24.383 -13.716  0.00  0.00    +0.176 C 
ATOM     33  C   UNL     1      36.364 -24.086 -13.791  0.00  0.00    +0.181 C 
ATOM     34  C   UNL     1      36.492 -23.924 -11.489  0.00  0.00    +0.200 C 
ATOM     35  H   UNL     1      36.932 -23.752  -9.455  0.00  0.00    +0.156 HD
ATOM     36  H   UNL     1      38.301 -23.704 -10.470  0.00  0.00    +0.156 HD
ATOM     37  N   UNL     1      36.979 -24.117 -15.056  0.00  0.00    -0.335 N 
ATOM     38  H   UNL     1      37.957 -24.041 -15.130  0.00  0.00    +0.144 HD
ATOM     39  H   UNL     1      36.431 -24.216 -15.868  0.00  0.00    +0.144 HD
ENDBRANCH  24  29
ENDBRANCH  22  24
ENDBRANCH   1  22
TORSDOF 11
ENDMDL
MODEL 9
REMARK VINA RESULT:     -10.1      3.697     11.057
REMARK  Name = 158376
REMARK  11 active torsions:
REMARK  status: ('A' for Active; 'I' for Inactive)
REMARK    1  A    between atoms: C_1  and  N_22
REMARK    2  A    between atoms: C_2  and  C_9
REMARK    3  A    between atoms: N_8  and  CA_11
REMARK    4  A    between atoms: CA_11  and  C_13
REMARK    5  A    between atoms: CA_11  and  CB_16
REMARK    6  A    between atoms: C_13  and  O_14
REMARK    7  A    between atoms: CB_16  and  CG_17
REMARK    8  A    between atoms: CG_17  and  CD_19
REMARK    9  A    between atoms: CD_19  and  OE1_20
REMARK   10  A    between atoms: N_22  and  C_24
REMARK   11  A    between atoms: C_24  and  C_29
REMARK                            x       y       z     vdW  Elec       q    Type
REMARK                         _______ _______ _______ _____ _____    ______ ____
ROOT
ATOM      1  C   UNL     1      33.895 -23.193 -15.945  0.00  0.00    +0.048 C 
ATOM      2  C   UNL     1      34.253 -21.819 -18.347  0.00  0.00    +0.053 C 
ATOM      3  C   UNL     1      35.164 -22.739 -16.306  0.00  0.00    +0.015 C 
ATOM      4  C   UNL     1      32.806 -22.960 -16.784  0.00  0.00    +0.015 C 
ATOM      5  C   UNL     1      35.342 -22.052 -17.507  0.00  0.00    +0.006 C 
ATOM      6  C   UNL     1      32.985 -22.273 -17.985  0.00  0.00    +0.006 C 
ENDROOT
BRANCH   2   9
ATOM      7  O   UNL     1      33.505 -21.004 -20.415  0.00  0.00    -0.270 OA
ATOM      8  N   UNL     1      35.694 -20.520 -19.821  0.00  0.00    -0.293 N 
ATOM      9  C   ACE A   0      34.443 -21.088 -19.626  0.00  0.00    +0.246 C 
ATOM     10  H   UNL     1      36.383 -20.643 -19.129  0.00  0.00    +0.150 HD
BRANCH   8  11
ATOM     11  CA  UNL     1      36.025 -19.759 -20.999  0.00  0.00    +0.172 C 
BRANCH  11  13
ATOM     12  OXT UNL     1      37.676 -18.697 -19.557  0.00  0.00    -0.248 OA
ATOM     13  C   UNL     1      37.258 -18.937 -20.683  0.00  0.00    +0.332 C 
BRANCH  13  14
ATOM     14  O   UNL     1      37.889 -18.516 -21.810  0.00  0.00    -0.479 OA
ATOM     15  H   UNL     1      38.428 -19.108 -22.295  0.00  0.00    +0.295 HD
ENDBRANCH  13  14
ENDBRANCH  11  13
BRANCH  11  16
ATOM     16  CB  UNL     1      34.845 -18.930 -21.519  0.00  0.00    +0.043 C 
BRANCH  16  17
ATOM     17  CG  UNL     1      34.612 -18.978 -23.034  0.00  0.00    +0.112 C 
BRANCH  17  19
ATOM     18  OE2 UNL     1      34.314 -17.317 -24.793  0.00  0.00    -0.250 OA
ATOM     19  CD  UNL     1      34.812 -17.646 -23.725  0.00  0.00    +0.314 C 
BRANCH  19  20
ATOM     20  OE1 UNL     1      35.662 -16.845 -23.030  0.00  0.00    -0.480 OA
ATOM     21  HE1 UNL     1      36.109 -16.146 -23.466  0.00  0.00    +0.295 HD
ENDBRANCH  19  20
ENDBRANCH  17  19
ENDBRANCH  16  17
ENDBRANCH  11  16
ENDBRANCH   8  11
ENDBRANCH   2   9
BRANCH   1  22
ATOM     22  N   UNL     1      33.714 -23.886 -14.731  0.00  0.00    -0.302 N 
ATOM     23  C   UNL     1      32.405 -24.383 -14.357  0.00  0.00    +0.112 C 
BRANCH  22  24
ATOM     24  C   UNL     1      34.838 -24.124 -13.846  0.00  0.00    +0.118 C 
BRANCH  24  29
ATOM     25  O   UNL     1      36.635 -26.981 -15.355  0.00  0.00    -0.427 OA
ATOM     26  N   UNL     1      38.875 -26.954 -14.527  0.00  0.00    -0.294 NA
ATOM     27  N   UNL     1      39.331 -25.127 -12.982  0.00  0.00    -0.317 NA
ATOM     28  N   UNL     1      40.986 -26.679 -13.557  0.00  0.00    -0.283 N 
ATOM     29  C   UNL     1      35.804 -25.178 -14.294  0.00  0.00    +0.031 C 
ATOM     30  C   UNL     1      37.160 -25.326 -13.915  0.00  0.00    +0.180 C 
ATOM     31  C   UNL     1      37.632 -26.447 -14.592  0.00  0.00    +0.281 C 
ATOM     32  C   UNL     1      35.535 -26.207 -15.166  0.00  0.00    +0.176 C 
ATOM     33  C   UNL     1      38.065 -24.664 -13.089  0.00  0.00    +0.181 C 
ATOM     34  C   UNL     1      39.653 -26.229 -13.698  0.00  0.00    +0.200 C 
ATOM     35  H   UNL     1      41.290 -27.476 -14.050  0.00  0.00    +0.156 HD
ATOM     36  H   UNL     1      41.609 -26.197 -12.968  0.00  0.00    +0.156 HD
ATOM     37  N   UNL     1      37.681 -23.522 -12.362  0.00  0.00    -0.335 N 
ATOM     38  H   UNL     1      38.333 -23.065 -11.783  0.00  0.00    +0.144 HD
ATOM     39  H   UNL     1      36.761 -23.178 -12.434  0.00  0.00    +0.144 HD
ENDBRANCH  24  29
ENDBRANCH  22  24
ENDBRANCH   1  22
TORSDOF 11
ENDMDL
