MODEL 1
REMARK VINA RESULT:     -12.1      0.000      0.000
REMARK  Name = 11987860
REMARK  5 active torsions:
REMARK  status: ('A' for Active; 'I' for Inactive)
REMARK    1  A    between atoms: N_2  and  C_19
REMARK    2  A    between atoms: C_3  and  C_11
REMARK    3  A    between atoms: N_9  and  O_17
REMARK    4  A    between atoms: C_19  and  C_20
REMARK    5  A    between atoms: C_23  and  C_26
REMARK                            x       y       z     vdW  Elec       q    Type
REMARK                         _______ _______ _______ _____ _____    ______ ____
ROOT
ATOM      1  O   UNL     1      34.063 -22.797 -14.621  0.00  0.00    -0.272 OA
ATOM      2  N   UNL     1      34.491 -23.549 -16.782  0.00  0.00    -0.298 N 
ATOM      3  C   UNL     1      34.773 -23.378 -15.437  0.00  0.00    +0.253 C 
ATOM      4  H   UNL     1      35.142 -24.036 -17.338  0.00  0.00    +0.150 HD
ENDROOT
BRANCH   3  11
ATOM      5  O   UNL     1      35.706 -24.649 -12.866  0.00  0.00    -0.327 OA
ATOM      6  O   UNL     1      35.829 -25.425 -15.052  0.00  0.00    -0.320 OA
ATOM      7  O   UNL     1      40.564 -24.778 -13.811  0.00  0.00    -0.250 OA
ATOM      8  N   UNL     1      38.325 -25.352 -13.592  0.00  0.00    -0.255 N 
ATOM      9  N   UNL     1      39.957 -26.972 -14.075  0.00  0.00    -0.181 N 
ATOM     10  C   UNL     1      36.461 -23.686 -13.613  0.00  0.00    +0.174 C 
ATOM     11  C   UNL     1      36.067 -24.015 -15.043  0.00  0.00    +0.222 C 
ATOM     12  C   UNL     1      35.888 -25.817 -13.672  0.00  0.00    +0.256 C 
ATOM     13  C   UNL     1      37.940 -23.959 -13.321  0.00  0.00    +0.128 C 
ATOM     14  C   UNL     1      37.282 -26.378 -13.388  0.00  0.00    +0.156 C 
ATOM     15  C   UNL     1      39.682 -25.644 -13.824  0.00  0.00    +0.326 C 
ATOM     16  H   UNL     1      39.256 -27.662 -14.085  0.00  0.00    +0.184 HD
BRANCH   9  17
ATOM     17  O   UNL     1      41.308 -27.270 -14.313  0.00  0.00    -0.294 OA
ATOM     18  H   UNL     1      41.521 -27.086 -15.242  0.00  0.00    +0.241 HD
ENDBRANCH   9  17
ENDBRANCH   3  11
BRANCH   2  19
ATOM     19  C   UNL     1      33.290 -23.046 -17.408  0.00  0.00    +0.116 C 
BRANCH  19  20
ATOM     20  C   UNL     1      33.631 -22.049 -18.479  0.00  0.00    -0.003 C 
ATOM     21  C   UNL     1      32.613 -21.335 -19.100  0.00  0.00    -0.003 C 
ATOM     22  C   UNL     1      34.958 -21.853 -18.837  0.00  0.00    -0.003 C 
ATOM     23  C   UNL     1      34.259 -20.206 -20.460  0.00  0.00    -0.000 C 
ATOM     24  C   UNL     1      32.930 -20.409 -20.094  0.00  0.00    -0.000 C 
ATOM     25  C   UNL     1      35.274 -20.928 -19.831  0.00  0.00    -0.000 C 
BRANCH  23  26
ATOM     26  C   UNL     1      34.588 -19.245 -21.491  0.00  0.00    -0.000 C 
ATOM     27  C   UNL     1      34.167 -19.459 -22.803  0.00  0.00    -0.000 C 
ATOM     28  C   UNL     1      35.325 -18.105 -21.172  0.00  0.00    -0.000 C 
ATOM     29  C   UNL     1      34.483 -18.532 -23.797  0.00  0.00    +0.000 C 
ATOM     30  C   UNL     1      35.641 -17.178 -22.165  0.00  0.00    +0.000 C 
ATOM     31  C   UNL     1      35.221 -17.392 -23.478  0.00  0.00    +0.000 C 
ENDBRANCH  23  26
ENDBRANCH  19  20
ENDBRANCH   2  19
TORSDOF 5
ENDMDL
MODEL 2
REMARK VINA RESULT:     -10.5      8.583     13.082
REMARK  Name = 11987860
REMARK  5 active torsions:
REMARK  status: ('A' for Active; 'I' for Inactive)
REMARK    1  A    between atoms: N_2  and  C_19
REMARK    2  A    between atoms: C_3  and  C_11
REMARK    3  A    between atoms: N_9  and  O_17
REMARK    4  A    between atoms: C_19  and  C_20
REMARK    5  A    between atoms: C_23  and  C_26
REMARK                            x       y       z     vdW  Elec       q    Type
REMARK                         _______ _______ _______ _____ _____    ______ ____
ROOT
ATOM      1  O   UNL     1      33.470 -14.741 -26.082  0.00  0.00    -0.272 OA
ATOM      2  N   UNL     1      34.302 -15.354 -23.996  0.00  0.00    -0.298 N 
ATOM      3  C   UNL     1      33.622 -14.535 -24.881  0.00  0.00    +0.253 C 
ATOM      4  H   UNL     1      34.356 -15.081 -23.051  0.00  0.00    +0.150 HD
ENDROOT
BRANCH   3  11
ATOM      5  O   UNL     1      34.724 -12.646 -22.803  0.00  0.00    -0.327 OA
ATOM      6  O   UNL     1      33.664 -12.200 -24.820  0.00  0.00    -0.320 OA
ATOM      7  O   UNL     1      30.493 -10.451 -21.464  0.00  0.00    -0.250 OA
ATOM      8  N   UNL     1      32.522 -10.934 -22.484  0.00  0.00    -0.255 N 
ATOM      9  N   UNL     1      31.505  -8.831 -22.729  0.00  0.00    -0.181 N 
ATOM     10  C   UNL     1      33.425 -13.252 -22.739  0.00  0.00    +0.174 C 
ATOM     11  C   UNL     1      33.042 -13.333 -24.207  0.00  0.00    +0.222 C 
ATOM     12  C   UNL     1      34.504 -11.643 -23.799  0.00  0.00    +0.256 C 
ATOM     13  C   UNL     1      32.531 -12.300 -21.938  0.00  0.00    +0.128 C 
ATOM     14  C   UNL     1      33.762 -10.478 -23.144  0.00  0.00    +0.156 C 
ATOM     15  C   UNL     1      31.438 -10.091 -22.174  0.00  0.00    +0.326 C 
ATOM     16  H   UNL     1      32.257  -8.543 -23.294  0.00  0.00    +0.184 HD
BRANCH   9  17
ATOM     17  O   UNL     1      30.424  -7.986 -22.429  0.00  0.00    -0.294 OA
ATOM     18  H   UNL     1      30.305  -7.942 -21.467  0.00  0.00    +0.241 HD
ENDBRANCH   9  17
ENDBRANCH   3  11
BRANCH   2  19
ATOM     19  C   UNL     1      34.936 -16.591 -24.392  0.00  0.00    +0.116 C 
BRANCH  19  20
ATOM     20  C   UNL     1      34.863 -17.601 -23.280  0.00  0.00    -0.003 C 
ATOM     21  C   UNL     1      35.417 -17.297 -22.042  0.00  0.00    -0.003 C 
ATOM     22  C   UNL     1      34.244 -18.823 -23.503  0.00  0.00    -0.003 C 
ATOM     23  C   UNL     1      34.730 -19.464 -21.225  0.00  0.00    -0.000 C 
ATOM     24  C   UNL     1      35.350 -18.234 -21.011  0.00  0.00    -0.000 C 
ATOM     25  C   UNL     1      34.177 -19.759 -22.472  0.00  0.00    -0.000 C 
BRANCH  23  26
ATOM     26  C   UNL     1      34.660 -20.436 -20.155  0.00  0.00    -0.000 C 
ATOM     27  C   UNL     1      33.419 -20.877 -19.694  0.00  0.00    -0.000 C 
ATOM     28  C   UNL     1      35.832 -20.932 -19.586  0.00  0.00    -0.000 C 
ATOM     29  C   UNL     1      33.351 -21.814 -18.663  0.00  0.00    +0.000 C 
ATOM     30  C   UNL     1      35.764 -21.869 -18.555  0.00  0.00    +0.000 C 
ATOM     31  C   UNL     1      34.524 -22.310 -18.093  0.00  0.00    +0.000 C 
ENDBRANCH  23  26
ENDBRANCH  19  20
ENDBRANCH   2  19
TORSDOF 5
ENDMDL
MODEL 3
REMARK VINA RESULT:     -10.4      3.948      6.425
REMARK  Name = 11987860
REMARK  5 active torsions:
REMARK  status: ('A' for Active; 'I' for Inactive)
REMARK    1  A    between atoms: N_2  and  C_19
REMARK    2  A    between atoms: C_3  and  C_11
REMARK    3  A    between atoms: N_9  and  O_17
REMARK    4  A    between atoms: C_19  and  C_20
REMARK    5  A    between atoms: C_23  and  C_26
REMARK                            x       y       z     vdW  Elec       q    Type
REMARK                         _______ _______ _______ _____ _____    ______ ____
ROOT
ATOM      1  O   UNL     1      34.296 -24.043 -16.116  0.00  0.00    -0.272 OA
ATOM      2  N   UNL     1      33.729 -22.467 -17.733  0.00  0.00    -0.298 N 
ATOM      3  C   UNL     1      33.466 -23.355 -16.704  0.00  0.00    +0.253 C 
ATOM      4  H   UNL     1      32.976 -21.970 -18.127  0.00  0.00    +0.150 HD
ENDROOT
BRANCH   3  11
ATOM      5  O   UNL     1      32.033 -24.099 -14.156  0.00  0.00    -0.327 OA
ATOM      6  O   UNL     1      31.794 -22.234 -15.519  0.00  0.00    -0.320 OA
ATOM      7  O   UNL     1      27.447 -24.532 -15.971  0.00  0.00    -0.250 OA
ATOM      8  N   UNL     1      29.372 -23.714 -14.963  0.00  0.00    -0.255 N 
ATOM      9  N   UNL     1      27.340 -22.540 -14.844  0.00  0.00    -0.181 N 
ATOM     10  C   UNL     1      31.667 -24.573 -15.459  0.00  0.00    +0.174 C 
ATOM     11  C   UNL     1      32.016 -23.385 -16.339  0.00  0.00    +0.222 C 
ATOM     12  C   UNL     1      31.535 -22.759 -14.209  0.00  0.00    +0.256 C 
ATOM     13  C   UNL     1      30.164 -24.866 -15.417  0.00  0.00    +0.128 C 
ATOM     14  C   UNL     1      30.022 -22.805 -13.996  0.00  0.00    +0.156 C 
ATOM     15  C   UNL     1      28.007 -23.655 -15.304  0.00  0.00    +0.326 C 
ATOM     16  H   UNL     1      27.785 -21.842 -14.313  0.00  0.00    +0.184 HD
BRANCH   9  17
ATOM     17  O   UNL     1      25.980 -22.472 -15.185  0.00  0.00    -0.294 OA
ATOM     18  H   UNL     1      25.727 -23.275 -15.669  0.00  0.00    +0.241 HD
ENDBRANCH   9  17
ENDBRANCH   3  11
BRANCH   2  19
ATOM     19  C   UNL     1      35.056 -22.237 -18.257  0.00  0.00    +0.116 C 
BRANCH  19  20
ATOM     20  C   UNL     1      35.020 -21.199 -19.345  0.00  0.00    -0.003 C 
ATOM     21  C   UNL     1      33.801 -20.831 -19.900  0.00  0.00    -0.003 C 
ATOM     22  C   UNL     1      36.205 -20.622 -19.782  0.00  0.00    -0.003 C 
ATOM     23  C   UNL     1      34.952 -19.284 -21.355  0.00  0.00    -0.000 C 
ATOM     24  C   UNL     1      33.768 -19.869 -20.910  0.00  0.00    -0.000 C 
ATOM     25  C   UNL     1      36.171 -19.660 -20.791  0.00  0.00    -0.000 C 
BRANCH  23  26
ATOM     26  C   UNL     1      34.918 -18.284 -22.401  0.00  0.00    -0.000 C 
ATOM     27  C   UNL     1      35.333 -16.980 -22.134  0.00  0.00    -0.000 C 
ATOM     28  C   UNL     1      34.472 -18.627 -23.677  0.00  0.00    -0.000 C 
ATOM     29  C   UNL     1      35.301 -16.017 -23.143  0.00  0.00    +0.000 C 
ATOM     30  C   UNL     1      34.440 -17.665 -24.686  0.00  0.00    +0.000 C 
ATOM     31  C   UNL     1      34.854 -16.359 -24.419  0.00  0.00    +0.000 C 
ENDBRANCH  23  26
ENDBRANCH  19  20
ENDBRANCH   2  19
TORSDOF 5
ENDMDL
MODEL 4
REMARK VINA RESULT:     -10.2      3.010      4.841
REMARK  Name = 11987860
REMARK  5 active torsions:
REMARK  status: ('A' for Active; 'I' for Inactive)
REMARK    1  A    between atoms: N_2  and  C_19
REMARK    2  A    between atoms: C_3  and  C_11
REMARK    3  A    between atoms: N_9  and  O_17
REMARK    4  A    between atoms: C_19  and  C_20
REMARK    5  A    between atoms: C_23  and  C_26
REMARK                            x       y       z     vdW  Elec       q    Type
REMARK                         _______ _______ _______ _____ _____    ______ ____
ROOT
ATOM      1  O   UNL     1      37.194 -21.791 -15.420  0.00  0.00    -0.272 OA
ATOM      2  N   UNL     1      36.017 -22.002 -17.417  0.00  0.00    -0.298 N 
ATOM      3  C   UNL     1      36.169 -22.057 -16.042  0.00  0.00    +0.253 C 
ATOM      4  H   UNL     1      35.142 -22.239 -17.801  0.00  0.00    +0.150 HD
ENDROOT
BRANCH   3  11
ATOM      5  O   UNL     1      34.587 -24.624 -16.057  0.00  0.00    -0.327 OA
ATOM      6  O   UNL     1      35.309 -23.321 -14.276  0.00  0.00    -0.320 OA
ATOM      7  O   UNL     1      30.393 -22.934 -14.041  0.00  0.00    -0.250 OA
ATOM      8  N   UNL     1      32.478 -23.907 -14.348  0.00  0.00    -0.255 N 
ATOM      9  N   UNL     1      31.322 -24.118 -12.313  0.00  0.00    -0.181 N 
ATOM     10  C   UNL     1      34.015 -23.320 -16.231  0.00  0.00    +0.174 C 
ATOM     11  C   UNL     1      34.909 -22.464 -15.349  0.00  0.00    +0.222 C 
ATOM     12  C   UNL     1      34.836 -24.623 -14.648  0.00  0.00    +0.256 C 
ATOM     13  C   UNL     1      32.572 -23.398 -15.724  0.00  0.00    +0.128 C 
ATOM     14  C   UNL     1      33.510 -24.879 -13.931  0.00  0.00    +0.156 C 
ATOM     15  C   UNL     1      31.327 -23.608 -13.594  0.00  0.00    +0.326 C 
ATOM     16  H   UNL     1      32.066 -24.655 -11.957  0.00  0.00    +0.184 HD
BRANCH   9  17
ATOM     17  O   UNL     1      30.180 -23.819 -11.554  0.00  0.00    -0.294 OA
ATOM     18  H   UNL     1      30.445 -23.591 -10.648  0.00  0.00    +0.241 HD
ENDBRANCH   9  17
ENDBRANCH   3  11
BRANCH   2  19
ATOM     19  C   UNL     1      37.081 -21.613 -18.315  0.00  0.00    +0.116 C 
BRANCH  19  20
ATOM     20  C   UNL     1      36.551 -20.725 -19.407  0.00  0.00    -0.003 C 
ATOM     21  C   UNL     1      35.252 -20.904 -19.866  0.00  0.00    -0.003 C 
ATOM     22  C   UNL     1      37.366 -19.737 -19.943  0.00  0.00    -0.003 C 
ATOM     23  C   UNL     1      35.571 -19.086 -21.424  0.00  0.00    -0.000 C 
ATOM     24  C   UNL     1      34.761 -20.081 -20.879  0.00  0.00    -0.000 C 
ATOM     25  C   UNL     1      36.874 -18.914 -20.956  0.00  0.00    -0.000 C 
BRANCH  23  26
ATOM     26  C   UNL     1      35.062 -18.231 -22.474  0.00  0.00    -0.000 C 
ATOM     27  C   UNL     1      35.270 -16.853 -22.414  0.00  0.00    -0.000 C 
ATOM     28  C   UNL     1      34.364 -18.785 -23.547  0.00  0.00    -0.000 C 
ATOM     29  C   UNL     1      34.780 -16.029 -23.427  0.00  0.00    +0.000 C 
ATOM     30  C   UNL     1      33.873 -17.961 -24.560  0.00  0.00    +0.000 C 
ATOM     31  C   UNL     1      34.081 -16.583 -24.500  0.00  0.00    +0.000 C 
ENDBRANCH  23  26
ENDBRANCH  19  20
ENDBRANCH   2  19
TORSDOF 5
ENDMDL
MODEL 5
REMARK VINA RESULT:     -10.1      8.390     12.558
REMARK  Name = 11987860
REMARK  5 active torsions:
REMARK  status: ('A' for Active; 'I' for Inactive)
REMARK    1  A    between atoms: N_2  and  C_19
REMARK    2  A    between atoms: C_3  and  C_11
REMARK    3  A    between atoms: N_9  and  O_17
REMARK    4  A    between atoms: C_19  and  C_20
REMARK    5  A    between atoms: C_23  and  C_26
REMARK                            x       y       z     vdW  Elec       q    Type
REMARK                         _______ _______ _______ _____ _____    ______ ____
ROOT
ATOM      1  O   UNL     1      33.074 -13.979 -24.845  0.00  0.00    -0.272 OA
ATOM      2  N   UNL     1      34.598 -14.601 -23.199  0.00  0.00    -0.298 N 
ATOM      3  C   UNL     1      33.628 -13.792 -23.765  0.00  0.00    +0.253 C 
ATOM      4  H   UNL     1      34.968 -14.346 -22.323  0.00  0.00    +0.150 HD
ENDROOT
BRANCH   3  11
ATOM      5  O   UNL     1      31.554 -13.433 -21.604  0.00  0.00    -0.327 OA
ATOM      6  O   UNL     1      33.822 -12.930 -21.602  0.00  0.00    -0.320 OA
ATOM      7  O   UNL     1      31.679  -8.495 -21.257  0.00  0.00    -0.250 OA
ATOM      8  N   UNL     1      32.044 -10.760 -20.898  0.00  0.00    -0.255 N 
ATOM      9  N   UNL     1      32.794  -9.146 -19.363  0.00  0.00    -0.181 N 
ATOM     10  C   UNL     1      31.780 -12.502 -22.672  0.00  0.00    +0.174 C 
ATOM     11  C   UNL     1      33.279 -12.630 -22.891  0.00  0.00    +0.222 C 
ATOM     12  C   UNL     1      32.679 -13.156 -20.764  0.00  0.00    +0.256 C 
ATOM     13  C   UNL     1      31.367 -11.122 -22.152  0.00  0.00    +0.128 C 
ATOM     14  C   UNL     1      32.388 -11.872 -19.987  0.00  0.00    +0.156 C 
ATOM     15  C   UNL     1      32.140  -9.399 -20.551  0.00  0.00    +0.326 C 
ATOM     16  H   UNL     1      33.161  -9.865 -18.801  0.00  0.00    +0.184 HD
BRANCH   9  17
ATOM     17  O   UNL     1      32.898  -7.791 -19.014  0.00  0.00    -0.294 OA
ATOM     18  H   UNL     1      32.676  -7.240 -19.782  0.00  0.00    +0.241 HD
ENDBRANCH   9  17
ENDBRANCH   3  11
BRANCH   2  19
ATOM     19  C   UNL     1      35.094 -15.802 -23.833  0.00  0.00    +0.116 C 
BRANCH  19  20
ATOM     20  C   UNL     1      35.032 -16.964 -22.882  0.00  0.00    -0.003 C 
ATOM     21  C   UNL     1      34.586 -18.199 -23.337  0.00  0.00    -0.003 C 
ATOM     22  C   UNL     1      35.421 -16.791 -21.560  0.00  0.00    -0.003 C 
ATOM     23  C   UNL     1      34.918 -19.113 -21.126  0.00  0.00    -0.000 C 
ATOM     24  C   UNL     1      34.529 -19.278 -22.455  0.00  0.00    -0.000 C 
ATOM     25  C   UNL     1      35.364 -17.869 -20.678  0.00  0.00    -0.000 C 
BRANCH  23  26
ATOM     26  C   UNL     1      34.859 -20.233 -20.210  0.00  0.00    -0.000 C 
ATOM     27  C   UNL     1      33.627 -20.780 -19.856  0.00  0.00    -0.000 C 
ATOM     28  C   UNL     1      36.036 -20.764 -19.683  0.00  0.00    -0.000 C 
ATOM     29  C   UNL     1      33.570 -21.860 -18.975  0.00  0.00    +0.000 C 
ATOM     30  C   UNL     1      35.980 -21.843 -18.802  0.00  0.00    +0.000 C 
ATOM     31  C   UNL     1      34.747 -22.391 -18.446  0.00  0.00    +0.000 C 
ENDBRANCH  23  26
ENDBRANCH  19  20
ENDBRANCH   2  19
TORSDOF 5
ENDMDL
MODEL 6
REMARK VINA RESULT:     -10.1      9.765     14.049
REMARK  Name = 11987860
REMARK  5 active torsions:
REMARK  status: ('A' for Active; 'I' for Inactive)
REMARK    1  A    between atoms: N_2  and  C_19
REMARK    2  A    between atoms: C_3  and  C_11
REMARK    3  A    between atoms: N_9  and  O_17
REMARK    4  A    between atoms: C_19  and  C_20
REMARK    5  A    between atoms: C_23  and  C_26
REMARK                            x       y       z     vdW  Elec       q    Type
REMARK                         _______ _______ _______ _____ _____    ______ ____
ROOT
ATOM      1  O   UNL     1      34.149 -11.354 -25.651  0.00  0.00    -0.272 OA
ATOM      2  N   UNL     1      33.487 -12.850 -23.994  0.00  0.00    -0.298 N 
ATOM      3  C   UNL     1      33.775 -11.597 -24.506  0.00  0.00    +0.253 C 
ATOM      4  H   UNL     1      33.194 -12.917 -23.056  0.00  0.00    +0.150 HD
ENDROOT
BRANCH   3  11
ATOM      5  O   UNL     1      31.285 -10.539 -23.173  0.00  0.00    -0.327 OA
ATOM      6  O   UNL     1      33.323 -11.170 -22.254  0.00  0.00    -0.320 OA
ATOM      7  O   UNL     1      33.135  -6.317 -21.367  0.00  0.00    -0.250 OA
ATOM      8  N   UNL     1      32.405  -8.509 -21.589  0.00  0.00    -0.255 N 
ATOM      9  N   UNL     1      32.967  -7.618 -19.489  0.00  0.00    -0.181 N 
ATOM     10  C   UNL     1      32.292  -9.715 -23.776  0.00  0.00    +0.174 C 
ATOM     11  C   UNL     1      33.558 -10.511 -23.501  0.00  0.00    +0.222 C 
ATOM     12  C   UNL     1      31.941 -10.919 -21.959  0.00  0.00    +0.256 C 
ATOM     13  C   UNL     1      32.260  -8.369 -23.046  0.00  0.00    +0.128 C 
ATOM     14  C   UNL     1      31.860  -9.743 -20.986  0.00  0.00    +0.156 C 
ATOM     15  C   UNL     1      32.855  -7.401 -20.846  0.00  0.00    +0.326 C 
ATOM     16  H   UNL     1      32.744  -8.482 -19.073  0.00  0.00    +0.184 HD
BRANCH   9  17
ATOM     17  O   UNL     1      33.421  -6.520 -18.742  0.00  0.00    -0.294 OA
ATOM     18  H   UNL     1      32.762  -6.294 -18.066  0.00  0.00    +0.241 HD
ENDBRANCH   9  17
ENDBRANCH   3  11
BRANCH   2  19
ATOM     19  C   UNL     1      33.595 -14.064 -24.770  0.00  0.00    +0.116 C 
BRANCH  19  20
ATOM     20  C   UNL     1      34.099 -15.193 -23.915  0.00  0.00    -0.003 C 
ATOM     21  C   UNL     1      34.438 -14.950 -22.589  0.00  0.00    -0.003 C 
ATOM     22  C   UNL     1      34.221 -16.465 -24.460  0.00  0.00    -0.003 C 
ATOM     23  C   UNL     1      35.032 -17.277 -22.334  0.00  0.00    -0.000 C 
ATOM     24  C   UNL     1      34.906 -15.998 -21.796  0.00  0.00    -0.000 C 
ATOM     25  C   UNL     1      34.690 -17.511 -23.666  0.00  0.00    -0.000 C 
BRANCH  23  26
ATOM     26  C   UNL     1      35.517 -18.365 -21.511  0.00  0.00    -0.000 C 
ATOM     27  C   UNL     1      34.662 -19.410 -21.162  0.00  0.00    -0.000 C 
ATOM     28  C   UNL     1      36.839 -18.367 -21.068  0.00  0.00    -0.000 C 
ATOM     29  C   UNL     1      35.130 -20.459 -20.370  0.00  0.00    +0.000 C 
ATOM     30  C   UNL     1      37.307 -19.415 -20.275  0.00  0.00    +0.000 C 
ATOM     31  C   UNL     1      36.453 -20.461 -19.925  0.00  0.00    +0.000 C 
ENDBRANCH  23  26
ENDBRANCH  19  20
ENDBRANCH   2  19
TORSDOF 5
ENDMDL
MODEL 7
REMARK VINA RESULT:     -10.1     10.464     14.474
REMARK  Name = 11987860
REMARK  5 active torsions:
REMARK  status: ('A' for Active; 'I' for Inactive)
REMARK    1  A    between atoms: N_2  and  C_19
REMARK    2  A    between atoms: C_3  and  C_11
REMARK    3  A    between atoms: N_9  and  O_17
REMARK    4  A    between atoms: C_19  and  C_20
REMARK    5  A    between atoms: C_23  and  C_26
REMARK                            x       y       z     vdW  Elec       q    Type
REMARK                         _______ _______ _______ _____ _____    ______ ____
ROOT
ATOM      1  O   UNL     1      31.507 -11.969 -20.315  0.00  0.00    -0.272 OA
ATOM      2  N   UNL     1      32.085 -10.705 -22.182  0.00  0.00    -0.298 N 
ATOM      3  C   UNL     1      31.987 -11.870 -21.441  0.00  0.00    +0.253 C 
ATOM      4  H   UNL     1      32.491 -10.752 -23.078  0.00  0.00    +0.150 HD
ENDROOT
BRANCH   3  11
ATOM      5  O   UNL     1      34.777 -12.966 -21.770  0.00  0.00    -0.327 OA
ATOM      6  O   UNL     1      32.805 -14.042 -21.183  0.00  0.00    -0.320 OA
ATOM      7  O   UNL     1      33.932 -16.050 -25.550  0.00  0.00    -0.250 OA
ATOM      8  N   UNL     1      34.243 -15.171 -23.424  0.00  0.00    -0.255 N 
ATOM      9  N   UNL     1      34.129 -17.491 -23.780  0.00  0.00    -0.181 N 
ATOM     10  C   UNL     1      33.853 -12.769 -22.849  0.00  0.00    +0.174 C 
ATOM     11  C   UNL     1      32.519 -13.057 -22.178  0.00  0.00    +0.222 C 
ATOM     12  C   UNL     1      34.237 -14.144 -21.164  0.00  0.00    +0.256 C 
ATOM     13  C   UNL     1      34.211 -13.791 -23.932  0.00  0.00    +0.128 C 
ATOM     14  C   UNL     1      34.647 -15.347 -22.014  0.00  0.00    +0.156 C 
ATOM     15  C   UNL     1      34.092 -16.231 -24.338  0.00  0.00    +0.326 C 
ATOM     16  H   UNL     1      34.256 -17.636 -22.815  0.00  0.00    +0.184 HD
BRANCH   9  17
ATOM     17  O   UNL     1      33.973 -18.552 -24.684  0.00  0.00    -0.294 OA
ATOM     18  H   UNL     1      33.198 -18.388 -25.246  0.00  0.00    +0.241 HD
ENDBRANCH   9  17
ENDBRANCH   3  11
BRANCH   2  19
ATOM     19  C   UNL     1      31.621  -9.422 -21.704  0.00  0.00    +0.116 C 
BRANCH  19  20
ATOM     20  C   UNL     1      32.183  -8.311 -22.546  0.00  0.00    -0.003 C 
ATOM     21  C   UNL     1      33.556  -8.096 -22.569  0.00  0.00    -0.003 C 
ATOM     22  C   UNL     1      31.324  -7.512 -23.289  0.00  0.00    -0.003 C 
ATOM     23  C   UNL     1      33.222  -6.257 -24.100  0.00  0.00    -0.000 C 
ATOM     24  C   UNL     1      34.076  -7.064 -23.350  0.00  0.00    -0.000 C 
ATOM     25  C   UNL     1      31.846  -6.481 -24.069  0.00  0.00    -0.000 C 
BRANCH  23  26
ATOM     26  C   UNL     1      33.763  -5.187 -24.911  0.00  0.00    -0.000 C 
ATOM     27  C   UNL     1      34.983  -5.357 -25.566  0.00  0.00    -0.000 C 
ATOM     28  C   UNL     1      33.064  -3.987 -25.038  0.00  0.00    -0.000 C 
ATOM     29  C   UNL     1      35.503  -4.326 -26.348  0.00  0.00    +0.000 C 
ATOM     30  C   UNL     1      33.584  -2.957 -25.820  0.00  0.00    +0.000 C 
ATOM     31  C   UNL     1      34.804  -3.125 -26.475  0.00  0.00    +0.000 C 
ENDBRANCH  23  26
ENDBRANCH  19  20
ENDBRANCH   2  19
TORSDOF 5
ENDMDL
MODEL 8
REMARK VINA RESULT:     -10.0     12.768     17.326
REMARK  Name = 11987860
REMARK  5 active torsions:
REMARK  status: ('A' for Active; 'I' for Inactive)
REMARK    1  A    between atoms: N_2  and  C_19
REMARK    2  A    between atoms: C_3  and  C_11
REMARK    3  A    between atoms: N_9  and  O_17
REMARK    4  A    between atoms: C_19  and  C_20
REMARK    5  A    between atoms: C_23  and  C_26
REMARK                            x       y       z     vdW  Elec       q    Type
REMARK                         _______ _______ _______ _____ _____    ______ ____
ROOT
ATOM      1  O   UNL     1      33.071  -7.562 -20.015  0.00  0.00    -0.272 OA
ATOM      2  N   UNL     1      31.645  -8.771 -21.402  0.00  0.00    -0.298 N 
ATOM      3  C   UNL     1      32.446  -7.694 -21.064  0.00  0.00    +0.253 C 
ATOM      4  H   UNL     1      31.193  -8.762 -22.277  0.00  0.00    +0.150 HD
ENDROOT
BRANCH   3  11
ATOM      5  O   UNL     1      30.397  -5.761 -22.142  0.00  0.00    -0.327 OA
ATOM      6  O   UNL     1      32.598  -5.403 -21.494  0.00  0.00    -0.320 OA
ATOM      7  O   UNL     1      32.688  -4.505 -26.348  0.00  0.00    -0.250 OA
ATOM      8  N   UNL     1      31.907  -4.526 -24.162  0.00  0.00    -0.255 N 
ATOM      9  N   UNL     1      33.003  -2.645 -25.046  0.00  0.00    -0.181 N 
ATOM     10  C   UNL     1      31.220  -6.607 -22.958  0.00  0.00    +0.174 C 
ATOM     11  C   UNL     1      32.506  -6.669 -22.152  0.00  0.00    +0.222 C 
ATOM     12  C   UNL     1      31.342  -4.759 -21.756  0.00  0.00    +0.256 C 
ATOM     13  C   UNL     1      31.390  -5.895 -24.304  0.00  0.00    +0.128 C 
ATOM     14  C   UNL     1      31.527  -3.800 -22.932  0.00  0.00    +0.156 C 
ATOM     15  C   UNL     1      32.544  -3.927 -25.265  0.00  0.00    +0.326 C 
ATOM     16  H   UNL     1      32.888  -2.185 -24.184  0.00  0.00    +0.184 HD
BRANCH   9  17
ATOM     17  O   UNL     1      33.644  -2.044 -26.140  0.00  0.00    -0.294 OA
ATOM     18  H   UNL     1      34.520  -1.727 -25.867  0.00  0.00    +0.241 HD
ENDBRANCH   9  17
ENDBRANCH   3  11
BRANCH   2  19
ATOM     19  C   UNL     1      31.439  -9.906 -20.532  0.00  0.00    +0.116 C 
BRANCH  19  20
ATOM     20  C   UNL     1      32.070 -11.139 -21.116  0.00  0.00    -0.003 C 
ATOM     21  C   UNL     1      32.151 -12.296 -20.351  0.00  0.00    -0.003 C 
ATOM     22  C   UNL     1      32.566 -11.108 -22.413  0.00  0.00    -0.003 C 
ATOM     23  C   UNL     1      33.237 -13.418 -22.194  0.00  0.00    -0.000 C 
ATOM     24  C   UNL     1      32.737 -13.440 -20.893  0.00  0.00    -0.000 C 
ATOM     25  C   UNL     1      33.151 -12.251 -22.954  0.00  0.00    -0.000 C 
BRANCH  23  26
ATOM     26  C   UNL     1      33.844 -14.605 -22.757  0.00  0.00    -0.000 C 
ATOM     27  C   UNL     1      34.640 -15.426 -21.958  0.00  0.00    -0.000 C 
ATOM     28  C   UNL     1      33.632 -14.928 -24.097  0.00  0.00    -0.000 C 
ATOM     29  C   UNL     1      35.225 -16.571 -22.501  0.00  0.00    +0.000 C 
ATOM     30  C   UNL     1      34.217 -16.072 -24.639  0.00  0.00    +0.000 C 
ATOM     31  C   UNL     1      35.013 -16.894 -23.842  0.00  0.00    +0.000 C 
ENDBRANCH  23  26
ENDBRANCH  19  20
ENDBRANCH   2  19
TORSDOF 5
ENDMDL
MODEL 9
REMARK VINA RESULT:     -10.0      2.868      5.150
REMARK  Name = 11987860
REMARK  5 active torsions:
REMARK  status: ('A' for Active; 'I' for Inactive)
REMARK    1  A    between atoms: N_2  and  C_19
REMARK    2  A    between atoms: C_3  and  C_11
REMARK    3  A    between atoms: N_9  and  O_17
REMARK    4  A    between atoms: C_19  and  C_20
REMARK    5  A    between atoms: C_23  and  C_26
REMARK                            x       y       z     vdW  Elec       q    Type
REMARK                         _______ _______ _______ _____ _____    ______ ____
ROOT
ATOM      1  O   UNL     1      36.614 -23.958 -15.362  0.00  0.00    -0.272 OA
ATOM      2  N   UNL     1      35.502 -22.614 -16.904  0.00  0.00    -0.298 N 
ATOM      3  C   UNL     1      35.581 -23.529 -15.868  0.00  0.00    +0.253 C 
ATOM      4  H   UNL     1      34.611 -22.345 -17.225  0.00  0.00    +0.150 HD
ENDROOT
BRANCH   3  11
ATOM      5  O   UNL     1      32.903 -22.140 -15.868  0.00  0.00    -0.327 OA
ATOM      6  O   UNL     1      33.478 -24.286 -16.548  0.00  0.00    -0.320 OA
ATOM      7  O   UNL     1      30.532 -25.080 -12.666  0.00  0.00    -0.250 OA
ATOM      8  N   UNL     1      31.336 -24.102 -14.612  0.00  0.00    -0.255 N 
ATOM      9  N   UNL     1      29.626 -25.713 -14.672  0.00  0.00    -0.181 N 
ATOM     10  C   UNL     1      33.470 -22.805 -14.730  0.00  0.00    +0.174 C 
ATOM     11  C   UNL     1      34.231 -23.949 -15.380  0.00  0.00    +0.222 C 
ATOM     12  C   UNL     1      32.478 -23.261 -16.649  0.00  0.00    +0.256 C 
ATOM     13  C   UNL     1      32.299 -23.280 -13.865  0.00  0.00    +0.128 C 
ATOM     14  C   UNL     1      31.177 -23.793 -16.048  0.00  0.00    +0.156 C 
ATOM     15  C   UNL     1      30.495 -24.975 -13.896  0.00  0.00    +0.326 C 
ATOM     16  H   UNL     1      29.596 -25.630 -15.652  0.00  0.00    +0.184 HD
BRANCH   9  17
ATOM     17  O   UNL     1      28.788 -26.589 -13.966  0.00  0.00    -0.294 OA
ATOM     18  H   UNL     1      27.891 -26.218 -13.926  0.00  0.00    +0.241 HD
ENDBRANCH   9  17
ENDBRANCH   3  11
BRANCH   2  19
ATOM     19  C   UNL     1      36.666 -22.036 -17.537  0.00  0.00    +0.116 C 
BRANCH  19  20
ATOM     20  C   UNL     1      36.261 -21.200 -18.719  0.00  0.00    -0.003 C 
ATOM     21  C   UNL     1      34.956 -21.267 -19.192  0.00  0.00    -0.003 C 
ATOM     22  C   UNL     1      37.196 -20.371 -19.325  0.00  0.00    -0.003 C 
ATOM     23  C   UNL     1      35.513 -19.657 -20.903  0.00  0.00    -0.000 C 
ATOM     24  C   UNL     1      34.582 -20.491 -20.289  0.00  0.00    -0.000 C 
ATOM     25  C   UNL     1      36.821 -19.596 -20.422  0.00  0.00    -0.000 C 
BRANCH  23  26
ATOM     26  C   UNL     1      35.124 -18.851 -22.042  0.00  0.00    -0.000 C 
ATOM     27  C   UNL     1      35.456 -17.497 -22.083  0.00  0.00    -0.000 C 
ATOM     28  C   UNL     1      34.420 -19.430 -23.097  0.00  0.00    -0.000 C 
ATOM     29  C   UNL     1      35.082 -16.721 -23.180  0.00  0.00    +0.000 C 
ATOM     30  C   UNL     1      34.046 -18.654 -24.194  0.00  0.00    +0.000 C 
ATOM     31  C   UNL     1      34.376 -17.299 -24.236  0.00  0.00    +0.000 C 
ENDBRANCH  23  26
ENDBRANCH  19  20
ENDBRANCH   2  19
TORSDOF 5
ENDMDL
