MODEL 1
REMARK VINA RESULT:     -11.1      0.000      0.000
REMARK  Name = 115368
REMARK  5 active torsions:
REMARK  status: ('A' for Active; 'I' for Inactive)
REMARK    1  A    between atoms: N_2  and  C_17
REMARK    2  A    between atoms: C_17  and  C_18
REMARK    3  A    between atoms: C_18  and  C_19
REMARK    4  A    between atoms: C_19  and  C_20
REMARK    5  A    between atoms: C_20  and  N_23
REMARK                            x       y       z     vdW  Elec       q    Type
REMARK                         _______ _______ _______ _____ _____    ______ ____
ROOT
ATOM      1  S   UNL     1      36.827 -21.153 -18.887  0.00  0.00    +0.014 S 
ATOM      2  N   UNL     1      34.807 -16.988 -23.618  0.00  0.00    +0.389 N 
ATOM      3  N   UNL     1      35.525 -18.925 -21.643  0.00  0.00    -0.297 N 
ATOM      4  N   UNL     1      36.969 -20.046 -20.110  0.00  0.00    -0.194 NA
ATOM      5  C   UNL     1      34.050 -18.238 -23.488  0.00  0.00    -0.055 C 
ATOM      6  C   UNL     1      35.321 -16.567 -22.308  0.00  0.00    -0.055 C 
ATOM      7  C   UNL     1      34.920 -19.357 -22.907  0.00  0.00    +0.069 C 
ATOM      8  C   UNL     1      36.234 -17.642 -21.716  0.00  0.00    +0.069 C 
ATOM      9  C   UNL     1      35.754 -19.805 -20.609  0.00  0.00    +0.140 A 
ATOM     10  C   UNL     1      34.652 -20.514 -20.017  0.00  0.00    +0.040 A 
ATOM     11  C   UNL     1      35.120 -21.342 -18.994  0.00  0.00    +0.050 A 
ATOM     12  C   UNL     1      33.267 -20.500 -20.291  0.00  0.00    +0.003 C 
ATOM     13  C   UNL     1      34.261 -22.155 -18.238  0.00  0.00    +0.008 C 
ATOM     14  C   UNL     1      32.403 -21.306 -19.544  0.00  0.00    +0.000 C 
ATOM     15  C   UNL     1      32.896 -22.122 -18.532  0.00  0.00    +0.001 C 
ATOM     16  H   UNL     1      35.599 -17.149 -24.242  0.00  0.00    -0.080 HD
ENDROOT
BRANCH   2  17
ATOM     17  C   UNL     1      33.972 -15.939 -24.204  0.00  0.00    -0.077 C 
BRANCH  17  18
ATOM     18  C   UNL     1      34.311 -14.584 -23.587  0.00  0.00    -0.021 C 
BRANCH  18  19
ATOM     19  C   UNL     1      33.074 -13.682 -23.519  0.00  0.00    +0.020 C 
BRANCH  19  20
ATOM     20  C   UNL     1      33.038 -12.830 -22.255  0.00  0.00    +0.101 C 
BRANCH  20  23
ATOM     21  O   UNL     1      34.506 -10.880 -23.927  0.00  0.00    -0.274 OA
ATOM     22  O   UNL     1      30.766 -11.281 -21.237  0.00  0.00    -0.274 OA
ATOM     23  N   UNL     1      32.711 -11.446 -22.531  0.00  0.00    -0.230 N 
ATOM     24  C   UNL     1      32.642  -9.361 -23.546  0.00  0.00    +0.086 C 
ATOM     25  C   UNL     1      31.749  -9.335 -22.300  0.00  0.00    +0.086 C 
ATOM     26  C   UNL     1      33.472  -8.110 -23.806  0.00  0.00    +0.010 C 
ATOM     27  C   UNL     1      32.350  -8.600 -21.098  0.00  0.00    +0.010 C 
ATOM     28  C   UNL     1      34.084  -7.517 -22.544  0.00  0.00    +0.001 C 
ATOM     29  C   UNL     1      33.019  -7.288 -21.480  0.00  0.00    +0.001 C 
ATOM     30  C   UNL     1      33.448 -10.631 -23.370  0.00  0.00    +0.231 C 
ATOM     31  C   UNL     1      31.631 -10.802 -21.956  0.00  0.00    +0.231 C 
ENDBRANCH  20  23
ENDBRANCH  19  20
ENDBRANCH  18  19
ENDBRANCH  17  18
ENDBRANCH   2  17
TORSDOF 5
ENDMDL
MODEL 2
REMARK VINA RESULT:     -11.0      4.795     11.368
REMARK  Name = 115368
REMARK  5 active torsions:
REMARK  status: ('A' for Active; 'I' for Inactive)
REMARK    1  A    between atoms: N_2  and  C_17
REMARK    2  A    between atoms: C_17  and  C_18
REMARK    3  A    between atoms: C_18  and  C_19
REMARK    4  A    between atoms: C_19  and  C_20
REMARK    5  A    between atoms: C_20  and  N_23
REMARK                            x       y       z     vdW  Elec       q    Type
REMARK                         _______ _______ _______ _____ _____    ______ ____
ROOT
ATOM      1  S   UNL     1      33.835 -15.603 -25.077  0.00  0.00    +0.014 S 
ATOM      2  N   UNL     1      36.008 -20.117 -20.751  0.00  0.00    +0.389 N 
ATOM      3  N   UNL     1      35.190 -18.020 -22.512  0.00  0.00    -0.297 N 
ATOM      4  N   UNL     1      34.401 -17.068 -24.553  0.00  0.00    -0.194 NA
ATOM      5  C   UNL     1      36.456 -18.737 -20.530  0.00  0.00    -0.055 C 
ATOM      6  C   UNL     1      34.668 -20.125 -21.354  0.00  0.00    -0.055 C 
ATOM      7  C   UNL     1      36.492 -17.947 -21.841  0.00  0.00    +0.069 C 
ATOM      8  C   UNL     1      34.675 -19.383 -22.691  0.00  0.00    +0.069 C 
ATOM      9  C   UNL     1      34.694 -16.971 -23.254  0.00  0.00    +0.140 A 
ATOM     10  C   UNL     1      34.471 -15.696 -22.628  0.00  0.00    +0.040 A 
ATOM     11  C   UNL     1      33.969 -14.792 -23.565  0.00  0.00    +0.050 A 
ATOM     12  C   UNL     1      34.668 -15.251 -21.302  0.00  0.00    +0.003 C 
ATOM     13  C   UNL     1      33.657 -13.465 -23.232  0.00  0.00    +0.008 C 
ATOM     14  C   UNL     1      34.360 -13.931 -20.960  0.00  0.00    +0.000 C 
ATOM     15  C   UNL     1      33.862 -13.051 -21.914  0.00  0.00    +0.001 C 
ATOM     16  H   UNL     1      36.657 -20.572 -21.395  0.00  0.00    -0.080 HD
ENDROOT
BRANCH   2  17
ATOM     17  C   UNL     1      36.011 -20.867 -19.495  0.00  0.00    -0.077 C 
BRANCH  17  18
ATOM     18  C   UNL     1      34.654 -21.531 -19.269  0.00  0.00    -0.021 C 
BRANCH  18  19
ATOM     19  C   UNL     1      34.640 -22.328 -17.961  0.00  0.00    +0.020 C 
BRANCH  19  20
ATOM     20  C   UNL     1      33.425 -23.244 -17.846  0.00  0.00    +0.101 C 
BRANCH  20  23
ATOM     21  O   UNL     1      34.554 -24.106 -15.251  0.00  0.00    -0.274 OA
ATOM     22  O   UNL     1      30.742 -22.292 -17.139  0.00  0.00    -0.274 OA
ATOM     23  N   UNL     1      32.817 -23.192 -16.531  0.00  0.00    -0.230 N 
ATOM     24  C   UNL     1      32.560 -23.159 -14.226  0.00  0.00    +0.086 C 
ATOM     25  C   UNL     1      31.176 -23.064 -14.880  0.00  0.00    +0.086 C 
ATOM     26  C   UNL     1      32.656 -24.033 -12.982  0.00  0.00    +0.010 C 
ATOM     27  C   UNL     1      30.357 -24.358 -14.837  0.00  0.00    +0.010 C 
ATOM     28  C   UNL     1      31.865 -25.330 -13.090  0.00  0.00    +0.001 C 
ATOM     29  C   UNL     1      30.421 -25.053 -13.485  0.00  0.00    +0.001 C 
ATOM     30  C   UNL     1      33.457 -23.583 -15.370  0.00  0.00    +0.231 C 
ATOM     31  C   UNL     1      31.521 -22.762 -16.322  0.00  0.00    +0.231 C 
ENDBRANCH  20  23
ENDBRANCH  19  20
ENDBRANCH  18  19
ENDBRANCH  17  18
ENDBRANCH   2  17
TORSDOF 5
ENDMDL
MODEL 3
REMARK VINA RESULT:     -10.7      4.532     11.122
REMARK  Name = 115368
REMARK  5 active torsions:
REMARK  status: ('A' for Active; 'I' for Inactive)
REMARK    1  A    between atoms: N_2  and  C_17
REMARK    2  A    between atoms: C_17  and  C_18
REMARK    3  A    between atoms: C_18  and  C_19
REMARK    4  A    between atoms: C_19  and  C_20
REMARK    5  A    between atoms: C_20  and  N_23
REMARK                            x       y       z     vdW  Elec       q    Type
REMARK                         _______ _______ _______ _____ _____    ______ ____
ROOT
ATOM      1  S   UNL     1      33.768 -14.390 -25.452  0.00  0.00    +0.014 S 
ATOM      2  N   UNL     1      35.363 -19.421 -21.457  0.00  0.00    +0.389 N 
ATOM      3  N   UNL     1      34.757 -17.114 -23.031  0.00  0.00    -0.297 N 
ATOM      4  N   UNL     1      34.336 -15.889 -25.035  0.00  0.00    -0.194 NA
ATOM      5  C   UNL     1      35.634 -18.073 -20.944  0.00  0.00    -0.055 C 
ATOM      6  C   UNL     1      34.186 -19.401 -22.336  0.00  0.00    -0.055 C 
ATOM      7  C   UNL     1      35.877 -17.081 -22.085  0.00  0.00    +0.069 C 
ATOM      8  C   UNL     1      34.409 -18.455 -23.516  0.00  0.00    +0.069 C 
ATOM      9  C   UNL     1      34.340 -15.987 -23.704  0.00  0.00    +0.140 A 
ATOM     10  C   UNL     1      33.882 -14.842 -22.963  0.00  0.00    +0.040 A 
ATOM     11  C   UNL     1      33.511 -13.826 -23.847  0.00  0.00    +0.050 A 
ATOM     12  C   UNL     1      33.756 -14.606 -21.576  0.00  0.00    +0.003 C 
ATOM     13  C   UNL     1      33.024 -12.588 -23.402  0.00  0.00    +0.008 C 
ATOM     14  C   UNL     1      33.271 -13.376 -21.122  0.00  0.00    +0.000 C 
ATOM     15  C   UNL     1      32.911 -12.381 -22.025  0.00  0.00    +0.001 C 
ATOM     16  H   UNL     1      36.169 -19.731 -22.000  0.00  0.00    -0.080 HD
ENDROOT
BRANCH   2  17
ATOM     17  C   UNL     1      35.167 -20.362 -20.354  0.00  0.00    -0.077 C 
BRANCH  17  18
ATOM     18  C   UNL     1      33.685 -20.702 -20.204  0.00  0.00    -0.021 C 
BRANCH  18  19
ATOM     19  C   UNL     1      33.403 -21.358 -18.849  0.00  0.00    +0.020 C 
BRANCH  19  20
ATOM     20  C   UNL     1      34.240 -22.612 -18.619  0.00  0.00    +0.101 C 
BRANCH  20  23
ATOM     21  O   UNL     1      36.890 -21.955 -17.478  0.00  0.00    -0.274 OA
ATOM     22  O   UNL     1      32.735 -23.615 -16.310  0.00  0.00    -0.274 OA
ATOM     23  N   UNL     1      34.691 -22.731 -17.247  0.00  0.00    -0.230 N 
ATOM     24  C   UNL     1      35.916 -22.434 -15.299  0.00  0.00    +0.086 C 
ATOM     25  C   UNL     1      34.783 -23.430 -15.025  0.00  0.00    +0.086 C 
ATOM     26  C   UNL     1      37.259 -22.747 -14.651  0.00  0.00    +0.010 C 
ATOM     27  C   UNL     1      35.226 -24.895 -14.941  0.00  0.00    +0.010 C 
ATOM     28  C   UNL     1      37.626 -24.224 -14.702  0.00  0.00    +0.001 C 
ATOM     29  C   UNL     1      36.503 -25.082 -14.136  0.00  0.00    +0.001 C 
ATOM     30  C   UNL     1      35.946 -22.350 -16.811  0.00  0.00    +0.231 C 
ATOM     31  C   UNL     1      33.904 -23.263 -16.243  0.00  0.00    +0.231 C 
ENDBRANCH  20  23
ENDBRANCH  19  20
ENDBRANCH  18  19
ENDBRANCH  17  18
ENDBRANCH   2  17
TORSDOF 5
ENDMDL
MODEL 4
REMARK VINA RESULT:     -10.5      3.786     10.868
REMARK  Name = 115368
REMARK  5 active torsions:
REMARK  status: ('A' for Active; 'I' for Inactive)
REMARK    1  A    between atoms: N_2  and  C_17
REMARK    2  A    between atoms: C_17  and  C_18
REMARK    3  A    between atoms: C_18  and  C_19
REMARK    4  A    between atoms: C_19  and  C_20
REMARK    5  A    between atoms: C_20  and  N_23
REMARK                            x       y       z     vdW  Elec       q    Type
REMARK                         _______ _______ _______ _____ _____    ______ ____
ROOT
ATOM      1  S   UNL     1      31.188  -8.817 -22.230  0.00  0.00    +0.014 S 
ATOM      2  N   UNL     1      33.939 -14.837 -22.296  0.00  0.00    +0.389 N 
ATOM      3  N   UNL     1      32.840 -12.204 -22.464  0.00  0.00    -0.297 N 
ATOM      4  N   UNL     1      31.291 -10.452 -21.991  0.00  0.00    -0.194 NA
ATOM      5  C   UNL     1      34.232 -13.976 -23.449  0.00  0.00    -0.055 C 
ATOM      6  C   UNL     1      33.760 -14.021 -21.087  0.00  0.00    -0.055 C 
ATOM      7  C   UNL     1      33.106 -12.966 -23.689  0.00  0.00    +0.069 C 
ATOM      8  C   UNL     1      32.610 -13.029 -21.272  0.00  0.00    +0.069 C 
ATOM      9  C   UNL     1      32.446 -10.885 -22.500  0.00  0.00    +0.140 A 
ATOM     10  C   UNL     1      33.300  -9.901 -23.110  0.00  0.00    +0.040 A 
ATOM     11  C   UNL     1      32.701  -8.642 -23.030  0.00  0.00    +0.050 A 
ATOM     12  C   UNL     1      34.563 -10.007 -23.733  0.00  0.00    +0.003 C 
ATOM     13  C   UNL     1      33.311  -7.490 -23.546  0.00  0.00    +0.008 C 
ATOM     14  C   UNL     1      35.180  -8.864 -24.250  0.00  0.00    +0.000 C 
ATOM     15  C   UNL     1      34.560  -7.623 -24.157  0.00  0.00    +0.001 C 
ATOM     16  H   UNL     1      33.073 -15.343 -22.479  0.00  0.00    -0.080 HD
ENDROOT
BRANCH   2  17
ATOM     17  C   UNL     1      35.008 -15.816 -22.101  0.00  0.00    -0.077 C 
BRANCH  17  18
ATOM     18  C   UNL     1      34.973 -16.868 -23.209  0.00  0.00    -0.021 C 
BRANCH  18  19
ATOM     19  C   UNL     1      35.014 -18.285 -22.627  0.00  0.00    +0.020 C 
BRANCH  19  20
ATOM     20  C   UNL     1      35.009 -18.292 -21.101  0.00  0.00    +0.101 C 
BRANCH  20  23
ATOM     21  O   UNL     1      33.205 -20.441 -20.161  0.00  0.00    -0.274 OA
ATOM     22  O   UNL     1      37.685 -19.392 -20.622  0.00  0.00    -0.274 OA
ATOM     23  N   UNL     1      35.353 -19.590 -20.554  0.00  0.00    -0.230 N 
ATOM     24  C   UNL     1      35.202 -21.806 -19.885  0.00  0.00    +0.086 C 
ATOM     25  C   UNL     1      36.604 -21.283 -19.554  0.00  0.00    +0.086 C 
ATOM     26  C   UNL     1      34.562 -22.718 -18.846  0.00  0.00    +0.010 C 
ATOM     27  C   UNL     1      36.839 -20.973 -18.072  0.00  0.00    +0.010 C 
ATOM     28  C   UNL     1      34.796 -22.262 -17.413  0.00  0.00    +0.001 C 
ATOM     29  C   UNL     1      36.280 -22.045 -17.148  0.00  0.00    +0.001 C 
ATOM     30  C   UNL     1      34.422 -20.543 -20.185  0.00  0.00    +0.231 C 
ATOM     31  C   UNL     1      36.657 -19.987 -20.331  0.00  0.00    +0.231 C 
ENDBRANCH  20  23
ENDBRANCH  19  20
ENDBRANCH  18  19
ENDBRANCH  17  18
ENDBRANCH   2  17
TORSDOF 5
ENDMDL
MODEL 5
REMARK VINA RESULT:     -10.0      6.489     11.845
REMARK  Name = 115368
REMARK  5 active torsions:
REMARK  status: ('A' for Active; 'I' for Inactive)
REMARK    1  A    between atoms: N_2  and  C_17
REMARK    2  A    between atoms: C_17  and  C_18
REMARK    3  A    between atoms: C_18  and  C_19
REMARK    4  A    between atoms: C_19  and  C_20
REMARK    5  A    between atoms: C_20  and  N_23
REMARK                            x       y       z     vdW  Elec       q    Type
REMARK                         _______ _______ _______ _____ _____    ______ ____
ROOT
ATOM      1  S   UNL     1      31.632  -2.389 -24.304  0.00  0.00    +0.014 S 
ATOM      2  N   UNL     1      31.749  -7.622 -20.252  0.00  0.00    +0.389 N 
ATOM      3  N   UNL     1      31.755  -5.497 -22.164  0.00  0.00    -0.297 N 
ATOM      4  N   UNL     1      31.131  -3.384 -23.080  0.00  0.00    -0.194 NA
ATOM      5  C   UNL     1      32.134  -7.871 -21.647  0.00  0.00    -0.055 C 
ATOM      6  C   UNL     1      32.131  -6.259 -19.857  0.00  0.00    -0.055 C 
ATOM      7  C   UNL     1      31.469  -6.869 -22.595  0.00  0.00    +0.069 C 
ATOM      8  C   UNL     1      31.447  -5.226 -20.755  0.00  0.00    +0.069 C 
ATOM      9  C   UNL     1      31.909  -4.468 -23.067  0.00  0.00    +0.140 A 
ATOM     10  C   UNL     1      32.949  -4.538 -24.057  0.00  0.00    +0.040 A 
ATOM     11  C   UNL     1      32.916  -3.393 -24.856  0.00  0.00    +0.050 A 
ATOM     12  C   UNL     1      33.931  -5.517 -24.326  0.00  0.00    +0.003 C 
ATOM     13  C   UNL     1      33.821  -3.189 -25.909  0.00  0.00    +0.008 C 
ATOM     14  C   UNL     1      34.837  -5.323 -25.372  0.00  0.00    +0.000 C 
ATOM     15  C   UNL     1      34.781  -4.174 -26.153  0.00  0.00    +0.001 C 
ATOM     16  H   UNL     1      30.736  -7.712 -20.173  0.00  0.00    -0.080 HD
ENDROOT
BRANCH   2  17
ATOM     17  C   UNL     1      32.366  -8.606 -19.364  0.00  0.00    -0.077 C 
BRANCH  17  18
ATOM     18  C   UNL     1      31.425  -9.789 -19.146  0.00  0.00    -0.021 C 
BRANCH  18  19
ATOM     19  C   UNL     1      32.002 -11.074 -19.749  0.00  0.00    +0.020 C 
BRANCH  19  20
ATOM     20  C   UNL     1      31.412 -11.395 -21.119  0.00  0.00    +0.101 C 
BRANCH  20  23
ATOM     21  O   UNL     1      32.300  -9.956 -23.547  0.00  0.00    -0.274 OA
ATOM     22  O   UNL     1      33.049 -13.829 -21.133  0.00  0.00    -0.274 OA
ATOM     23  N   UNL     1      32.427 -11.779 -22.080  0.00  0.00    -0.230 N 
ATOM     24  C   UNL     1      34.020 -11.664 -23.762  0.00  0.00    +0.086 C 
ATOM     25  C   UNL     1      33.902 -13.118 -23.290  0.00  0.00    +0.086 C 
ATOM     26  C   UNL     1      34.189 -11.455 -25.261  0.00  0.00    +0.010 C 
ATOM     27  C   UNL     1      33.133 -14.039 -24.242  0.00  0.00    +0.010 C 
ATOM     28  C   UNL     1      33.313 -12.373 -26.103  0.00  0.00    +0.001 C 
ATOM     29  C   UNL     1      33.509 -13.829 -25.701  0.00  0.00    +0.001 C 
ATOM     30  C   UNL     1      32.796 -11.003 -23.163  0.00  0.00    +0.231 C 
ATOM     31  C   UNL     1      33.109 -12.979 -22.010  0.00  0.00    +0.231 C 
ENDBRANCH  20  23
ENDBRANCH  19  20
ENDBRANCH  18  19
ENDBRANCH  17  18
ENDBRANCH   2  17
TORSDOF 5
ENDMDL
MODEL 6
REMARK VINA RESULT:      -9.9      1.404      2.372
REMARK  Name = 115368
REMARK  5 active torsions:
REMARK  status: ('A' for Active; 'I' for Inactive)
REMARK    1  A    between atoms: N_2  and  C_17
REMARK    2  A    between atoms: C_17  and  C_18
REMARK    3  A    between atoms: C_18  and  C_19
REMARK    4  A    between atoms: C_19  and  C_20
REMARK    5  A    between atoms: C_20  and  N_23
REMARK                            x       y       z     vdW  Elec       q    Type
REMARK                         _______ _______ _______ _____ _____    ______ ____
ROOT
ATOM      1  S   UNL     1      37.022 -20.238 -19.744  0.00  0.00    +0.014 S 
ATOM      2  N   UNL     1      34.289 -15.825 -23.851  0.00  0.00    +0.389 N 
ATOM      3  N   UNL     1      35.328 -17.878 -22.155  0.00  0.00    -0.297 N 
ATOM      4  N   UNL     1      36.971 -18.989 -20.830  0.00  0.00    -0.194 NA
ATOM      5  C   UNL     1      33.685 -17.162 -23.839  0.00  0.00    -0.055 C 
ATOM      6  C   UNL     1      34.826 -15.499 -22.523  0.00  0.00    -0.055 C 
ATOM      7  C   UNL     1      34.705 -18.230 -23.435  0.00  0.00    +0.069 C 
ATOM      8  C   UNL     1      35.884 -16.520 -22.104  0.00  0.00    +0.069 C 
ATOM      9  C   UNL     1      35.712 -18.837 -21.244  0.00  0.00    +0.140 A 
ATOM     10  C   UNL     1      34.730 -19.733 -20.695  0.00  0.00    +0.040 A 
ATOM     11  C   UNL     1      35.344 -20.612 -19.800  0.00  0.00    +0.050 A 
ATOM     12  C   UNL     1      33.339 -19.851 -20.907  0.00  0.00    +0.003 C 
ATOM     13  C   UNL     1      34.624 -21.601 -19.112  0.00  0.00    +0.008 C 
ATOM     14  C   UNL     1      32.613 -20.832 -20.226  0.00  0.00    +0.000 C 
ATOM     15  C   UNL     1      33.250 -21.696 -19.341  0.00  0.00    +0.001 C 
ATOM     16  H   UNL     1      35.058 -15.820 -24.522  0.00  0.00    -0.080 HD
ENDROOT
BRANCH   2  17
ATOM     17  C   UNL     1      33.311 -14.822 -24.271  0.00  0.00    -0.077 C 
BRANCH  17  18
ATOM     18  C   UNL     1      34.018 -13.539 -24.704  0.00  0.00    -0.021 C 
BRANCH  18  19
ATOM     19  C   UNL     1      33.643 -12.366 -23.791  0.00  0.00    +0.020 C 
BRANCH  19  20
ATOM     20  C   UNL     1      33.239 -11.121 -24.574  0.00  0.00    +0.101 C 
BRANCH  20  23
ATOM     21  O   UNL     1      31.742  -9.403 -22.686  0.00  0.00    -0.274 OA
ATOM     22  O   UNL     1      35.807  -9.734 -24.866  0.00  0.00    -0.274 OA
ATOM     23  N   UNL     1      33.669  -9.898 -23.925  0.00  0.00    -0.230 N 
ATOM     24  C   UNL     1      33.800  -8.130 -22.429  0.00  0.00    +0.086 C 
ATOM     25  C   UNL     1      34.884  -7.955 -23.499  0.00  0.00    +0.086 C 
ATOM     26  C   UNL     1      33.084  -6.861 -21.984  0.00  0.00    +0.010 C 
ATOM     27  C   UNL     1      34.576  -6.887 -24.554  0.00  0.00    +0.010 C 
ATOM     28  C   UNL     1      32.759  -5.915 -23.132  0.00  0.00    +0.001 C 
ATOM     29  C   UNL     1      34.004  -5.611 -23.954  0.00  0.00    +0.001 C 
ATOM     30  C   UNL     1      32.898  -9.194 -23.018  0.00  0.00    +0.231 C 
ATOM     31  C   UNL     1      34.893  -9.308 -24.174  0.00  0.00    +0.231 C 
ENDBRANCH  20  23
ENDBRANCH  19  20
ENDBRANCH  18  19
ENDBRANCH  17  18
ENDBRANCH   2  17
TORSDOF 5
ENDMDL
MODEL 7
REMARK VINA RESULT:      -9.8      4.525     11.051
REMARK  Name = 115368
REMARK  5 active torsions:
REMARK  status: ('A' for Active; 'I' for Inactive)
REMARK    1  A    between atoms: N_2  and  C_17
REMARK    2  A    between atoms: C_17  and  C_18
REMARK    3  A    between atoms: C_18  and  C_19
REMARK    4  A    between atoms: C_19  and  C_20
REMARK    5  A    between atoms: C_20  and  N_23
REMARK                            x       y       z     vdW  Elec       q    Type
REMARK                         _______ _______ _______ _____ _____    ______ ____
ROOT
ATOM      1  S   UNL     1      33.638 -14.291 -25.235  0.00  0.00    +0.014 S 
ATOM      2  N   UNL     1      35.578 -19.510 -21.655  0.00  0.00    +0.389 N 
ATOM      3  N   UNL     1      34.828 -17.129 -23.047  0.00  0.00    -0.297 N 
ATOM      4  N   UNL     1      34.263 -15.796 -24.944  0.00  0.00    -0.194 NA
ATOM      5  C   UNL     1      35.847 -18.188 -21.075  0.00  0.00    -0.055 C 
ATOM      6  C   UNL     1      34.351 -19.468 -22.462  0.00  0.00    -0.055 C 
ATOM      7  C   UNL     1      36.000 -17.124 -22.166  0.00  0.00    +0.069 C 
ATOM      8  C   UNL     1      34.484 -18.447 -23.593  0.00  0.00    +0.069 C 
ATOM      9  C   UNL     1      34.347 -15.974 -23.624  0.00  0.00    +0.140 A 
ATOM     10  C   UNL     1      33.906 -14.889 -22.789  0.00  0.00    +0.040 A 
ATOM     11  C   UNL     1      33.462 -13.832 -23.586  0.00  0.00    +0.050 A 
ATOM     12  C   UNL     1      33.856 -14.740 -21.385  0.00  0.00    +0.003 C 
ATOM     13  C   UNL     1      32.973 -12.637 -23.038  0.00  0.00    +0.008 C 
ATOM     14  C   UNL     1      33.370 -13.554 -20.829  0.00  0.00    +0.000 C 
ATOM     15  C   UNL     1      32.935 -12.516 -21.647  0.00  0.00    +0.001 C 
ATOM     16  H   UNL     1      36.358 -19.765 -22.261  0.00  0.00    -0.080 HD
ENDROOT
BRANCH   2  17
ATOM     17  C   UNL     1      35.467 -20.520 -20.603  0.00  0.00    -0.077 C 
BRANCH  17  18
ATOM     18  C   UNL     1      34.078 -20.478 -19.970  0.00  0.00    -0.021 C 
BRANCH  18  19
ATOM     19  C   UNL     1      33.903 -21.603 -18.944  0.00  0.00    +0.020 C 
BRANCH  19  20
ATOM     20  C   UNL     1      32.494 -21.653 -18.363  0.00  0.00    +0.101 C 
BRANCH  20  23
ATOM     21  O   UNL     1      30.096 -22.384 -16.791  0.00  0.00    -0.274 OA
ATOM     22  O   UNL     1      34.614 -23.292 -17.172  0.00  0.00    -0.274 OA
ATOM     23  N   UNL     1      32.377 -22.607 -17.278  0.00  0.00    -0.230 N 
ATOM     24  C   UNL     1      31.476 -24.092 -15.742  0.00  0.00    +0.086 C 
ATOM     25  C   UNL     1      32.990 -24.008 -15.519  0.00  0.00    +0.086 C 
ATOM     26  C   UNL     1      30.614 -24.167 -14.487  0.00  0.00    +0.010 C 
ATOM     27  C   UNL     1      33.412 -23.183 -14.298  0.00  0.00    +0.010 C 
ATOM     28  C   UNL     1      31.086 -23.242 -13.373  0.00  0.00    +0.001 C 
ATOM     29  C   UNL     1      32.561 -23.467 -13.069  0.00  0.00    +0.001 C 
ATOM     30  C   UNL     1      31.189 -22.906 -16.638  0.00  0.00    +0.231 C 
ATOM     31  C   UNL     1      33.461 -23.295 -16.766  0.00  0.00    +0.231 C 
ENDBRANCH  20  23
ENDBRANCH  19  20
ENDBRANCH  18  19
ENDBRANCH  17  18
ENDBRANCH   2  17
TORSDOF 5
ENDMDL
MODEL 8
REMARK VINA RESULT:      -9.8      2.720      4.650
REMARK  Name = 115368
REMARK  5 active torsions:
REMARK  status: ('A' for Active; 'I' for Inactive)
REMARK    1  A    between atoms: N_2  and  C_17
REMARK    2  A    between atoms: C_17  and  C_18
REMARK    3  A    between atoms: C_18  and  C_19
REMARK    4  A    between atoms: C_19  and  C_20
REMARK    5  A    between atoms: C_20  and  N_23
REMARK                            x       y       z     vdW  Elec       q    Type
REMARK                         _______ _______ _______ _____ _____    ______ ____
ROOT
ATOM      1  S   UNL     1      36.118 -18.461 -20.907  0.00  0.00    +0.014 S 
ATOM      2  N   UNL     1      33.102 -12.686 -22.080  0.00  0.00    +0.389 N 
ATOM      3  N   UNL     1      34.435 -15.198 -21.789  0.00  0.00    -0.297 N 
ATOM      4  N   UNL     1      35.712 -16.873 -20.669  0.00  0.00    -0.194 NA
ATOM      5  C   UNL     1      33.554 -13.435 -23.260  0.00  0.00    -0.055 C 
ATOM      6  C   UNL     1      32.726 -13.614 -21.005  0.00  0.00    -0.055 C 
ATOM      7  C   UNL     1      34.753 -14.328 -22.926  0.00  0.00    +0.069 C 
ATOM      8  C   UNL     1      33.914 -14.493 -20.612  0.00  0.00    +0.069 C 
ATOM      9  C   UNL     1      34.945 -16.473 -21.685  0.00  0.00    +0.140 A 
ATOM     10  C   UNL     1      34.654 -17.444 -22.706  0.00  0.00    +0.040 A 
ATOM     11  C   UNL     1      35.270 -18.657 -22.392  0.00  0.00    +0.050 A 
ATOM     12  C   UNL     1      33.894 -17.363 -23.893  0.00  0.00    +0.003 C 
ATOM     13  C   UNL     1      35.158 -19.788 -23.214  0.00  0.00    +0.008 C 
ATOM     14  C   UNL     1      33.775 -18.484 -24.719  0.00  0.00    +0.000 C 
ATOM     15  C   UNL     1      34.400 -19.680 -24.383  0.00  0.00    +0.001 C 
ATOM     16  H   UNL     1      33.871 -12.101 -21.751  0.00  0.00    -0.080 HD
ENDROOT
BRANCH   2  17
ATOM     17  C   UNL     1      31.979 -11.814 -22.423  0.00  0.00    -0.077 C 
BRANCH  17  18
ATOM     18  C   UNL     1      31.607 -10.934 -21.232  0.00  0.00    -0.021 C 
BRANCH  18  19
ATOM     19  C   UNL     1      32.064  -9.488 -21.449  0.00  0.00    +0.020 C 
BRANCH  19  20
ATOM     20  C   UNL     1      32.362  -9.181 -22.913  0.00  0.00    +0.101 C 
BRANCH  20  23
ATOM     21  O   UNL     1      30.998  -6.561 -23.092  0.00  0.00    -0.274 OA
ATOM     22  O   UNL     1      35.196  -8.496 -23.235  0.00  0.00    -0.274 OA
ATOM     23  N   UNL     1      32.945  -7.866 -23.093  0.00  0.00    -0.230 N 
ATOM     24  C   UNL     1      33.218  -5.563 -23.101  0.00  0.00    +0.086 C 
ATOM     25  C   UNL     1      34.490  -6.214 -23.655  0.00  0.00    +0.086 C 
ATOM     26  C   UNL     1      32.757  -4.288 -23.797  0.00  0.00    +0.010 C 
ATOM     27  C   UNL     1      34.647  -6.121 -25.176  0.00  0.00    +0.010 C 
ATOM     28  C   UNL     1      32.885  -4.347 -25.313  0.00  0.00    +0.001 C 
ATOM     29  C   UNL     1      34.296  -4.745 -25.724  0.00  0.00    +0.001 C 
ATOM     30  C   UNL     1      32.212  -6.694 -23.118  0.00  0.00    +0.231 C 
ATOM     31  C   UNL     1      34.299  -7.666 -23.280  0.00  0.00    +0.231 C 
ENDBRANCH  20  23
ENDBRANCH  19  20
ENDBRANCH  18  19
ENDBRANCH  17  18
ENDBRANCH   2  17
TORSDOF 5
ENDMDL
MODEL 9
REMARK VINA RESULT:      -9.7      3.658      6.277
REMARK  Name = 115368
REMARK  5 active torsions:
REMARK  status: ('A' for Active; 'I' for Inactive)
REMARK    1  A    between atoms: N_2  and  C_17
REMARK    2  A    between atoms: C_17  and  C_18
REMARK    3  A    between atoms: C_18  and  C_19
REMARK    4  A    between atoms: C_19  and  C_20
REMARK    5  A    between atoms: C_20  and  N_23
REMARK                            x       y       z     vdW  Elec       q    Type
REMARK                         _______ _______ _______ _____ _____    ______ ____
ROOT
ATOM      1  S   UNL     1      34.435 -16.740 -24.710  0.00  0.00    +0.014 S 
ATOM      2  N   UNL     1      32.799 -10.485 -23.290  0.00  0.00    +0.389 N 
ATOM      3  N   UNL     1      33.425 -13.242 -23.708  0.00  0.00    -0.297 N 
ATOM      4  N   UNL     1      33.853 -15.214 -24.982  0.00  0.00    -0.194 NA
ATOM      5  C   UNL     1      32.542 -11.478 -22.240  0.00  0.00    -0.055 C 
ATOM      6  C   UNL     1      33.975 -10.876 -24.080  0.00  0.00    -0.055 C 
ATOM      7  C   UNL     1      32.307 -12.869 -22.835  0.00  0.00    +0.069 C 
ATOM      8  C   UNL     1      33.758 -12.243 -24.730  0.00  0.00    +0.069 C 
ATOM      9  C   UNL     1      33.851 -14.547 -23.826  0.00  0.00    +0.140 A 
ATOM     10  C   UNL     1      34.322 -15.252 -22.665  0.00  0.00    +0.040 A 
ATOM     11  C   UNL     1      34.700 -16.548 -23.021  0.00  0.00    +0.050 A 
ATOM     12  C   UNL     1      34.453 -14.860 -21.314  0.00  0.00    +0.003 C 
ATOM     13  C   UNL     1      35.201 -17.465 -22.085  0.00  0.00    +0.008 C 
ATOM     14  C   UNL     1      34.951 -15.766 -20.373  0.00  0.00    +0.000 C 
ATOM     15  C   UNL     1      35.319 -17.052 -20.755  0.00  0.00    +0.001 C 
ATOM     16  H   UNL     1      31.989 -10.448 -23.909  0.00  0.00    -0.080 HD
ENDROOT
BRANCH   2  17
ATOM     17  C   UNL     1      32.989  -9.157 -22.707  0.00  0.00    -0.077 C 
BRANCH  17  18
ATOM     18  C   UNL     1      31.639  -8.524 -22.376  0.00  0.00    -0.021 C 
BRANCH  18  19
ATOM     19  C   UNL     1      31.796  -7.383 -21.366  0.00  0.00    +0.020 C 
BRANCH  19  20
ATOM     20  C   UNL     1      32.860  -6.373 -21.784  0.00  0.00    +0.101 C 
BRANCH  20  23
ATOM     21  O   UNL     1      34.242  -6.373 -24.401  0.00  0.00    -0.274 OA
ATOM     22  O   UNL     1      30.600  -4.552 -22.209  0.00  0.00    -0.274 OA
ATOM     23  N   UNL     1      32.503  -5.665 -22.998  0.00  0.00    -0.230 N 
ATOM     24  C   UNL     1      32.370  -5.059 -25.233  0.00  0.00    +0.086 C 
ATOM     25  C   UNL     1      31.519  -4.089 -24.406  0.00  0.00    +0.086 C 
ATOM     26  C   UNL     1      33.172  -4.445 -26.374  0.00  0.00    +0.010 C 
ATOM     27  C   UNL     1      32.149  -2.709 -24.190  0.00  0.00    +0.010 C 
ATOM     28  C   UNL     1      33.817  -3.114 -26.013  0.00  0.00    +0.001 C 
ATOM     29  C   UNL     1      32.785  -2.146 -25.451  0.00  0.00    +0.001 C 
ATOM     30  C   UNL     1      33.200  -5.774 -24.187  0.00  0.00    +0.231 C 
ATOM     31  C   UNL     1      31.434  -4.793 -23.070  0.00  0.00    +0.231 C 
ENDBRANCH  20  23
ENDBRANCH  19  20
ENDBRANCH  18  19
ENDBRANCH  17  18
ENDBRANCH   2  17
TORSDOF 5
ENDMDL
