MODEL 1
REMARK VINA RESULT:     -13.3      0.000      0.000
REMARK  Name = 71351
REMARK  4 active torsions:
REMARK  status: ('A' for Active; 'I' for Inactive)
REMARK    1  A    between atoms: N_1  and  C_18
REMARK    2  A    between atoms: C_2  and  C_11
REMARK    3  A    between atoms: C_18  and  C_19
REMARK    4  A    between atoms: C_19  and  C_23
REMARK                            x       y       z     vdW  Elec       q    Type
REMARK                         _______ _______ _______ _____ _____    ______ ____
ROOT
ATOM      1  N   UNL     1      35.546 -19.477 -20.295  0.00  0.00    +0.387 N 
ATOM      2  C   UNL     1      35.411 -17.823 -22.714  0.00  0.00    +0.039 C 
ATOM      3  C   UNL     1      35.776 -17.243 -21.338  0.00  0.00    -0.017 C 
ATOM      4  C   UNL     1      34.569 -19.097 -22.538  0.00  0.00    -0.017 C 
ATOM      5  C   UNL     1      36.420 -18.305 -20.442  0.00  0.00    -0.077 C 
ATOM      6  C   UNL     1      35.258 -20.091 -21.598  0.00  0.00    -0.077 C 
ATOM      7  H   UNL     1      34.662 -19.162 -19.893  0.00  0.00    -0.080 HD
ENDROOT
BRANCH   2  11
ATOM      8  F   UNL     1      32.990 -11.621 -23.663  0.00  0.00    -0.204 F 
ATOM      9  O   UNL     1      33.848 -16.017 -25.413  0.00  0.00    -0.354 OA
ATOM     10  N   UNL     1      34.426 -17.155 -24.862  0.00  0.00    -0.081 NA
ATOM     11  C   UNL     1      34.749 -16.808 -23.618  0.00  0.00    +0.100 A 
ATOM     12  C   UNL     1      34.411 -15.481 -23.312  0.00  0.00    +0.054 A 
ATOM     13  C   UNL     1      33.841 -15.020 -24.486  0.00  0.00    +0.179 A 
ATOM     14  C   UNL     1      34.506 -14.613 -22.215  0.00  0.00    +0.007 C 
ATOM     15  C   UNL     1      33.344 -13.733 -24.665  0.00  0.00    +0.070 C 
ATOM     16  C   UNL     1      34.017 -13.307 -22.359  0.00  0.00    +0.030 C 
ATOM     17  C   UNL     1      33.447 -12.877 -23.563  0.00  0.00    +0.143 C 
ENDBRANCH   2  11
BRANCH   1  18
ATOM     18  C   UNL     1      36.151 -20.455 -19.390  0.00  0.00    -0.076 C 
BRANCH  18  19
ATOM     19  C   UNL     1      35.536 -21.827 -19.628  0.00  0.00    -0.007 C 
BRANCH  19  23
ATOM     20  O   UNL     1      36.129 -22.886 -17.133  0.00  0.00    -0.274 OA
ATOM     21  N   UNL     1      33.908 -23.008 -16.415  0.00  0.00    -0.211 N 
ATOM     22  N   UNL     1      32.186 -22.223 -17.850  0.00  0.00    -0.395 NA
ATOM     23  C   UNL     1      34.462 -22.113 -18.620  0.00  0.00    +0.123 C 
ATOM     24  C   UNL     1      33.141 -21.910 -18.785  0.00  0.00    +0.097 C 
ATOM     25  C   UNL     1      34.926 -22.706 -17.324  0.00  0.00    +0.241 C 
ATOM     26  C   UNL     1      32.568 -22.749 -16.725  0.00  0.00    +0.188 C 
ATOM     27  C   UNL     1      32.559 -21.285 -20.026  0.00  0.00    +0.062 C 
ATOM     28  C   UNL     1      31.539 -23.104 -15.684  0.00  0.00    +0.023 C 
ATOM     29  C   UNL     1      34.255 -23.570 -15.191  0.00  0.00    +0.074 C 
ATOM     30  C   UNL     1      31.951 -23.643 -14.527  0.00  0.00    +0.001 C 
ATOM     31  C   UNL     1      33.341 -23.884 -14.269  0.00  0.00    +0.016 C 
ATOM     32  C   UNL     1      30.097 -22.839 -15.990  0.00  0.00    +0.035 C 
ENDBRANCH  19  23
ENDBRANCH  18  19
ENDBRANCH   1  18
TORSDOF 4
ENDMDL
MODEL 2
REMARK VINA RESULT:     -13.2      1.117      2.078
REMARK  Name = 71351
REMARK  4 active torsions:
REMARK  status: ('A' for Active; 'I' for Inactive)
REMARK    1  A    between atoms: N_1  and  C_18
REMARK    2  A    between atoms: C_2  and  C_11
REMARK    3  A    between atoms: C_18  and  C_19
REMARK    4  A    between atoms: C_19  and  C_23
REMARK                            x       y       z     vdW  Elec       q    Type
REMARK                         _______ _______ _______ _____ _____    ______ ____
ROOT
ATOM      1  N   UNL     1      35.882 -19.653 -20.030  0.00  0.00    +0.387 N 
ATOM      2  C   UNL     1      35.308 -18.443 -22.640  0.00  0.00    +0.039 C 
ATOM      3  C   UNL     1      36.417 -17.919 -21.713  0.00  0.00    -0.017 C 
ATOM      4  C   UNL     1      34.234 -19.167 -21.812  0.00  0.00    -0.017 C 
ATOM      5  C   UNL     1      36.959 -19.031 -20.812  0.00  0.00    -0.077 C 
ATOM      6  C   UNL     1      34.857 -20.234 -20.907  0.00  0.00    -0.077 C 
ATOM      7  H   UNL     1      35.440 -18.925 -19.468  0.00  0.00    -0.080 HD
ENDROOT
BRANCH   2  11
ATOM      8  F   UNL     1      33.350 -12.065 -23.479  0.00  0.00    -0.204 F 
ATOM      9  O   UNL     1      33.909 -16.475 -25.315  0.00  0.00    -0.354 OA
ATOM     10  N   UNL     1      34.397 -17.662 -24.782  0.00  0.00    -0.081 NA
ATOM     11  C   UNL     1      34.730 -17.365 -23.528  0.00  0.00    +0.100 A 
ATOM     12  C   UNL     1      34.485 -16.024 -23.198  0.00  0.00    +0.054 A 
ATOM     13  C   UNL     1      33.963 -15.499 -24.367  0.00  0.00    +0.179 A 
ATOM     14  C   UNL     1      34.631 -15.187 -22.081  0.00  0.00    +0.007 C 
ATOM     15  C   UNL     1      33.562 -14.176 -24.523  0.00  0.00    +0.070 C 
ATOM     16  C   UNL     1      34.238 -13.847 -22.202  0.00  0.00    +0.030 C 
ATOM     17  C   UNL     1      33.714 -13.353 -23.402  0.00  0.00    +0.143 C 
ENDBRANCH   2  11
BRANCH   1  18
ATOM     18  C   UNL     1      36.425 -20.673 -19.133  0.00  0.00    -0.076 C 
BRANCH  18  19
ATOM     19  C   UNL     1      35.633 -21.964 -19.277  0.00  0.00    -0.007 C 
BRANCH  19  23
ATOM     20  O   UNL     1      32.933 -22.518 -18.954  0.00  0.00    -0.274 OA
ATOM     21  N   UNL     1      33.080 -22.997 -16.672  0.00  0.00    -0.211 N 
ATOM     22  N   UNL     1      35.203 -22.920 -15.610  0.00  0.00    -0.395 NA
ATOM     23  C   UNL     1      35.071 -22.397 -17.954  0.00  0.00    +0.123 C 
ATOM     24  C   UNL     1      35.763 -22.561 -16.810  0.00  0.00    +0.097 C 
ATOM     25  C   UNL     1      33.593 -22.639 -17.922  0.00  0.00    +0.241 C 
ATOM     26  C   UNL     1      33.921 -23.122 -15.560  0.00  0.00    +0.188 C 
ATOM     27  C   UNL     1      37.258 -22.385 -16.727  0.00  0.00    +0.062 C 
ATOM     28  C   UNL     1      33.282 -23.515 -14.253  0.00  0.00    +0.023 C 
ATOM     29  C   UNL     1      31.714 -23.230 -16.555  0.00  0.00    +0.074 C 
ATOM     30  C   UNL     1      31.957 -23.723 -14.220  0.00  0.00    +0.001 C 
ATOM     31  C   UNL     1      31.149 -23.579 -15.396  0.00  0.00    +0.016 C 
ATOM     32  C   UNL     1      34.158 -23.655 -13.047  0.00  0.00    +0.035 C 
ENDBRANCH  19  23
ENDBRANCH  18  19
ENDBRANCH   1  18
TORSDOF 4
ENDMDL
MODEL 3
REMARK VINA RESULT:     -12.4      3.445     10.109
REMARK  Name = 71351
REMARK  4 active torsions:
REMARK  status: ('A' for Active; 'I' for Inactive)
REMARK    1  A    between atoms: N_1  and  C_18
REMARK    2  A    between atoms: C_2  and  C_11
REMARK    3  A    between atoms: C_18  and  C_19
REMARK    4  A    between atoms: C_19  and  C_23
REMARK                            x       y       z     vdW  Elec       q    Type
REMARK                         _______ _______ _______ _____ _____    ______ ____
ROOT
ATOM      1  N   UNL     1      34.367 -20.486 -20.031  0.00  0.00    +0.387 N 
ATOM      2  C   UNL     1      34.122 -22.612 -18.024  0.00  0.00    +0.039 C 
ATOM      3  C   UNL     1      32.967 -21.653 -18.356  0.00  0.00    -0.017 C 
ATOM      4  C   UNL     1      35.466 -21.946 -18.362  0.00  0.00    -0.017 C 
ATOM      5  C   UNL     1      33.071 -21.135 -19.792  0.00  0.00    -0.077 C 
ATOM      6  C   UNL     1      35.478 -21.418 -19.799  0.00  0.00    -0.077 C 
ATOM      7  H   UNL     1      34.459 -19.715 -19.369  0.00  0.00    -0.080 HD
ENDROOT
BRANCH   2  11
ATOM      8  F   UNL     1      30.504 -24.258 -12.600  0.00  0.00    -0.204 F 
ATOM      9  O   UNL     1      34.804 -23.878 -14.720  0.00  0.00    -0.354 OA
ATOM     10  N   UNL     1      35.198 -23.454 -15.984  0.00  0.00    -0.081 NA
ATOM     11  C   UNL     1      34.066 -23.124 -16.603  0.00  0.00    +0.100 A 
ATOM     12  C   UNL     1      32.928 -23.310 -15.804  0.00  0.00    +0.054 A 
ATOM     13  C   UNL     1      33.450 -23.792 -14.616  0.00  0.00    +0.179 A 
ATOM     14  C   UNL     1      31.541 -23.140 -15.920  0.00  0.00    +0.007 C 
ATOM     15  C   UNL     1      32.686 -24.127 -13.503  0.00  0.00    +0.070 C 
ATOM     16  C   UNL     1      30.739 -23.469 -14.818  0.00  0.00    +0.030 C 
ATOM     17  C   UNL     1      31.303 -23.954 -13.632  0.00  0.00    +0.143 C 
ENDBRANCH   2  11
BRANCH   1  18
ATOM     18  C   UNL     1      34.426 -19.947 -21.390  0.00  0.00    -0.076 C 
BRANCH  18  19
ATOM     19  C   UNL     1      35.566 -18.944 -21.499  0.00  0.00    -0.007 C 
BRANCH  19  23
ATOM     20  O   UNL     1      35.321 -16.570 -20.086  0.00  0.00    -0.274 OA
ATOM     21  N   UNL     1      34.521 -15.322 -21.893  0.00  0.00    -0.211 N 
ATOM     22  N   UNL     1      34.304 -16.369 -24.013  0.00  0.00    -0.395 NA
ATOM     23  C   UNL     1      35.104 -17.679 -22.161  0.00  0.00    +0.123 C 
ATOM     24  C   UNL     1      34.761 -17.537 -23.456  0.00  0.00    +0.097 C 
ATOM     25  C   UNL     1      34.997 -16.480 -21.270  0.00  0.00    +0.241 C 
ATOM     26  C   UNL     1      34.193 -15.322 -23.254  0.00  0.00    +0.188 C 
ATOM     27  C   UNL     1      34.865 -18.659 -24.456  0.00  0.00    +0.062 C 
ATOM     28  C   UNL     1      33.692 -14.028 -23.841  0.00  0.00    +0.023 C 
ATOM     29  C   UNL     1      34.384 -14.166 -21.132  0.00  0.00    +0.074 C 
ATOM     30  C   UNL     1      33.586 -12.956 -23.043  0.00  0.00    +0.001 C 
ATOM     31  C   UNL     1      33.939 -13.020 -21.654  0.00  0.00    +0.016 C 
ATOM     32  C   UNL     1      33.332 -13.999 -25.295  0.00  0.00    +0.035 C 
ENDBRANCH  19  23
ENDBRANCH  18  19
ENDBRANCH   1  18
TORSDOF 4
ENDMDL
MODEL 4
REMARK VINA RESULT:     -12.1      1.323      2.027
REMARK  Name = 71351
REMARK  4 active torsions:
REMARK  status: ('A' for Active; 'I' for Inactive)
REMARK    1  A    between atoms: N_1  and  C_18
REMARK    2  A    between atoms: C_2  and  C_11
REMARK    3  A    between atoms: C_18  and  C_19
REMARK    4  A    between atoms: C_19  and  C_23
REMARK                            x       y       z     vdW  Elec       q    Type
REMARK                         _______ _______ _______ _____ _____    ______ ____
ROOT
ATOM      1  N   UNL     1      35.712 -19.773 -20.100  0.00  0.00    +0.387 N 
ATOM      2  C   UNL     1      35.331 -18.393 -22.661  0.00  0.00    +0.039 C 
ATOM      3  C   UNL     1      36.198 -17.812 -21.531  0.00  0.00    -0.017 C 
ATOM      4  C   UNL     1      34.280 -19.348 -22.074  0.00  0.00    -0.017 C 
ATOM      5  C   UNL     1      36.776 -18.922 -20.649  0.00  0.00    -0.077 C 
ATOM      6  C   UNL     1      34.929 -20.402 -21.172  0.00  0.00    -0.077 C 
ATOM      7  H   UNL     1      35.083 -19.180 -19.558  0.00  0.00    -0.080 HD
ENDROOT
BRANCH   2  11
ATOM      8  F   UNL     1      33.328 -12.027 -23.487  0.00  0.00    -0.204 F 
ATOM      9  O   UNL     1      33.840 -16.450 -25.304  0.00  0.00    -0.354 OA
ATOM     10  N   UNL     1      34.350 -17.632 -24.779  0.00  0.00    -0.081 NA
ATOM     11  C   UNL     1      34.722 -17.324 -23.539  0.00  0.00    +0.100 A 
ATOM     12  C   UNL     1      34.484 -15.980 -23.211  0.00  0.00    +0.054 A 
ATOM     13  C   UNL     1      33.923 -15.467 -24.367  0.00  0.00    +0.179 A 
ATOM     14  C   UNL     1      34.663 -15.135 -22.106  0.00  0.00    +0.007 C 
ATOM     15  C   UNL     1      33.513 -14.146 -24.520  0.00  0.00    +0.070 C 
ATOM     16  C   UNL     1      34.262 -13.796 -22.225  0.00  0.00    +0.030 C 
ATOM     17  C   UNL     1      33.699 -13.313 -23.411  0.00  0.00    +0.143 C 
ENDBRANCH   2  11
BRANCH   1  18
ATOM     18  C   UNL     1      36.277 -20.791 -19.214  0.00  0.00    -0.076 C 
BRANCH  18  19
ATOM     19  C   UNL     1      35.328 -21.977 -19.117  0.00  0.00    -0.007 C 
BRANCH  19  23
ATOM     20  O   UNL     1      37.447 -22.009 -17.327  0.00  0.00    -0.274 OA
ATOM     21  N   UNL     1      36.199 -22.828 -15.528  0.00  0.00    -0.211 N 
ATOM     22  N   UNL     1      33.874 -23.216 -15.817  0.00  0.00    -0.395 NA
ATOM     23  C   UNL     1      35.144 -22.399 -17.689  0.00  0.00    +0.123 C 
ATOM     24  C   UNL     1      33.991 -22.800 -17.119  0.00  0.00    +0.097 C 
ATOM     25  C   UNL     1      36.380 -22.389 -16.843  0.00  0.00    +0.241 C 
ATOM     26  C   UNL     1      34.937 -23.226 -15.071  0.00  0.00    +0.188 C 
ATOM     27  C   UNL     1      32.677 -22.814 -17.857  0.00  0.00    +0.062 C 
ATOM     28  C   UNL     1      34.835 -23.682 -13.639  0.00  0.00    +0.023 C 
ATOM     29  C   UNL     1      37.301 -22.858 -14.679  0.00  0.00    +0.074 C 
ATOM     30  C   UNL     1      35.943 -23.683 -12.882  0.00  0.00    +0.001 C 
ATOM     31  C   UNL     1      37.208 -23.262 -13.410  0.00  0.00    +0.016 C 
ATOM     32  C   UNL     1      33.497 -24.114 -13.124  0.00  0.00    +0.035 C 
ENDBRANCH  19  23
ENDBRANCH  18  19
ENDBRANCH   1  18
TORSDOF 4
ENDMDL
MODEL 5
REMARK VINA RESULT:     -12.1      6.724     13.797
REMARK  Name = 71351
REMARK  4 active torsions:
REMARK  status: ('A' for Active; 'I' for Inactive)
REMARK    1  A    between atoms: N_1  and  C_18
REMARK    2  A    between atoms: C_2  and  C_11
REMARK    3  A    between atoms: C_18  and  C_19
REMARK    4  A    between atoms: C_19  and  C_23
REMARK                            x       y       z     vdW  Elec       q    Type
REMARK                         _______ _______ _______ _____ _____    ______ ____
ROOT
ATOM      1  N   UNL     1      32.131 -10.289 -22.509  0.00  0.00    +0.387 N 
ATOM      2  C   UNL     1      33.585 -12.778 -23.056  0.00  0.00    +0.039 C 
ATOM      3  C   UNL     1      33.615 -11.576 -24.015  0.00  0.00    -0.017 C 
ATOM      4  C   UNL     1      32.299 -12.741 -22.214  0.00  0.00    -0.017 C 
ATOM      5  C   UNL     1      33.391 -10.261 -23.265  0.00  0.00    -0.077 C 
ATOM      6  C   UNL     1      32.124 -11.383 -21.529  0.00  0.00    -0.077 C 
ATOM      7  H   UNL     1      31.372 -10.454 -23.170  0.00  0.00    -0.080 HD
ENDROOT
BRANCH   2  11
ATOM      8  F   UNL     1      35.679 -19.168 -22.940  0.00  0.00    -0.204 F 
ATOM      9  O   UNL     1      33.708 -15.525 -25.385  0.00  0.00    -0.354 OA
ATOM     10  N   UNL     1      33.399 -14.215 -25.038  0.00  0.00    -0.081 NA
ATOM     11  C   UNL     1      33.778 -14.098 -23.768  0.00  0.00    +0.100 A 
ATOM     12  C   UNL     1      34.329 -15.279 -23.247  0.00  0.00    +0.054 A 
ATOM     13  C   UNL     1      34.261 -16.157 -24.314  0.00  0.00    +0.179 A 
ATOM     14  C   UNL     1      34.870 -15.722 -22.031  0.00  0.00    +0.007 C 
ATOM     15  C   UNL     1      34.700 -17.477 -24.273  0.00  0.00    +0.070 C 
ATOM     16  C   UNL     1      35.322 -17.048 -21.953  0.00  0.00    +0.030 C 
ATOM     17  C   UNL     1      35.237 -17.907 -23.054  0.00  0.00    +0.143 C 
ENDBRANCH   2  11
BRANCH   1  18
ATOM     18  C   UNL     1      31.905  -9.005 -21.845  0.00  0.00    -0.076 C 
BRANCH  18  19
ATOM     19  C   UNL     1      33.156  -8.144 -21.944  0.00  0.00    -0.007 C 
BRANCH  19  23
ATOM     20  O   UNL     1      33.705  -7.138 -24.471  0.00  0.00    -0.274 OA
ATOM     21  N   UNL     1      32.890  -4.992 -24.033  0.00  0.00    -0.211 N 
ATOM     22  N   UNL     1      31.948  -4.526 -21.903  0.00  0.00    -0.395 NA
ATOM     23  C   UNL     1      32.805  -6.734 -22.323  0.00  0.00    +0.123 C 
ATOM     24  C   UNL     1      32.215  -5.819 -21.529  0.00  0.00    +0.097 C 
ATOM     25  C   UNL     1      33.182  -6.321 -23.712  0.00  0.00    +0.241 C 
ATOM     26  C   UNL     1      32.278  -4.146 -23.100  0.00  0.00    +0.188 C 
ATOM     27  C   UNL     1      31.756  -6.128 -20.128  0.00  0.00    +0.062 C 
ATOM     28  C   UNL     1      31.998  -2.731 -23.534  0.00  0.00    +0.023 C 
ATOM     29  C   UNL     1      33.217  -4.527 -25.302  0.00  0.00    +0.074 C 
ATOM     30  C   UNL     1      32.343  -2.356 -24.774  0.00  0.00    +0.001 C 
ATOM     31  C   UNL     1      32.967  -3.272 -25.685  0.00  0.00    +0.016 C 
ATOM     32  C   UNL     1      31.346  -1.804 -22.555  0.00  0.00    +0.035 C 
ENDBRANCH  19  23
ENDBRANCH  18  19
ENDBRANCH   1  18
TORSDOF 4
ENDMDL
MODEL 6
REMARK VINA RESULT:     -12.0      1.501      2.573
REMARK  Name = 71351
REMARK  4 active torsions:
REMARK  status: ('A' for Active; 'I' for Inactive)
REMARK    1  A    between atoms: N_1  and  C_18
REMARK    2  A    between atoms: C_2  and  C_11
REMARK    3  A    between atoms: C_18  and  C_19
REMARK    4  A    between atoms: C_19  and  C_23
REMARK                            x       y       z     vdW  Elec       q    Type
REMARK                         _______ _______ _______ _____ _____    ______ ____
ROOT
ATOM      1  N   UNL     1      35.917 -19.942 -19.816  0.00  0.00    +0.387 N 
ATOM      2  C   UNL     1      35.248 -18.838 -22.450  0.00  0.00    +0.039 C 
ATOM      3  C   UNL     1      36.505 -18.414 -21.673  0.00  0.00    -0.017 C 
ATOM      4  C   UNL     1      34.176 -19.347 -21.473  0.00  0.00    -0.017 C 
ATOM      5  C   UNL     1      36.982 -19.530 -20.740  0.00  0.00    -0.077 C 
ATOM      6  C   UNL     1      34.739 -20.428 -20.547  0.00  0.00    -0.077 C 
ATOM      7  H   UNL     1      35.635 -19.123 -19.275  0.00  0.00    -0.080 HD
ENDROOT
BRANCH   2  11
ATOM      8  F   UNL     1      33.630 -12.385 -23.435  0.00  0.00    -0.204 F 
ATOM      9  O   UNL     1      33.969 -16.855 -25.175  0.00  0.00    -0.354 OA
ATOM     10  N   UNL     1      34.392 -18.055 -24.615  0.00  0.00    -0.081 NA
ATOM     11  C   UNL     1      34.733 -17.749 -23.365  0.00  0.00    +0.100 A 
ATOM     12  C   UNL     1      34.556 -16.390 -23.063  0.00  0.00    +0.054 A 
ATOM     13  C   UNL     1      34.069 -15.864 -24.247  0.00  0.00    +0.179 A 
ATOM     14  C   UNL     1      34.738 -15.540 -21.963  0.00  0.00    +0.007 C 
ATOM     15  C   UNL     1      33.738 -14.525 -24.433  0.00  0.00    +0.070 C 
ATOM     16  C   UNL     1      34.416 -14.184 -22.115  0.00  0.00    +0.030 C 
ATOM     17  C   UNL     1      33.926 -13.688 -23.328  0.00  0.00    +0.143 C 
ENDBRANCH   2  11
BRANCH   1  18
ATOM     18  C   UNL     1      36.407 -20.967 -18.894  0.00  0.00    -0.076 C 
BRANCH  18  19
ATOM     19  C   UNL     1      35.327 -22.013 -18.663  0.00  0.00    -0.007 C 
BRANCH  19  23
ATOM     20  O   UNL     1      33.096 -23.220 -17.537  0.00  0.00    -0.274 OA
ATOM     21  N   UNL     1      34.022 -23.441 -15.403  0.00  0.00    -0.211 N 
ATOM     22  N   UNL     1      36.254 -22.721 -15.032  0.00  0.00    -0.395 NA
ATOM     23  C   UNL     1      35.313 -22.459 -17.230  0.00  0.00    +0.123 C 
ATOM     24  C   UNL     1      36.323 -22.335 -16.347  0.00  0.00    +0.097 C 
ATOM     25  C   UNL     1      34.033 -23.073 -16.752  0.00  0.00    +0.241 C 
ATOM     26  C   UNL     1      35.149 -23.245 -14.596  0.00  0.00    +0.188 C 
ATOM     27  C   UNL     1      37.669 -21.771 -16.720  0.00  0.00    +0.062 C 
ATOM     28  C   UNL     1      35.048 -23.674 -13.156  0.00  0.00    +0.023 C 
ATOM     29  C   UNL     1      32.867 -24.011 -14.878  0.00  0.00    +0.074 C 
ATOM     30  C   UNL     1      33.900 -24.216 -12.723  0.00  0.00    +0.001 C 
ATOM     31  C   UNL     1      32.779 -24.391 -13.601  0.00  0.00    +0.016 C 
ATOM     32  C   UNL     1      36.238 -23.475 -12.269  0.00  0.00    +0.035 C 
ENDBRANCH  19  23
ENDBRANCH  18  19
ENDBRANCH   1  18
TORSDOF 4
ENDMDL
MODEL 7
REMARK VINA RESULT:     -12.0      6.797     13.776
REMARK  Name = 71351
REMARK  4 active torsions:
REMARK  status: ('A' for Active; 'I' for Inactive)
REMARK    1  A    between atoms: N_1  and  C_18
REMARK    2  A    between atoms: C_2  and  C_11
REMARK    3  A    between atoms: C_18  and  C_19
REMARK    4  A    between atoms: C_19  and  C_23
REMARK                            x       y       z     vdW  Elec       q    Type
REMARK                         _______ _______ _______ _____ _____    ______ ____
ROOT
ATOM      1  N   UNL     1      32.087 -10.192 -22.569  0.00  0.00    +0.387 N 
ATOM      2  C   UNL     1      33.560 -12.677 -23.081  0.00  0.00    +0.039 C 
ATOM      3  C   UNL     1      33.597 -11.482 -24.047  0.00  0.00    -0.017 C 
ATOM      4  C   UNL     1      32.263 -12.642 -22.256  0.00  0.00    -0.017 C 
ATOM      5  C   UNL     1      33.356 -10.163 -23.308  0.00  0.00    -0.077 C 
ATOM      6  C   UNL     1      32.072 -11.280 -21.582  0.00  0.00    -0.077 C 
ATOM      7  H   UNL     1      31.336 -10.365 -23.239  0.00  0.00    -0.080 HD
ENDROOT
BRANCH   2  11
ATOM      8  F   UNL     1      35.683 -19.056 -22.897  0.00  0.00    -0.204 F 
ATOM      9  O   UNL     1      33.728 -15.438 -25.391  0.00  0.00    -0.354 OA
ATOM     10  N   UNL     1      33.408 -14.128 -25.056  0.00  0.00    -0.081 NA
ATOM     11  C   UNL     1      33.769 -14.000 -23.782  0.00  0.00    +0.100 A 
ATOM     12  C   UNL     1      34.318 -15.175 -23.246  0.00  0.00    +0.054 A 
ATOM     13  C   UNL     1      34.270 -16.061 -24.309  0.00  0.00    +0.179 A 
ATOM     14  C   UNL     1      34.845 -15.609 -22.021  0.00  0.00    +0.007 C 
ATOM     15  C   UNL     1      34.714 -17.378 -24.253  0.00  0.00    +0.070 C 
ATOM     16  C   UNL     1      35.302 -16.931 -21.928  0.00  0.00    +0.030 C 
ATOM     17  C   UNL     1      35.236 -17.798 -23.024  0.00  0.00    +0.143 C 
ENDBRANCH   2  11
BRANCH   1  18
ATOM     18  C   UNL     1      31.844  -8.905 -21.916  0.00  0.00    -0.076 C 
BRANCH  18  19
ATOM     19  C   UNL     1      33.145  -8.122 -21.820  0.00  0.00    -0.007 C 
BRANCH  19  23
ATOM     20  O   UNL     1      31.483  -6.175 -20.752  0.00  0.00    -0.274 OA
ATOM     21  N   UNL     1      31.900  -4.592 -22.421  0.00  0.00    -0.211 N 
ATOM     22  N   UNL     1      33.440  -5.118 -24.151  0.00  0.00    -0.395 NA
ATOM     23  C   UNL     1      33.005  -6.771 -22.459  0.00  0.00    +0.123 C 
ATOM     24  C   UNL     1      33.628  -6.350 -23.577  0.00  0.00    +0.097 C 
ATOM     25  C   UNL     1      32.054  -5.829 -21.787  0.00  0.00    +0.241 C 
ATOM     26  C   UNL     1      32.610  -4.292 -23.589  0.00  0.00    +0.188 C 
ATOM     27  C   UNL     1      34.634  -7.192 -24.317  0.00  0.00    +0.062 C 
ATOM     28  C   UNL     1      32.385  -2.934 -24.202  0.00  0.00    +0.023 C 
ATOM     29  C   UNL     1      31.028  -3.663 -21.865  0.00  0.00    +0.074 C 
ATOM     30  C   UNL     1      31.527  -2.092 -23.607  0.00  0.00    +0.001 C 
ATOM     31  C   UNL     1      30.829  -2.460 -22.409  0.00  0.00    +0.016 C 
ATOM     32  C   UNL     1      33.131  -2.586 -25.454  0.00  0.00    +0.035 C 
ENDBRANCH  19  23
ENDBRANCH  18  19
ENDBRANCH   1  18
TORSDOF 4
ENDMDL
MODEL 8
REMARK VINA RESULT:     -12.0      3.761     10.248
REMARK  Name = 71351
REMARK  4 active torsions:
REMARK  status: ('A' for Active; 'I' for Inactive)
REMARK    1  A    between atoms: N_1  and  C_18
REMARK    2  A    between atoms: C_2  and  C_11
REMARK    3  A    between atoms: C_18  and  C_19
REMARK    4  A    between atoms: C_19  and  C_23
REMARK                            x       y       z     vdW  Elec       q    Type
REMARK                         _______ _______ _______ _____ _____    ______ ____
ROOT
ATOM      1  N   UNL     1      35.288 -16.005 -23.148  0.00  0.00    +0.387 N 
ATOM      2  C   UNL     1      34.841 -18.334 -21.420  0.00  0.00    +0.039 C 
ATOM      3  C   UNL     1      35.295 -16.972 -20.868  0.00  0.00    -0.017 C 
ATOM      4  C   UNL     1      35.261 -18.468 -22.892  0.00  0.00    -0.017 C 
ATOM      5  C   UNL     1      34.823 -15.825 -21.766  0.00  0.00    -0.077 C 
ATOM      6  C   UNL     1      34.790 -17.265 -23.715  0.00  0.00    -0.077 C 
ATOM      7  H   UNL     1      36.307 -16.048 -23.133  0.00  0.00    -0.080 HD
ENDROOT
BRANCH   2  11
ATOM      8  F   UNL     1      33.397 -23.698 -17.629  0.00  0.00    -0.204 F 
ATOM      9  O   UNL     1      36.708 -20.806 -19.580  0.00  0.00    -0.354 OA
ATOM     10  N   UNL     1      36.617 -19.681 -20.390  0.00  0.00    -0.081 NA
ATOM     11  C   UNL     1      35.311 -19.493 -20.571  0.00  0.00    +0.100 A 
ATOM     12  C   UNL     1      34.522 -20.449 -19.914  0.00  0.00    +0.054 A 
ATOM     13  C   UNL     1      35.457 -21.263 -19.298  0.00  0.00    +0.179 A 
ATOM     14  C   UNL     1      33.158 -20.737 -19.756  0.00  0.00    +0.007 C 
ATOM     15  C   UNL     1      35.140 -22.370 -18.517  0.00  0.00    +0.070 C 
ATOM     16  C   UNL     1      32.802 -21.846 -18.975  0.00  0.00    +0.030 C 
ATOM     17  C   UNL     1      33.777 -22.646 -18.369  0.00  0.00    +0.143 C 
ENDBRANCH   2  11
BRANCH   1  18
ATOM     18  C   UNL     1      34.877 -14.873 -23.978  0.00  0.00    -0.076 C 
BRANCH  18  19
ATOM     19  C   UNL     1      33.393 -14.600 -23.783  0.00  0.00    -0.007 C 
BRANCH  19  23
ATOM     20  O   UNL     1      32.477 -13.793 -21.292  0.00  0.00    -0.274 OA
ATOM     21  N   UNL     1      32.375 -11.519 -21.823  0.00  0.00    -0.211 N 
ATOM     22  N   UNL     1      33.065 -10.805 -23.980  0.00  0.00    -0.395 NA
ATOM     23  C   UNL     1      33.153 -13.153 -23.464  0.00  0.00    +0.123 C 
ATOM     24  C   UNL     1      33.336 -12.112 -24.300  0.00  0.00    +0.097 C 
ATOM     25  C   UNL     1      32.636 -12.867 -22.088  0.00  0.00    +0.241 C 
ATOM     26  C   UNL     1      32.605 -10.539 -22.796  0.00  0.00    +0.188 C 
ATOM     27  C   UNL     1      33.887 -12.270 -25.693  0.00  0.00    +0.062 C 
ATOM     28  C   UNL     1      32.298  -9.112 -22.422  0.00  0.00    +0.023 C 
ATOM     29  C   UNL     1      31.884 -11.170 -20.570  0.00  0.00    +0.074 C 
ATOM     30  C   UNL     1      31.827  -8.854 -21.193  0.00  0.00    +0.001 C 
ATOM     31  C   UNL     1      31.612  -9.905 -20.240  0.00  0.00    +0.016 C 
ATOM     32  C   UNL     1      32.534  -8.043 -23.444  0.00  0.00    +0.035 C 
ENDBRANCH  19  23
ENDBRANCH  18  19
ENDBRANCH   1  18
TORSDOF 4
ENDMDL
MODEL 9
REMARK VINA RESULT:     -11.8      3.140     10.337
REMARK  Name = 71351
REMARK  4 active torsions:
REMARK  status: ('A' for Active; 'I' for Inactive)
REMARK    1  A    between atoms: N_1  and  C_18
REMARK    2  A    between atoms: C_2  and  C_11
REMARK    3  A    between atoms: C_18  and  C_19
REMARK    4  A    between atoms: C_19  and  C_23
REMARK                            x       y       z     vdW  Elec       q    Type
REMARK                         _______ _______ _______ _____ _____    ______ ____
ROOT
ATOM      1  N   UNL     1      35.739 -18.287 -21.258  0.00  0.00    +0.387 N 
ATOM      2  C   UNL     1      35.855 -20.819 -19.782  0.00  0.00    +0.039 C 
ATOM      3  C   UNL     1      34.526 -20.161 -20.190  0.00  0.00    -0.017 C 
ATOM      4  C   UNL     1      36.955 -19.751 -19.675  0.00  0.00    -0.017 C 
ATOM      5  C   UNL     1      34.695 -19.302 -21.445  0.00  0.00    -0.077 C 
ATOM      6  C   UNL     1      37.034 -18.908 -20.951  0.00  0.00    -0.077 C 
ATOM      7  H   UNL     1      35.473 -17.704 -20.464  0.00  0.00    -0.080 HD
ENDROOT
BRANCH   2  11
ATOM      8  F   UNL     1      31.984 -24.082 -15.355  0.00  0.00    -0.204 F 
ATOM      9  O   UNL     1      36.379 -22.749 -16.784  0.00  0.00    -0.354 OA
ATOM     10  N   UNL     1      36.831 -21.999 -17.863  0.00  0.00    -0.081 NA
ATOM     11  C   UNL     1      35.731 -21.656 -18.529  0.00  0.00    +0.100 A 
ATOM     12  C   UNL     1      34.556 -22.148 -17.940  0.00  0.00    +0.054 A 
ATOM     13  C   UNL     1      35.021 -22.837 -16.834  0.00  0.00    +0.179 A 
ATOM     14  C   UNL     1      33.176 -22.106 -18.187  0.00  0.00    +0.007 C 
ATOM     15  C   UNL     1      34.205 -23.507 -15.927  0.00  0.00    +0.070 C 
ATOM     16  C   UNL     1      32.324 -22.771 -17.294  0.00  0.00    +0.030 C 
ATOM     17  C   UNL     1      32.831 -23.458 -16.186  0.00  0.00    +0.143 C 
ENDBRANCH   2  11
BRANCH   1  18
ATOM     18  C   UNL     1      35.847 -17.439 -22.446  0.00  0.00    -0.076 C 
BRANCH  18  19
ATOM     19  C   UNL     1      34.463 -17.178 -23.023  0.00  0.00    -0.007 C 
BRANCH  19  23
ATOM     20  O   UNL     1      33.878 -16.119 -25.519  0.00  0.00    -0.274 OA
ATOM     21  N   UNL     1      33.784 -13.898 -24.797  0.00  0.00    -0.211 N 
ATOM     22  N   UNL     1      34.107 -13.418 -22.494  0.00  0.00    -0.395 NA
ATOM     23  C   UNL     1      34.234 -15.708 -23.219  0.00  0.00    +0.123 C 
ATOM     24  C   UNL     1      34.284 -14.759 -22.264  0.00  0.00    +0.097 C 
ATOM     25  C   UNL     1      33.950 -15.276 -24.625  0.00  0.00    +0.241 C 
ATOM     26  C   UNL     1      33.872 -13.023 -23.708  0.00  0.00    +0.188 C 
ATOM     27  C   UNL     1      34.522 -15.076 -20.810  0.00  0.00    +0.062 C 
ATOM     28  C   UNL     1      33.677 -11.555 -23.987  0.00  0.00    +0.023 C 
ATOM     29  C   UNL     1      33.527 -13.414 -26.075  0.00  0.00    +0.074 C 
ATOM     30  C   UNL     1      33.432 -11.165 -25.246  0.00  0.00    +0.001 C 
ATOM     31  C   UNL     1      33.354 -12.113 -26.320  0.00  0.00    +0.016 C 
ATOM     32  C   UNL     1      33.766 -10.596 -22.840  0.00  0.00    +0.035 C 
ENDBRANCH  19  23
ENDBRANCH  18  19
ENDBRANCH   1  18
TORSDOF 4
ENDMDL
