MODEL 1
REMARK VINA RESULT:     -12.1      0.000      0.000
REMARK  Name = 24963046
REMARK  6 active torsions:
REMARK  status: ('A' for Active; 'I' for Inactive)
REMARK    1  A    between atoms: N_1  and  C_27
REMARK    2  A    between atoms: C_4  and  C_16
REMARK    3  A    between atoms: C_13  and  C_22
REMARK    4  A    between atoms: N_21  and  C_24
REMARK    5  A    between atoms: C_27  and  C_28
REMARK    6  A    between atoms: C_28  and  N_30
REMARK                            x       y       z     vdW  Elec       q    Type
REMARK                         _______ _______ _______ _____ _____    ______ ____
ROOT
ATOM      1  N   UNL     1      35.780 -18.198 -23.088  0.00  0.00    -0.270 N 
ATOM      2  N   UNL     1      34.708 -19.528 -21.512  0.00  0.00    -0.338 NA
ATOM      3  N   UNL     1      37.074 -19.085 -21.378  0.00  0.00    -0.170 NA
ATOM      4  C   UNL     1      34.902 -21.865 -18.065  0.00  0.00    -0.000 C 
ATOM      5  C   UNL     1      36.055 -21.262 -18.559  0.00  0.00    +0.004 C 
ATOM      6  C   UNL     1      35.994 -20.474 -19.721  0.00  0.00    +0.050 C 
ATOM      7  C   UNL     1      35.860 -18.972 -21.941  0.00  0.00    +0.145 C 
ATOM      8  C   UNL     1      33.693 -21.680 -18.728  0.00  0.00    +0.003 C 
ATOM      9  C   UNL     1      34.779 -20.280 -20.400  0.00  0.00    +0.146 C 
ATOM     10  C   UNL     1      33.641 -20.894 -19.883  0.00  0.00    +0.033 C 
ATOM     11  C   UNL     1      37.108 -19.845 -20.266  0.00  0.00    +0.114 C 
ATOM     12  H   UNL     1      36.606 -17.779 -23.423  0.00  0.00    +0.159 HD
ENDROOT
BRANCH   4  16
ATOM     13  C   UNL     1      36.274 -23.665 -15.099  0.00  0.00    +0.053 C 
ATOM     14  C   UNL     1      36.193 -22.885 -16.253  0.00  0.00    +0.004 C 
ATOM     15  C   UNL     1      35.121 -24.237 -14.563  0.00  0.00    +0.004 C 
ATOM     16  C   UNL     1      34.960 -22.677 -16.870  0.00  0.00    -0.004 C 
ATOM     17  C   UNL     1      33.807 -23.251 -16.333  0.00  0.00    -0.022 C 
ATOM     18  C   UNL     1      33.887 -24.030 -15.179  0.00  0.00    -0.004 C 
ATOM     19  C   UNL     1      32.467 -23.050 -16.967  0.00  0.00    +0.031 C 
BRANCH  13  22
ATOM     20  O   UNL     1      37.866 -23.255 -13.425  0.00  0.00    -0.270 OA
ATOM     21  N   UNL     1      38.428 -24.800 -15.057  0.00  0.00    -0.302 N 
ATOM     22  C   UNL     1      37.560 -23.881 -14.455  0.00  0.00    +0.246 C 
ATOM     23  H   UNL     1      38.125 -25.263 -15.872  0.00  0.00    +0.150 HD
BRANCH  21  24
ATOM     24  C   UNL     1      39.737 -25.101 -14.547  0.00  0.00    +0.072 C 
ATOM     25  C   UNL     1      39.923 -26.030 -13.384  0.00  0.00    +0.021 C 
ATOM     26  C   UNL     1      40.360 -26.449 -14.757  0.00  0.00    +0.021 C 
ENDBRANCH  21  24
ENDBRANCH  13  22
ENDBRANCH   4  16
BRANCH   1  27
ATOM     27  C   UNL     1      34.556 -17.970 -23.818  0.00  0.00    +0.075 C 
BRANCH  27  28
ATOM     28  C   UNL     1      34.620 -16.618 -24.517  0.00  0.00    -0.055 C 
BRANCH  28  30
ATOM     29  O   UNL     1      33.794 -13.007 -22.543  0.00  0.00    -0.358 OA
ATOM     30  N   UNL     1      33.951 -15.598 -23.712  0.00  0.00    +0.391 N 
ATOM     31  C   UNL     1      33.657 -14.407 -24.522  0.00  0.00    -0.045 C 
ATOM     32  C   UNL     1      34.771 -15.228 -22.551  0.00  0.00    -0.045 C 
ATOM     33  C   UNL     1      32.970 -13.352 -23.659  0.00  0.00    +0.119 C 
ATOM     34  C   UNL     1      34.058 -14.155 -21.734  0.00  0.00    +0.119 C 
ATOM     35  H   UNL     1      33.071 -15.991 -23.379  0.00  0.00    -0.079 HD
ENDBRANCH  28  30
ENDBRANCH  27  28
ENDBRANCH   1  27
TORSDOF 6
ENDMDL
MODEL 2
REMARK VINA RESULT:     -11.9      3.847      6.337
REMARK  Name = 24963046
REMARK  6 active torsions:
REMARK  status: ('A' for Active; 'I' for Inactive)
REMARK    1  A    between atoms: N_1  and  C_27
REMARK    2  A    between atoms: C_4  and  C_16
REMARK    3  A    between atoms: C_13  and  C_22
REMARK    4  A    between atoms: N_21  and  C_24
REMARK    5  A    between atoms: C_27  and  C_28
REMARK    6  A    between atoms: C_28  and  N_30
REMARK                            x       y       z     vdW  Elec       q    Type
REMARK                         _______ _______ _______ _____ _____    ______ ____
ROOT
ATOM      1  N   UNL     1      33.665 -12.059 -23.220  0.00  0.00    -0.270 N 
ATOM      2  N   UNL     1      34.274 -14.299 -23.338  0.00  0.00    -0.338 NA
ATOM      3  N   UNL     1      33.919 -13.205 -21.220  0.00  0.00    -0.170 NA
ATOM      4  C   UNL     1      35.187 -17.873 -21.396  0.00  0.00    -0.000 C 
ATOM      5  C   UNL     1      34.860 -16.744 -20.651  0.00  0.00    +0.004 C 
ATOM      6  C   UNL     1      34.552 -15.536 -21.302  0.00  0.00    +0.050 C 
ATOM      7  C   UNL     1      33.966 -13.240 -22.561  0.00  0.00    +0.145 C 
ATOM      8  C   UNL     1      35.205 -17.797 -22.785  0.00  0.00    +0.003 C 
ATOM      9  C   UNL     1      34.567 -15.448 -22.704  0.00  0.00    +0.146 C 
ATOM     10  C   UNL     1      34.897 -16.593 -23.424  0.00  0.00    +0.033 C 
ATOM     11  C   UNL     1      34.218 -14.373 -20.617  0.00  0.00    +0.114 C 
ATOM     12  H   UNL     1      33.436 -11.270 -22.678  0.00  0.00    +0.159 HD
ENDROOT
BRANCH   4  16
ATOM     13  C   UNL     1      34.751 -21.100 -19.576  0.00  0.00    +0.053 C 
ATOM     14  C   UNL     1      34.468 -19.897 -20.222  0.00  0.00    +0.004 C 
ATOM     15  C   UNL     1      36.073 -21.523 -19.439  0.00  0.00    +0.004 C 
ATOM     16  C   UNL     1      35.506 -19.116 -20.730  0.00  0.00    -0.004 C 
ATOM     17  C   UNL     1      36.828 -19.540 -20.592  0.00  0.00    -0.022 C 
ATOM     18  C   UNL     1      37.112 -20.744 -19.947  0.00  0.00    -0.004 C 
ATOM     19  C   UNL     1      37.968 -18.730 -21.124  0.00  0.00    +0.031 C 
BRANCH  13  22
ATOM     20  O   UNL     1      32.586 -22.003 -19.653  0.00  0.00    -0.270 OA
ATOM     21  N   UNL     1      33.899 -22.566 -17.829  0.00  0.00    -0.302 N 
ATOM     22  C   UNL     1      33.669 -21.915 -19.046  0.00  0.00    +0.246 C 
ATOM     23  H   UNL     1      34.779 -22.456 -17.398  0.00  0.00    +0.150 HD
BRANCH  21  24
ATOM     24  C   UNL     1      32.918 -23.387 -17.174  0.00  0.00    +0.072 C 
ATOM     25  C   UNL     1      32.843 -23.465 -15.678  0.00  0.00    +0.021 C 
ATOM     26  C   UNL     1      31.755 -22.777 -16.450  0.00  0.00    +0.021 C 
ENDBRANCH  21  24
ENDBRANCH  13  22
ENDBRANCH   4  16
BRANCH   1  27
ATOM     27  C   UNL     1      33.668 -11.920 -24.657  0.00  0.00    +0.075 C 
BRANCH  27  28
ATOM     28  C   UNL     1      34.166 -10.531 -25.037  0.00  0.00    -0.055 C 
BRANCH  28  30
ATOM     29  O   UNL     1      33.400  -7.116 -22.720  0.00  0.00    -0.358 OA
ATOM     30  N   UNL     1      34.058  -9.623 -23.897  0.00  0.00    +0.391 N 
ATOM     31  C   UNL     1      32.661  -9.217 -23.685  0.00  0.00    -0.045 C 
ATOM     32  C   UNL     1      34.904  -8.437 -24.092  0.00  0.00    -0.045 C 
ATOM     33  C   UNL     1      32.575  -8.261 -22.499  0.00  0.00    +0.119 C 
ATOM     34  C   UNL     1      34.765  -7.500 -22.895  0.00  0.00    +0.119 C 
ATOM     35  H   UNL     1      34.381 -10.123 -23.068  0.00  0.00    -0.079 HD
ENDBRANCH  28  30
ENDBRANCH  27  28
ENDBRANCH   1  27
TORSDOF 6
ENDMDL
MODEL 3
REMARK VINA RESULT:     -11.9      2.161     11.508
REMARK  Name = 24963046
REMARK  6 active torsions:
REMARK  status: ('A' for Active; 'I' for Inactive)
REMARK    1  A    between atoms: N_1  and  C_27
REMARK    2  A    between atoms: C_4  and  C_16
REMARK    3  A    between atoms: C_13  and  C_22
REMARK    4  A    between atoms: N_21  and  C_24
REMARK    5  A    between atoms: C_27  and  C_28
REMARK    6  A    between atoms: C_28  and  N_30
REMARK                            x       y       z     vdW  Elec       q    Type
REMARK                         _______ _______ _______ _____ _____    ______ ____
ROOT
ATOM      1  N   UNL     1      36.393 -22.839 -16.728  0.00  0.00    -0.270 N 
ATOM      2  N   UNL     1      36.811 -21.117 -18.233  0.00  0.00    -0.338 NA
ATOM      3  N   UNL     1      34.704 -22.288 -18.219  0.00  0.00    -0.170 NA
ATOM      4  C   UNL     1      35.511 -18.712 -21.379  0.00  0.00    -0.000 C 
ATOM      5  C   UNL     1      34.667 -19.689 -20.860  0.00  0.00    +0.004 C 
ATOM      6  C   UNL     1      35.102 -20.503 -19.799  0.00  0.00    +0.050 C 
ATOM      7  C   UNL     1      35.948 -22.047 -17.774  0.00  0.00    +0.145 C 
ATOM      8  C   UNL     1      36.782 -18.547 -20.840  0.00  0.00    +0.003 C 
ATOM      9  C   UNL     1      36.384 -20.345 -19.247  0.00  0.00    +0.146 C 
ATOM     10  C   UNL     1      37.207 -19.359 -19.785  0.00  0.00    +0.033 C 
ATOM     11  C   UNL     1      34.309 -21.497 -19.236  0.00  0.00    +0.114 C 
ATOM     12  H   UNL     1      35.783 -23.526 -16.373  0.00  0.00    +0.159 HD
ENDROOT
BRANCH   4  16
ATOM     13  C   UNL     1      34.484 -15.677 -23.291  0.00  0.00    +0.053 C 
ATOM     14  C   UNL     1      34.910 -16.505 -22.252  0.00  0.00    +0.004 C 
ATOM     15  C   UNL     1      34.217 -16.218 -24.548  0.00  0.00    +0.004 C 
ATOM     16  C   UNL     1      35.068 -17.874 -22.471  0.00  0.00    -0.004 C 
ATOM     17  C   UNL     1      34.800 -18.414 -23.729  0.00  0.00    -0.022 C 
ATOM     18  C   UNL     1      34.375 -17.586 -24.768  0.00  0.00    -0.004 C 
ATOM     19  C   UNL     1      34.959 -19.876 -24.002  0.00  0.00    +0.031 C 
BRANCH  13  22
ATOM     20  O   UNL     1      34.679 -13.733 -21.991  0.00  0.00    -0.270 OA
ATOM     21  N   UNL     1      33.725 -13.506 -24.090  0.00  0.00    -0.302 N 
ATOM     22  C   UNL     1      34.319 -14.250 -23.063  0.00  0.00    +0.246 C 
ATOM     23  H   UNL     1      33.462 -13.975 -24.915  0.00  0.00    +0.150 HD
BRANCH  21  24
ATOM     24  C   UNL     1      33.479 -12.093 -24.000  0.00  0.00    +0.072 C 
ATOM     25  C   UNL     1      34.552 -11.095 -24.321  0.00  0.00    +0.021 C 
ATOM     26  C   UNL     1      33.368 -11.245 -25.232  0.00  0.00    +0.021 C 
ENDBRANCH  21  24
ENDBRANCH  13  22
ENDBRANCH   4  16
BRANCH   1  27
ATOM     27  C   UNL     1      37.701 -22.715 -16.129  0.00  0.00    +0.075 C 
BRANCH  27  28
ATOM     28  C   UNL     1      37.584 -22.838 -14.615  0.00  0.00    -0.055 C 
BRANCH  28  30
ATOM     29  O   UNL     1      38.396 -26.515 -12.761  0.00  0.00    -0.358 OA
ATOM     30  N   UNL     1      37.500 -24.244 -14.224  0.00  0.00    +0.391 N 
ATOM     31  C   UNL     1      37.260 -24.370 -12.780  0.00  0.00    -0.045 C 
ATOM     32  C   UNL     1      38.726 -24.963 -14.597  0.00  0.00    -0.045 C 
ATOM     33  C   UNL     1      37.189 -25.844 -12.394  0.00  0.00    +0.119 C 
ATOM     34  C   UNL     1      38.619 -26.424 -14.169  0.00  0.00    +0.119 C 
ATOM     35  H   UNL     1      36.713 -24.660 -14.722  0.00  0.00    -0.079 HD
ENDBRANCH  28  30
ENDBRANCH  27  28
ENDBRANCH   1  27
TORSDOF 6
ENDMDL
MODEL 4
REMARK VINA RESULT:     -11.5      2.353      4.368
REMARK  Name = 24963046
REMARK  6 active torsions:
REMARK  status: ('A' for Active; 'I' for Inactive)
REMARK    1  A    between atoms: N_1  and  C_27
REMARK    2  A    between atoms: C_4  and  C_16
REMARK    3  A    between atoms: C_13  and  C_22
REMARK    4  A    between atoms: N_21  and  C_24
REMARK    5  A    between atoms: C_27  and  C_28
REMARK    6  A    between atoms: C_28  and  N_30
REMARK                            x       y       z     vdW  Elec       q    Type
REMARK                         _______ _______ _______ _____ _____    ______ ____
ROOT
ATOM      1  N   UNL     1      34.262 -19.343 -22.462  0.00  0.00    -0.270 N 
ATOM      2  N   UNL     1      35.373 -20.271 -20.645  0.00  0.00    -0.338 NA
ATOM      3  N   UNL     1      32.977 -20.419 -20.859  0.00  0.00    -0.170 NA
ATOM      4  C   UNL     1      35.231 -22.374 -17.048  0.00  0.00    -0.000 C 
ATOM      5  C   UNL     1      34.054 -22.107 -17.741  0.00  0.00    +0.004 C 
ATOM      6  C   UNL     1      34.098 -21.397 -18.954  0.00  0.00    +0.050 C 
ATOM      7  C   UNL     1      34.199 -20.042 -21.268  0.00  0.00    +0.145 C 
ATOM      8  C   UNL     1      36.446 -21.937 -17.565  0.00  0.00    +0.003 C 
ATOM      9  C   UNL     1      35.319 -20.950 -19.486  0.00  0.00    +0.146 C 
ATOM     10  C   UNL     1      36.481 -21.233 -18.772  0.00  0.00    +0.033 C 
ATOM     11  C   UNL     1      32.959 -21.097 -19.695  0.00  0.00    +0.114 C 
ATOM     12  H   UNL     1      33.419 -19.162 -22.940  0.00  0.00    +0.159 HD
ENDROOT
BRANCH   4  16
ATOM     13  C   UNL     1      33.891 -24.186 -14.075  0.00  0.00    +0.053 C 
ATOM     14  C   UNL     1      33.954 -23.482 -15.278  0.00  0.00    +0.004 C 
ATOM     15  C   UNL     1      35.064 -24.510 -13.394  0.00  0.00    +0.004 C 
ATOM     16  C   UNL     1      35.190 -23.102 -15.800  0.00  0.00    -0.004 C 
ATOM     17  C   UNL     1      36.364 -23.427 -15.118  0.00  0.00    -0.022 C 
ATOM     18  C   UNL     1      36.301 -24.131 -13.915  0.00  0.00    -0.004 C 
ATOM     19  C   UNL     1      37.708 -23.037 -15.646  0.00  0.00    +0.031 C 
BRANCH  13  22
ATOM     20  O   UNL     1      32.530 -25.179 -12.442  0.00  0.00    -0.270 OA
ATOM     21  N   UNL     1      31.467 -24.279 -14.294  0.00  0.00    -0.302 N 
ATOM     22  C   UNL     1      32.601 -24.582 -13.531  0.00  0.00    +0.246 C 
ATOM     23  H   UNL     1      31.592 -23.805 -15.148  0.00  0.00    +0.150 HD
BRANCH  21  24
ATOM     24  C   UNL     1      30.131 -24.627 -13.895  0.00  0.00    +0.072 C 
ATOM     25  C   UNL     1      28.973 -24.466 -14.834  0.00  0.00    +0.021 C 
ATOM     26  C   UNL     1      29.445 -25.838 -14.452  0.00  0.00    +0.021 C 
ENDBRANCH  21  24
ENDBRANCH  13  22
ENDBRANCH   4  16
BRANCH   1  27
ATOM     27  C   UNL     1      35.491 -18.864 -23.047  0.00  0.00    +0.075 C 
BRANCH  27  28
ATOM     28  C   UNL     1      35.796 -17.465 -22.526  0.00  0.00    -0.055 C 
BRANCH  28  30
ATOM     29  O   UNL     1      33.790 -14.066 -23.950  0.00  0.00    -0.358 OA
ATOM     30  N   UNL     1      34.731 -16.539 -22.901  0.00  0.00    +0.391 N 
ATOM     31  C   UNL     1      34.777 -16.248 -24.342  0.00  0.00    -0.045 C 
ATOM     32  C   UNL     1      34.828 -15.291 -22.132  0.00  0.00    -0.045 C 
ATOM     33  C   UNL     1      33.664 -15.270 -24.708  0.00  0.00    +0.119 C 
ATOM     34  C   UNL     1      33.713 -14.337 -22.550  0.00  0.00    +0.119 C 
ATOM     35  H   UNL     1      33.839 -16.986 -22.688  0.00  0.00    -0.079 HD
ENDBRANCH  28  30
ENDBRANCH  27  28
ENDBRANCH   1  27
TORSDOF 6
ENDMDL
MODEL 5
REMARK VINA RESULT:     -11.4      2.272     10.997
REMARK  Name = 24963046
REMARK  6 active torsions:
REMARK  status: ('A' for Active; 'I' for Inactive)
REMARK    1  A    between atoms: N_1  and  C_27
REMARK    2  A    between atoms: C_4  and  C_16
REMARK    3  A    between atoms: C_13  and  C_22
REMARK    4  A    between atoms: N_21  and  C_24
REMARK    5  A    between atoms: C_27  and  C_28
REMARK    6  A    between atoms: C_28  and  N_30
REMARK                            x       y       z     vdW  Elec       q    Type
REMARK                         _______ _______ _______ _____ _____    ______ ____
ROOT
ATOM      1  N   UNL     1      34.322 -23.725 -16.135  0.00  0.00    -0.270 N 
ATOM      2  N   UNL     1      35.357 -22.339 -17.688  0.00  0.00    -0.338 NA
ATOM      3  N   UNL     1      32.962 -22.604 -17.643  0.00  0.00    -0.170 NA
ATOM      4  C   UNL     1      35.056 -19.704 -20.903  0.00  0.00    -0.000 C 
ATOM      5  C   UNL     1      33.905 -20.265 -20.357  0.00  0.00    +0.004 C 
ATOM      6  C   UNL     1      34.003 -21.154 -19.273  0.00  0.00    +0.050 C 
ATOM      7  C   UNL     1      34.206 -22.850 -17.203  0.00  0.00    +0.145 C 
ATOM      8  C   UNL     1      36.298 -20.029 -20.368  0.00  0.00    +0.003 C 
ATOM      9  C   UNL     1      35.252 -21.490 -18.724  0.00  0.00    +0.146 C 
ATOM     10  C   UNL     1      36.386 -20.914 -19.290  0.00  0.00    +0.033 C 
ATOM     11  C   UNL     1      32.893 -21.749 -18.682  0.00  0.00    +0.114 C 
ATOM     12  H   UNL     1      33.497 -24.112 -15.760  0.00  0.00    +0.159 HD
ENDROOT
BRANCH   4  16
ATOM     13  C   UNL     1      34.682 -16.529 -22.827  0.00  0.00    +0.053 C 
ATOM     14  C   UNL     1      34.777 -17.430 -21.766  0.00  0.00    +0.004 C 
ATOM     15  C   UNL     1      34.772 -16.988 -24.141  0.00  0.00    +0.004 C 
ATOM     16  C   UNL     1      34.960 -18.789 -22.019  0.00  0.00    -0.004 C 
ATOM     17  C   UNL     1      35.050 -19.247 -23.334  0.00  0.00    -0.022 C 
ATOM     18  C   UNL     1      34.956 -18.347 -24.395  0.00  0.00    -0.004 C 
ATOM     19  C   UNL     1      35.248 -20.697 -23.645  0.00  0.00    +0.031 C 
BRANCH  13  22
ATOM     20  O   UNL     1      34.982 -14.255 -23.319  0.00  0.00    -0.270 OA
ATOM     21  N   UNL     1      33.754 -14.770 -21.423  0.00  0.00    -0.302 N 
ATOM     22  C   UNL     1      34.490 -15.112 -22.563  0.00  0.00    +0.246 C 
ATOM     23  H   UNL     1      33.391 -15.496 -20.865  0.00  0.00    +0.150 HD
BRANCH  21  24
ATOM     24  C   UNL     1      33.501 -13.412 -21.024  0.00  0.00    +0.072 C 
ATOM     25  C   UNL     1      32.383 -12.619 -21.634  0.00  0.00    +0.021 C 
ATOM     26  C   UNL     1      32.299 -13.057 -20.201  0.00  0.00    +0.021 C 
ENDBRANCH  21  24
ENDBRANCH  13  22
ENDBRANCH   4  16
BRANCH   1  27
ATOM     27  C   UNL     1      35.582 -24.099 -15.538  0.00  0.00    +0.075 C 
BRANCH  27  28
ATOM     28  C   UNL     1      35.910 -23.147 -14.394  0.00  0.00    -0.055 C 
BRANCH  28  30
ATOM     29  O   UNL     1      36.565 -26.037 -11.422  0.00  0.00    -0.358 OA
ATOM     30  N   UNL     1      36.504 -23.880 -13.278  0.00  0.00    +0.391 N 
ATOM     31  C   UNL     1      36.888 -25.237 -13.690  0.00  0.00    -0.045 C 
ATOM     32  C   UNL     1      35.574 -23.942 -12.141  0.00  0.00    -0.045 C 
ATOM     33  C   UNL     1      37.493 -25.986 -12.507  0.00  0.00    +0.119 C 
ATOM     34  C   UNL     1      36.212 -24.721 -10.994  0.00  0.00    +0.119 C 
ATOM     35  H   UNL     1      37.343 -23.378 -12.987  0.00  0.00    -0.079 HD
ENDBRANCH  28  30
ENDBRANCH  27  28
ENDBRANCH   1  27
TORSDOF 6
ENDMDL
MODEL 6
REMARK VINA RESULT:     -11.3      1.221      2.093
REMARK  Name = 24963046
REMARK  6 active torsions:
REMARK  status: ('A' for Active; 'I' for Inactive)
REMARK    1  A    between atoms: N_1  and  C_27
REMARK    2  A    between atoms: C_4  and  C_16
REMARK    3  A    between atoms: C_13  and  C_22
REMARK    4  A    between atoms: N_21  and  C_24
REMARK    5  A    between atoms: C_27  and  C_28
REMARK    6  A    between atoms: C_28  and  N_30
REMARK                            x       y       z     vdW  Elec       q    Type
REMARK                         _______ _______ _______ _____ _____    ______ ____
ROOT
ATOM      1  N   UNL     1      34.127 -19.124 -22.578  0.00  0.00    -0.270 N 
ATOM      2  N   UNL     1      35.160 -20.182 -20.785  0.00  0.00    -0.338 NA
ATOM      3  N   UNL     1      32.765 -20.221 -21.054  0.00  0.00    -0.170 NA
ATOM      4  C   UNL     1      34.856 -22.443 -17.296  0.00  0.00    -0.000 C 
ATOM      5  C   UNL     1      33.706 -22.095 -17.999  0.00  0.00    +0.004 C 
ATOM      6  C   UNL     1      33.804 -21.332 -19.176  0.00  0.00    +0.050 C 
ATOM      7  C   UNL     1      34.010 -19.875 -21.420  0.00  0.00    +0.145 C 
ATOM      8  C   UNL     1      36.098 -22.032 -17.767  0.00  0.00    +0.003 C 
ATOM      9  C   UNL     1      35.054 -20.911 -19.661  0.00  0.00    +0.146 C 
ATOM     10  C   UNL     1      36.187 -21.274 -18.938  0.00  0.00    +0.033 C 
ATOM     11  C   UNL     1      32.695 -20.951 -19.924  0.00  0.00    +0.114 C 
ATOM     12  H   UNL     1      33.303 -18.887 -23.063  0.00  0.00    +0.159 HD
ENDROOT
BRANCH   4  16
ATOM     13  C   UNL     1      35.858 -24.458 -14.321  0.00  0.00    +0.053 C 
ATOM     14  C   UNL     1      35.927 -23.701 -15.490  0.00  0.00    +0.004 C 
ATOM     15  C   UNL     1      34.620 -24.741 -13.746  0.00  0.00    +0.004 C 
ATOM     16  C   UNL     1      34.758 -23.227 -16.085  0.00  0.00    -0.004 C 
ATOM     17  C   UNL     1      33.519 -23.510 -15.509  0.00  0.00    -0.022 C 
ATOM     18  C   UNL     1      33.450 -24.267 -14.340  0.00  0.00    -0.004 C 
ATOM     19  C   UNL     1      32.244 -23.019 -16.117  0.00  0.00    +0.031 C 
BRANCH  13  22
ATOM     20  O   UNL     1      37.320 -24.718 -12.504  0.00  0.00    -0.270 OA
ATOM     21  N   UNL     1      37.957 -25.677 -14.514  0.00  0.00    -0.302 N 
ATOM     22  C   UNL     1      37.077 -24.953 -13.701  0.00  0.00    +0.246 C 
ATOM     23  H   UNL     1      37.707 -25.829 -15.455  0.00  0.00    +0.150 HD
BRANCH  21  24
ATOM     24  C   UNL     1      39.208 -26.210 -14.046  0.00  0.00    +0.072 C 
ATOM     25  C   UNL     1      40.223 -26.762 -15.002  0.00  0.00    +0.021 C 
ATOM     26  C   UNL     1      40.496 -25.478 -14.275  0.00  0.00    +0.021 C 
ENDBRANCH  21  24
ENDBRANCH  13  22
ENDBRANCH   4  16
BRANCH   1  27
ATOM     27  C   UNL     1      35.387 -18.669 -23.115  0.00  0.00    +0.075 C 
BRANCH  27  28
ATOM     28  C   UNL     1      35.853 -17.434 -22.353  0.00  0.00    -0.055 C 
BRANCH  28  30
ATOM     29  O   UNL     1      33.314 -14.437 -23.830  0.00  0.00    -0.358 OA
ATOM     30  N   UNL     1      35.375 -16.220 -23.012  0.00  0.00    +0.391 N 
ATOM     31  C   UNL     1      34.697 -15.338 -22.051  0.00  0.00    -0.045 C 
ATOM     32  C   UNL     1      34.470 -16.550 -24.121  0.00  0.00    -0.045 C 
ATOM     33  C   UNL     1      34.197 -14.085 -22.763  0.00  0.00    +0.119 C 
ATOM     34  C   UNL     1      33.977 -15.267 -24.785  0.00  0.00    +0.119 C 
ATOM     35  H   UNL     1      36.187 -15.729 -23.387  0.00  0.00    -0.079 HD
ENDBRANCH  28  30
ENDBRANCH  27  28
ENDBRANCH   1  27
TORSDOF 6
ENDMDL
MODEL 7
REMARK VINA RESULT:     -11.1      6.715     15.724
REMARK  Name = 24963046
REMARK  6 active torsions:
REMARK  status: ('A' for Active; 'I' for Inactive)
REMARK    1  A    between atoms: N_1  and  C_27
REMARK    2  A    between atoms: C_4  and  C_16
REMARK    3  A    between atoms: C_13  and  C_22
REMARK    4  A    between atoms: N_21  and  C_24
REMARK    5  A    between atoms: C_27  and  C_28
REMARK    6  A    between atoms: C_28  and  N_30
REMARK                            x       y       z     vdW  Elec       q    Type
REMARK                         _______ _______ _______ _____ _____    ______ ____
ROOT
ATOM      1  N   UNL     1      33.430 -14.410 -22.866  0.00  0.00    -0.270 N 
ATOM      2  N   UNL     1      33.828 -12.160 -23.292  0.00  0.00    -0.338 NA
ATOM      3  N   UNL     1      31.993 -12.868 -21.899  0.00  0.00    -0.170 NA
ATOM      4  C   UNL     1      32.765  -8.167 -22.748  0.00  0.00    -0.000 C 
ATOM      5  C   UNL     1      32.019  -9.171 -22.138  0.00  0.00    +0.004 C 
ATOM      6  C   UNL     1      32.374 -10.519 -22.320  0.00  0.00    +0.050 C 
ATOM      7  C   UNL     1      33.066 -13.088 -22.676  0.00  0.00    +0.145 C 
ATOM      8  C   UNL     1      33.861  -8.507 -23.534  0.00  0.00    +0.003 C 
ATOM      9  C   UNL     1      33.479 -10.875 -23.112  0.00  0.00    +0.146 C 
ATOM     10  C   UNL     1      34.207  -9.850 -23.709  0.00  0.00    +0.033 C 
ATOM     11  C   UNL     1      31.671 -11.570 -21.739  0.00  0.00    +0.114 C 
ATOM     12  H   UNL     1      32.892 -15.108 -22.427  0.00  0.00    +0.159 HD
ENDROOT
BRANCH   4  16
ATOM     13  C   UNL     1      31.796  -4.651 -23.536  0.00  0.00    +0.053 C 
ATOM     14  C   UNL     1      32.147  -5.992 -23.688  0.00  0.00    +0.004 C 
ATOM     15  C   UNL     1      31.699  -4.097 -22.260  0.00  0.00    +0.004 C 
ATOM     16  C   UNL     1      32.403  -6.779 -22.565  0.00  0.00    -0.004 C 
ATOM     17  C   UNL     1      32.306  -6.223 -21.289  0.00  0.00    -0.022 C 
ATOM     18  C   UNL     1      31.954  -4.882 -21.136  0.00  0.00    -0.004 C 
ATOM     19  C   UNL     1      32.572  -7.035 -20.061  0.00  0.00    +0.031 C 
BRANCH  13  22
ATOM     20  O   UNL     1      30.563  -3.047 -24.725  0.00  0.00    -0.270 OA
ATOM     21  N   UNL     1      32.390  -3.983 -25.801  0.00  0.00    -0.302 N 
ATOM     22  C   UNL     1      31.529  -3.831 -24.707  0.00  0.00    +0.246 C 
ATOM     23  H   UNL     1      33.137  -4.621 -25.723  0.00  0.00    +0.150 HD
BRANCH  21  24
ATOM     24  C   UNL     1      32.239  -3.256 -27.031  0.00  0.00    +0.072 C 
ATOM     25  C   UNL     1      33.211  -2.184 -27.425  0.00  0.00    +0.021 C 
ATOM     26  C   UNL     1      33.173  -3.478 -28.183  0.00  0.00    +0.021 C 
ENDBRANCH  21  24
ENDBRANCH  13  22
ENDBRANCH   4  16
BRANCH   1  27
ATOM     27  C   UNL     1      34.556 -14.824 -23.670  0.00  0.00    +0.075 C 
BRANCH  27  28
ATOM     28  C   UNL     1      34.173 -16.044 -24.498  0.00  0.00    -0.055 C 
BRANCH  28  30
ATOM     29  O   UNL     1      35.175 -19.452 -22.263  0.00  0.00    -0.358 OA
ATOM     30  N   UNL     1      34.880 -17.229 -24.015  0.00  0.00    +0.391 N 
ATOM     31  C   UNL     1      34.038 -18.427 -24.146  0.00  0.00    -0.045 C 
ATOM     32  C   UNL     1      35.296 -17.055 -22.617  0.00  0.00    -0.045 C 
ATOM     33  C   UNL     1      34.792 -19.647 -23.626  0.00  0.00    +0.119 C 
ATOM     34  C   UNL     1      36.020 -18.308 -22.133  0.00  0.00    +0.119 C 
ATOM     35  H   UNL     1      35.713 -17.352 -24.592  0.00  0.00    -0.079 HD
ENDBRANCH  28  30
ENDBRANCH  27  28
ENDBRANCH   1  27
TORSDOF 6
ENDMDL
MODEL 8
REMARK VINA RESULT:     -11.1      3.988     13.056
REMARK  Name = 24963046
REMARK  6 active torsions:
REMARK  status: ('A' for Active; 'I' for Inactive)
REMARK    1  A    between atoms: N_1  and  C_27
REMARK    2  A    between atoms: C_4  and  C_16
REMARK    3  A    between atoms: C_13  and  C_22
REMARK    4  A    between atoms: N_21  and  C_24
REMARK    5  A    between atoms: C_27  and  C_28
REMARK    6  A    between atoms: C_28  and  N_30
REMARK                            x       y       z     vdW  Elec       q    Type
REMARK                         _______ _______ _______ _____ _____    ______ ____
ROOT
ATOM      1  N   UNL     1      35.346 -18.588 -23.193  0.00  0.00    -0.270 N 
ATOM      2  N   UNL     1      34.825 -16.557 -22.191  0.00  0.00    -0.338 NA
ATOM      3  N   UNL     1      34.641 -16.863 -24.575  0.00  0.00    -0.170 NA
ATOM      4  C   UNL     1      33.543 -12.607 -22.548  0.00  0.00    -0.000 C 
ATOM      5  C   UNL     1      33.658 -13.403 -23.684  0.00  0.00    +0.004 C 
ATOM      6  C   UNL     1      34.091 -14.736 -23.568  0.00  0.00    +0.050 C 
ATOM      7  C   UNL     1      34.919 -17.278 -23.328  0.00  0.00    +0.145 C 
ATOM      8  C   UNL     1      33.856 -13.140 -21.302  0.00  0.00    +0.003 C 
ATOM      9  C   UNL     1      34.411 -15.284 -22.314  0.00  0.00    +0.146 C 
ATOM     10  C   UNL     1      34.285 -14.466 -21.195  0.00  0.00    +0.033 C 
ATOM     11  C   UNL     1      34.229 -15.584 -24.662  0.00  0.00    +0.114 C 
ATOM     12  H   UNL     1      35.422 -19.138 -24.007  0.00  0.00    +0.159 HD
ENDROOT
BRANCH   4  16
ATOM     13  C   UNL     1      33.492  -8.993 -23.470  0.00  0.00    +0.053 C 
ATOM     14  C   UNL     1      33.900 -10.321 -23.346  0.00  0.00    +0.004 C 
ATOM     15  C   UNL     1      32.283  -8.580 -22.913  0.00  0.00    +0.004 C 
ATOM     16  C   UNL     1      33.099 -11.236 -22.664  0.00  0.00    -0.004 C 
ATOM     17  C   UNL     1      31.888 -10.822 -22.107  0.00  0.00    -0.022 C 
ATOM     18  C   UNL     1      31.480  -9.494 -22.232  0.00  0.00    -0.004 C 
ATOM     19  C   UNL     1      31.002 -11.775 -21.369  0.00  0.00    +0.031 C 
BRANCH  13  22
ATOM     20  O   UNL     1      35.275  -8.427 -24.887  0.00  0.00    -0.270 OA
ATOM     21  N   UNL     1      34.027  -6.680 -24.015  0.00  0.00    -0.302 N 
ATOM     22  C   UNL     1      34.328  -8.038 -24.181  0.00  0.00    +0.246 C 
ATOM     23  H   UNL     1      33.263  -6.437 -23.442  0.00  0.00    +0.150 HD
BRANCH  21  24
ATOM     24  C   UNL     1      34.777  -5.624 -24.637  0.00  0.00    +0.072 C 
ATOM     25  C   UNL     1      34.706  -5.388 -26.117  0.00  0.00    +0.021 C 
ATOM     26  C   UNL     1      34.095  -4.398 -25.168  0.00  0.00    +0.021 C 
ENDBRANCH  21  24
ENDBRANCH  13  22
ENDBRANCH   4  16
BRANCH   1  27
ATOM     27  C   UNL     1      35.685 -19.195 -21.929  0.00  0.00    +0.075 C 
BRANCH  27  28
ATOM     28  C   UNL     1      34.418 -19.689 -21.241  0.00  0.00    -0.055 C 
BRANCH  28  30
ATOM     29  O   UNL     1      35.478 -22.507 -18.317  0.00  0.00    -0.358 OA
ATOM     30  N   UNL     1      34.743 -20.296 -19.952  0.00  0.00    +0.391 N 
ATOM     31  C   UNL     1      36.110 -20.836 -19.960  0.00  0.00    -0.045 C 
ATOM     32  C   UNL     1      33.784 -21.358 -19.618  0.00  0.00    -0.045 C 
ATOM     33  C   UNL     1      36.422 -21.475 -18.610  0.00  0.00    +0.119 C 
ATOM     34  C   UNL     1      34.150 -21.983 -18.275  0.00  0.00    +0.119 C 
ATOM     35  H   UNL     1      34.685 -19.567 -19.240  0.00  0.00    -0.079 HD
ENDBRANCH  28  30
ENDBRANCH  27  28
ENDBRANCH   1  27
TORSDOF 6
ENDMDL
MODEL 9
REMARK VINA RESULT:     -10.7      6.198     11.851
REMARK  Name = 24963046
REMARK  6 active torsions:
REMARK  status: ('A' for Active; 'I' for Inactive)
REMARK    1  A    between atoms: N_1  and  C_27
REMARK    2  A    between atoms: C_4  and  C_16
REMARK    3  A    between atoms: C_13  and  C_22
REMARK    4  A    between atoms: N_21  and  C_24
REMARK    5  A    between atoms: C_27  and  C_28
REMARK    6  A    between atoms: C_28  and  N_30
REMARK                            x       y       z     vdW  Elec       q    Type
REMARK                         _______ _______ _______ _____ _____    ______ ____
ROOT
ATOM      1  N   UNL     1      32.050  -5.697 -22.119  0.00  0.00    -0.270 N 
ATOM      2  N   UNL     1      33.065  -7.497 -23.183  0.00  0.00    -0.338 NA
ATOM      3  N   UNL     1      31.529  -7.825 -21.355  0.00  0.00    -0.170 NA
ATOM      4  C   UNL     1      33.612 -11.615 -23.530  0.00  0.00    -0.000 C 
ATOM      5  C   UNL     1      32.753 -11.109 -22.558  0.00  0.00    +0.004 C 
ATOM      6  C   UNL     1      32.566  -9.721 -22.438  0.00  0.00    +0.050 C 
ATOM      7  C   UNL     1      32.221  -7.068 -22.222  0.00  0.00    +0.145 C 
ATOM      8  C   UNL     1      34.279 -10.738 -24.378  0.00  0.00    +0.003 C 
ATOM      9  C   UNL     1      33.236  -8.826 -23.289  0.00  0.00    +0.146 C 
ATOM     10  C   UNL     1      34.088  -9.359 -24.252  0.00  0.00    +0.033 C 
ATOM     11  C   UNL     1      31.723  -9.152 -21.489  0.00  0.00    +0.114 C 
ATOM     12  H   UNL     1      31.438  -5.357 -21.426  0.00  0.00    +0.159 HD
ENDROOT
BRANCH   4  16
ATOM     13  C   UNL     1      34.432 -15.144 -22.644  0.00  0.00    +0.053 C 
ATOM     14  C   UNL     1      34.237 -13.767 -22.545  0.00  0.00    +0.004 C 
ATOM     15  C   UNL     1      34.196 -15.797 -23.853  0.00  0.00    +0.004 C 
ATOM     16  C   UNL     1      33.807 -13.042 -23.656  0.00  0.00    -0.004 C 
ATOM     17  C   UNL     1      33.571 -13.696 -24.866  0.00  0.00    -0.022 C 
ATOM     18  C   UNL     1      33.765 -15.073 -24.965  0.00  0.00    -0.004 C 
ATOM     19  C   UNL     1      33.109 -12.952 -26.079  0.00  0.00    +0.031 C 
BRANCH  13  22
ATOM     20  O   UNL     1      34.827 -15.406 -20.345  0.00  0.00    -0.270 OA
ATOM     21  N   UNL     1      35.387 -17.185 -21.720  0.00  0.00    -0.302 N 
ATOM     22  C   UNL     1      34.881 -15.901 -21.485  0.00  0.00    +0.246 C 
ATOM     23  H   UNL     1      35.402 -17.520 -22.646  0.00  0.00    +0.150 HD
BRANCH  21  24
ATOM     24  C   UNL     1      35.885 -18.040 -20.678  0.00  0.00    +0.072 C 
ATOM     25  C   UNL     1      35.778 -19.533 -20.779  0.00  0.00    +0.021 C 
ATOM     26  C   UNL     1      37.119 -18.868 -20.877  0.00  0.00    +0.021 C 
ENDBRANCH  21  24
ENDBRANCH  13  22
ENDBRANCH   4  16
BRANCH   1  27
ATOM     27  C   UNL     1      32.715  -4.740 -22.970  0.00  0.00    +0.075 C 
BRANCH  27  28
ATOM     28  C   UNL     1      31.695  -4.068 -23.880  0.00  0.00    -0.055 C 
BRANCH  28  30
ATOM     29  O   UNL     1      33.741  -3.431 -27.489  0.00  0.00    -0.358 OA
ATOM     30  N   UNL     1      32.112  -4.175 -25.277  0.00  0.00    +0.391 N 
ATOM     31  C   UNL     1      33.518  -4.594 -25.370  0.00  0.00    -0.045 C 
ATOM     32  C   UNL     1      31.918  -2.900 -25.980  0.00  0.00    -0.045 C 
ATOM     33  C   UNL     1      33.934  -4.687 -26.835  0.00  0.00    +0.119 C 
ATOM     34  C   UNL     1      32.370  -3.034 -27.431  0.00  0.00    +0.119 C 
ATOM     35  H   UNL     1      31.531  -4.886 -25.722  0.00  0.00    -0.079 HD
ENDBRANCH  28  30
ENDBRANCH  27  28
ENDBRANCH   1  27
TORSDOF 6
ENDMDL
