MODEL 1
REMARK VINA RESULT:     -11.4      0.000      0.000
REMARK  Name = 10250490
REMARK  6 active torsions:
REMARK  status: ('A' for Active; 'I' for Inactive)
REMARK    1  A    between atoms: N_2  and  C_18
REMARK    2  A    between atoms: C_3  and  C_6
REMARK    3  A    between atoms: C_5  and  N_12
REMARK    4  A    between atoms: C_18  and  C_19
REMARK    5  A    between atoms: C_19  and  N_21
REMARK    6  A    between atoms: C_22  and  C_26
REMARK                            x       y       z     vdW  Elec       q    Type
REMARK                         _______ _______ _______ _____ _____    ______ ____
ROOT
ATOM      1  O   UNL     1      33.888 -23.801 -17.446  0.00  0.00    -0.270 OA
ATOM      2  N   UNL     1      35.654 -22.708 -16.417  0.00  0.00    -0.299 N 
ATOM      3  C   UNL     1      34.708 -22.868 -17.436  0.00  0.00    +0.246 C 
ATOM      4  H   UNL     1      36.275 -21.946 -16.471  0.00  0.00    +0.150 HD
ENDROOT
BRANCH   3   6
ATOM      5  C   UNL     1      34.780 -20.029 -20.592  0.00  0.00    +0.058 C 
ATOM      6  C   UNL     1      34.734 -21.896 -18.517  0.00  0.00    +0.053 C 
ATOM      7  C   UNL     1      35.976 -20.520 -20.066  0.00  0.00    +0.015 C 
ATOM      8  C   UNL     1      33.560 -20.474 -20.080  0.00  0.00    +0.015 C 
ATOM      9  C   UNL     1      35.952 -21.453 -19.029  0.00  0.00    +0.006 C 
ATOM     10  C   UNL     1      33.537 -21.407 -19.043  0.00  0.00    +0.006 C 
BRANCH   5  12
ATOM     11  O   UNL     1      35.576 -17.262 -20.329  0.00  0.00    -0.269 OA
ATOM     12  N   UNL     1      34.805 -19.059 -21.668  0.00  0.00    -0.233 N 
ATOM     13  C   UNL     1      35.256 -17.737 -21.418  0.00  0.00    +0.257 C 
ATOM     14  C   UNL     1      34.367 -19.409 -22.947  0.00  0.00    +0.072 C 
ATOM     15  C   UNL     1      35.295 -16.813 -22.594  0.00  0.00    +0.059 C 
ATOM     16  C   UNL     1      34.380 -18.554 -23.976  0.00  0.00    +0.017 C 
ATOM     17  C   UNL     1      34.866 -17.219 -23.792  0.00  0.00    +0.006 C 
ENDBRANCH   5  12
ENDBRANCH   3   6
BRANCH   2  18
ATOM     18  C   UNL     1      35.771 -23.604 -15.288  0.00  0.00    +0.111 C 
BRANCH  18  19
ATOM     19  C   UNL     1      34.822 -23.233 -14.161  0.00  0.00    +0.111 C 
BRANCH  19  21
ATOM     20  O   UNL     1      32.909 -24.666 -12.572  0.00  0.00    -0.270 OA
ATOM     21  N   UNL     1      33.450 -23.500 -14.502  0.00  0.00    -0.299 N 
ATOM     22  C   UNL     1      32.594 -24.206 -13.666  0.00  0.00    +0.252 C 
ATOM     23  H   UNL     1      33.105 -23.169 -15.363  0.00  0.00    +0.150 HD
BRANCH  22  26
ATOM     24 CL   UNL     1      27.960 -23.780 -16.553  0.00  0.00    -0.075 Cl
ATOM     25  S   UNL     1      30.696 -23.448 -15.448  0.00  0.00    -0.071 S 
ATOM     26  C   UNL     1      31.214 -24.420 -14.174  0.00  0.00    +0.084 C 
ATOM     27  C   UNL     1      30.321 -25.316 -13.724  0.00  0.00    +0.012 C 
ATOM     28  C   UNL     1      29.109 -25.214 -14.468  0.00  0.00    +0.019 C 
ATOM     29  C   UNL     1      29.177 -24.238 -15.437  0.00  0.00    +0.087 C 
ENDBRANCH  22  26
ENDBRANCH  19  21
ENDBRANCH  18  19
ENDBRANCH   2  18
TORSDOF 6
ENDMDL
MODEL 2
REMARK VINA RESULT:     -11.3      2.924      4.017
REMARK  Name = 10250490
REMARK  6 active torsions:
REMARK  status: ('A' for Active; 'I' for Inactive)
REMARK    1  A    between atoms: N_2  and  C_18
REMARK    2  A    between atoms: C_3  and  C_6
REMARK    3  A    between atoms: C_5  and  N_12
REMARK    4  A    between atoms: C_18  and  C_19
REMARK    5  A    between atoms: C_19  and  N_21
REMARK    6  A    between atoms: C_22  and  C_26
REMARK                            x       y       z     vdW  Elec       q    Type
REMARK                         _______ _______ _______ _____ _____    ______ ____
ROOT
ATOM      1  O   UNL     1      34.292 -23.681 -17.011  0.00  0.00    -0.270 OA
ATOM      2  N   UNL     1      32.150 -22.814 -16.835  0.00  0.00    -0.299 N 
ATOM      3  C   UNL     1      33.427 -22.879 -17.403  0.00  0.00    +0.246 C 
ATOM      4  H   UNL     1      31.512 -22.155 -17.194  0.00  0.00    +0.150 HD
ENDROOT
BRANCH   3   6
ATOM      5  C   UNL     1      34.286 -20.145 -20.535  0.00  0.00    +0.058 C 
ATOM      6  C   UNL     1      33.721 -21.942 -18.476  0.00  0.00    +0.053 C 
ATOM      7  C   UNL     1      32.965 -20.371 -20.147  0.00  0.00    +0.015 C 
ATOM      8  C   UNL     1      35.325 -20.819 -19.891  0.00  0.00    +0.015 C 
ATOM      9  C   UNL     1      32.683 -21.269 -19.118  0.00  0.00    +0.006 C 
ATOM     10  C   UNL     1      35.042 -21.717 -18.862  0.00  0.00    +0.006 C 
BRANCH   5  12
ATOM     11  O   UNL     1      35.680 -17.630 -20.226  0.00  0.00    -0.269 OA
ATOM     12  N   UNL     1      34.579 -19.213 -21.605  0.00  0.00    -0.233 N 
ATOM     13  C   UNL     1      35.308 -18.027 -21.330  0.00  0.00    +0.257 C 
ATOM     14  C   UNL     1      34.130 -19.462 -22.904  0.00  0.00    +0.072 C 
ATOM     15  C   UNL     1      35.609 -17.144 -22.500  0.00  0.00    +0.059 C 
ATOM     16  C   UNL     1      34.383 -18.639 -23.928  0.00  0.00    +0.017 C 
ATOM     17  C   UNL     1      35.151 -17.449 -23.717  0.00  0.00    +0.006 C 
ENDBRANCH   5  12
ENDBRANCH   3   6
BRANCH   2  18
ATOM     18  C   UNL     1      31.715 -23.661 -15.747  0.00  0.00    +0.111 C 
BRANCH  18  19
ATOM     19  C   UNL     1      31.974 -23.030 -14.389  0.00  0.00    +0.111 C 
BRANCH  19  21
ATOM     20  O   UNL     1      32.713 -24.956 -12.393  0.00  0.00    -0.270 OA
ATOM     21  N   UNL     1      33.302 -23.305 -13.912  0.00  0.00    -0.299 N 
ATOM     22  C   UNL     1      33.566 -24.260 -12.938  0.00  0.00    +0.252 C 
ATOM     23  H   UNL     1      34.055 -22.796 -14.291  0.00  0.00    +0.150 HD
BRANCH  22  26
ATOM     24 CL   UNL     1      38.969 -25.144 -13.052  0.00  0.00    -0.075 Cl
ATOM     25  S   UNL     1      36.096 -24.823 -13.732  0.00  0.00    -0.071 S 
ATOM     26  C   UNL     1      34.988 -24.407 -12.534  0.00  0.00    +0.084 C 
ATOM     27  C   UNL     1      35.496 -24.242 -11.303  0.00  0.00    +0.012 C 
ATOM     28  C   UNL     1      36.903 -24.471 -11.319  0.00  0.00    +0.019 C 
ATOM     29  C   UNL     1      37.360 -24.794 -12.577  0.00  0.00    +0.087 C 
ENDBRANCH  22  26
ENDBRANCH  19  21
ENDBRANCH  18  19
ENDBRANCH   2  18
TORSDOF 6
ENDMDL
MODEL 3
REMARK VINA RESULT:     -10.8      1.136      1.610
REMARK  Name = 10250490
REMARK  6 active torsions:
REMARK  status: ('A' for Active; 'I' for Inactive)
REMARK    1  A    between atoms: N_2  and  C_18
REMARK    2  A    between atoms: C_3  and  C_6
REMARK    3  A    between atoms: C_5  and  N_12
REMARK    4  A    between atoms: C_18  and  C_19
REMARK    5  A    between atoms: C_19  and  N_21
REMARK    6  A    between atoms: C_22  and  C_26
REMARK                            x       y       z     vdW  Elec       q    Type
REMARK                         _______ _______ _______ _____ _____    ______ ____
ROOT
ATOM      1  O   UNL     1      34.507 -23.550 -17.069  0.00  0.00    -0.270 OA
ATOM      2  N   UNL     1      36.504 -22.561 -16.433  0.00  0.00    -0.299 N 
ATOM      3  C   UNL     1      35.379 -22.684 -17.255  0.00  0.00    +0.246 C 
ATOM      4  H   UNL     1      37.156 -21.852 -16.637  0.00  0.00    +0.150 HD
ENDROOT
BRANCH   3   6
ATOM      5  C   UNL     1      35.076 -19.987 -20.519  0.00  0.00    +0.058 C 
ATOM      6  C   UNL     1      35.274 -21.759 -18.373  0.00  0.00    +0.053 C 
ATOM      7  C   UNL     1      33.926 -20.566 -19.983  0.00  0.00    +0.015 C 
ATOM      8  C   UNL     1      36.326 -20.294 -19.980  0.00  0.00    +0.015 C 
ATOM      9  C   UNL     1      34.025 -21.452 -18.910  0.00  0.00    +0.006 C 
ATOM     10  C   UNL     1      36.425 -21.180 -18.908  0.00  0.00    +0.006 C 
BRANCH   5  12
ATOM     11  O   UNL     1      35.554 -17.137 -20.386  0.00  0.00    -0.269 OA
ATOM     12  N   UNL     1      34.972 -19.067 -21.634  0.00  0.00    -0.233 N 
ATOM     13  C   UNL     1      35.273 -17.692 -21.448  0.00  0.00    +0.257 C 
ATOM     14  C   UNL     1      34.557 -19.518 -22.888  0.00  0.00    +0.072 C 
ATOM     15  C   UNL     1      35.187 -16.822 -22.661  0.00  0.00    +0.059 C 
ATOM     16  C   UNL     1      34.455 -18.713 -23.952  0.00  0.00    +0.017 C 
ATOM     17  C   UNL     1      34.787 -17.325 -23.832  0.00  0.00    +0.006 C 
ENDBRANCH   5  12
ENDBRANCH   3   6
BRANCH   2  18
ATOM     18  C   UNL     1      36.762 -23.419 -15.298  0.00  0.00    +0.111 C 
BRANCH  18  19
ATOM     19  C   UNL     1      36.003 -22.975 -14.058  0.00  0.00    +0.111 C 
BRANCH  19  21
ATOM     20  O   UNL     1      34.144 -24.124 -12.198  0.00  0.00    -0.270 OA
ATOM     21  N   UNL     1      34.580 -23.090 -14.228  0.00  0.00    -0.299 N 
ATOM     22  C   UNL     1      33.755 -23.665 -13.269  0.00  0.00    +0.252 C 
ATOM     23  H   UNL     1      34.175 -22.748 -15.058  0.00  0.00    +0.150 HD
BRANCH  22  26
ATOM     24 CL   UNL     1      28.668 -25.497 -14.133  0.00  0.00    -0.075 Cl
ATOM     25  S   UNL     1      31.554 -25.232 -13.487  0.00  0.00    -0.071 S 
ATOM     26  C   UNL     1      32.310 -23.732 -13.606  0.00  0.00    +0.084 C 
ATOM     27  C   UNL     1      31.528 -22.716 -14.002  0.00  0.00    +0.012 C 
ATOM     28  C   UNL     1      30.200 -23.180 -14.232  0.00  0.00    +0.019 C 
ATOM     29  C   UNL     1      30.074 -24.530 -13.989  0.00  0.00    +0.087 C 
ENDBRANCH  22  26
ENDBRANCH  19  21
ENDBRANCH  18  19
ENDBRANCH   2  18
TORSDOF 6
ENDMDL
MODEL 4
REMARK VINA RESULT:     -10.5      3.856      5.200
REMARK  Name = 10250490
REMARK  6 active torsions:
REMARK  status: ('A' for Active; 'I' for Inactive)
REMARK    1  A    between atoms: N_2  and  C_18
REMARK    2  A    between atoms: C_3  and  C_6
REMARK    3  A    between atoms: C_5  and  N_12
REMARK    4  A    between atoms: C_18  and  C_19
REMARK    5  A    between atoms: C_19  and  N_21
REMARK    6  A    between atoms: C_22  and  C_26
REMARK                            x       y       z     vdW  Elec       q    Type
REMARK                         _______ _______ _______ _____ _____    ______ ____
ROOT
ATOM      1  O   UNL     1      33.274 -24.047 -17.723  0.00  0.00    -0.270 OA
ATOM      2  N   UNL     1      34.571 -22.782 -16.277  0.00  0.00    -0.299 N 
ATOM      3  C   UNL     1      33.948 -23.025 -17.505  0.00  0.00    +0.246 C 
ATOM      4  H   UNL     1      35.090 -21.951 -16.172  0.00  0.00    +0.150 HD
ENDROOT
BRANCH   3   6
ATOM      5  C   UNL     1      34.501 -20.122 -20.553  0.00  0.00    +0.058 C 
ATOM      6  C   UNL     1      34.138 -22.031 -18.550  0.00  0.00    +0.053 C 
ATOM      7  C   UNL     1      35.608 -20.724 -19.952  0.00  0.00    +0.015 C 
ATOM      8  C   UNL     1      33.213 -20.477 -20.151  0.00  0.00    +0.015 C 
ATOM      9  C   UNL     1      35.426 -21.679 -18.952  0.00  0.00    +0.006 C 
ATOM     10  C   UNL     1      33.031 -21.430 -19.150  0.00  0.00    +0.006 C 
BRANCH   5  12
ATOM     11  O   UNL     1      35.662 -17.502 -20.170  0.00  0.00    -0.269 OA
ATOM     12  N   UNL     1      34.691 -19.130 -21.592  0.00  0.00    -0.233 N 
ATOM     13  C   UNL     1      35.312 -17.892 -21.283  0.00  0.00    +0.257 C 
ATOM     14  C   UNL     1      34.247 -19.373 -22.893  0.00  0.00    +0.072 C 
ATOM     15  C   UNL     1      35.512 -16.945 -22.423  0.00  0.00    +0.059 C 
ATOM     16  C   UNL     1      34.407 -18.496 -23.890  0.00  0.00    +0.017 C 
ATOM     17  C   UNL     1      35.066 -17.248 -23.645  0.00  0.00    +0.006 C 
ENDBRANCH   5  12
ENDBRANCH   3   6
BRANCH   2  18
ATOM     18  C   UNL     1      34.496 -23.685 -15.150  0.00  0.00    +0.111 C 
BRANCH  18  19
ATOM     19  C   UNL     1      35.604 -23.437 -14.140  0.00  0.00    +0.111 C 
BRANCH  19  21
ATOM     20  O   UNL     1      36.994 -25.169 -12.322  0.00  0.00    -0.270 OA
ATOM     21  N   UNL     1      36.778 -24.217 -14.426  0.00  0.00    -0.299 N 
ATOM     22  C   UNL     1      37.385 -25.031 -13.478  0.00  0.00    +0.252 C 
ATOM     23  H   UNL     1      37.166 -24.172 -15.330  0.00  0.00    +0.150 HD
BRANCH  22  26
ATOM     24 CL   UNL     1      40.785 -28.439 -16.088  0.00  0.00    -0.075 Cl
ATOM     25  S   UNL     1      38.422 -26.928 -15.115  0.00  0.00    -0.071 S 
ATOM     26  C   UNL     1      38.605 -25.753 -13.923  0.00  0.00    +0.084 C 
ATOM     27  C   UNL     1      39.857 -25.570 -13.473  0.00  0.00    +0.012 C 
ATOM     28  C   UNL     1      40.752 -26.453 -14.144  0.00  0.00    +0.019 C 
ATOM     29  C   UNL     1      40.103 -27.247 -15.064  0.00  0.00    +0.087 C 
ENDBRANCH  22  26
ENDBRANCH  19  21
ENDBRANCH  18  19
ENDBRANCH   2  18
TORSDOF 6
ENDMDL
MODEL 5
REMARK VINA RESULT:     -10.4      5.599      9.197
REMARK  Name = 10250490
REMARK  6 active torsions:
REMARK  status: ('A' for Active; 'I' for Inactive)
REMARK    1  A    between atoms: N_2  and  C_18
REMARK    2  A    between atoms: C_3  and  C_6
REMARK    3  A    between atoms: C_5  and  N_12
REMARK    4  A    between atoms: C_18  and  C_19
REMARK    5  A    between atoms: C_19  and  N_21
REMARK    6  A    between atoms: C_22  and  C_26
REMARK                            x       y       z     vdW  Elec       q    Type
REMARK                         _______ _______ _______ _____ _____    ______ ____
ROOT
ATOM      1  O   UNL     1      33.501 -15.811 -25.460  0.00  0.00    -0.270 OA
ATOM      2  N   UNL     1      34.608 -16.115 -23.446  0.00  0.00    -0.299 N 
ATOM      3  C   UNL     1      33.912 -15.344 -24.384  0.00  0.00    +0.246 C 
ATOM      4  H   UNL     1      34.905 -15.682 -22.613  0.00  0.00    +0.150 HD
ENDROOT
BRANCH   3   6
ATOM      5  C   UNL     1      33.305 -11.251 -23.436  0.00  0.00    +0.058 C 
ATOM      6  C   UNL     1      33.704 -13.942 -24.060  0.00  0.00    +0.053 C 
ATOM      7  C   UNL     1      33.530 -11.636 -24.758  0.00  0.00    +0.015 C 
ATOM      8  C   UNL     1      33.279 -12.213 -22.425  0.00  0.00    +0.015 C 
ATOM      9  C   UNL     1      33.729 -12.981 -25.070  0.00  0.00    +0.006 C 
ATOM     10  C   UNL     1      33.479 -13.558 -22.737  0.00  0.00    +0.006 C 
BRANCH   5  12
ATOM     11  O   UNL     1      35.318  -9.182 -23.608  0.00  0.00    -0.269 OA
ATOM     12  N   UNL     1      33.099  -9.853 -23.112  0.00  0.00    -0.233 N 
ATOM     13  C   UNL     1      34.160  -8.926 -23.277  0.00  0.00    +0.257 C 
ATOM     14  C   UNL     1      31.869  -9.414 -22.618  0.00  0.00    +0.072 C 
ATOM     15  C   UNL     1      33.849  -7.496 -22.966  0.00  0.00    +0.059 C 
ATOM     16  C   UNL     1      31.625  -8.134 -22.314  0.00  0.00    +0.017 C 
ATOM     17  C   UNL     1      32.646  -7.147 -22.502  0.00  0.00    +0.006 C 
ENDBRANCH   5  12
ENDBRANCH   3   6
BRANCH   2  18
ATOM     18  C   UNL     1      34.914 -17.516 -23.633  0.00  0.00    +0.111 C 
BRANCH  18  19
ATOM     19  C   UNL     1      35.747 -18.078 -22.493  0.00  0.00    +0.111 C 
BRANCH  19  21
ATOM     20  O   UNL     1      36.703 -19.501 -20.190  0.00  0.00    -0.270 OA
ATOM     21  N   UNL     1      34.995 -18.989 -21.674  0.00  0.00    -0.299 N 
ATOM     22  C   UNL     1      35.543 -19.635 -20.573  0.00  0.00    +0.252 C 
ATOM     23  H   UNL     1      34.052 -19.162 -21.903  0.00  0.00    +0.150 HD
BRANCH  22  26
ATOM     24 CL   UNL     1      33.664 -23.638 -17.342  0.00  0.00    -0.075 Cl
ATOM     25  S   UNL     1      35.358 -21.721 -18.851  0.00  0.00    -0.071 S 
ATOM     26  C   UNL     1      34.642 -20.566 -19.845  0.00  0.00    +0.084 C 
ATOM     27  C   UNL     1      33.301 -20.589 -19.893  0.00  0.00    +0.012 C 
ATOM     28  C   UNL     1      32.799 -21.628 -19.056  0.00  0.00    +0.019 C 
ATOM     29  C   UNL     1      33.810 -22.322 -18.430  0.00  0.00    +0.087 C 
ENDBRANCH  22  26
ENDBRANCH  19  21
ENDBRANCH  18  19
ENDBRANCH   2  18
TORSDOF 6
ENDMDL
MODEL 6
REMARK VINA RESULT:     -10.3      5.408      8.985
REMARK  Name = 10250490
REMARK  6 active torsions:
REMARK  status: ('A' for Active; 'I' for Inactive)
REMARK    1  A    between atoms: N_2  and  C_18
REMARK    2  A    between atoms: C_3  and  C_6
REMARK    3  A    between atoms: C_5  and  N_12
REMARK    4  A    between atoms: C_18  and  C_19
REMARK    5  A    between atoms: C_19  and  N_21
REMARK    6  A    between atoms: C_22  and  C_26
REMARK                            x       y       z     vdW  Elec       q    Type
REMARK                         _______ _______ _______ _____ _____    ______ ____
ROOT
ATOM      1  O   UNL     1      33.818 -15.978 -25.509  0.00  0.00    -0.270 OA
ATOM      2  N   UNL     1      34.622 -16.381 -23.373  0.00  0.00    -0.299 N 
ATOM      3  C   UNL     1      34.081 -15.560 -24.368  0.00  0.00    +0.246 C 
ATOM      4  H   UNL     1      34.806 -15.986 -22.490  0.00  0.00    +0.150 HD
ENDROOT
BRANCH   3   6
ATOM      5  C   UNL     1      33.414 -11.491 -23.359  0.00  0.00    +0.058 C 
ATOM      6  C   UNL     1      33.853 -14.166 -24.022  0.00  0.00    +0.053 C 
ATOM      7  C   UNL     1      33.725 -12.417 -22.362  0.00  0.00    +0.015 C 
ATOM      8  C   UNL     1      33.323 -11.905 -24.688  0.00  0.00    +0.015 C 
ATOM      9  C   UNL     1      33.945 -13.753 -22.693  0.00  0.00    +0.006 C 
ATOM     10  C   UNL     1      33.543 -13.242 -25.020  0.00  0.00    +0.006 C 
BRANCH   5  12
ATOM     11  O   UNL     1      31.071 -10.471 -22.005  0.00  0.00    -0.269 OA
ATOM     12  N   UNL     1      33.185 -10.102 -23.013  0.00  0.00    -0.233 N 
ATOM     13  C   UNL     1      32.008  -9.733 -22.310  0.00  0.00    +0.257 C 
ATOM     14  C   UNL     1      34.103  -9.119 -23.386  0.00  0.00    +0.072 C 
ATOM     15  C   UNL     1      31.873  -8.288 -21.951  0.00  0.00    +0.059 C 
ATOM     16  C   UNL     1      33.943  -7.826 -23.083  0.00  0.00    +0.017 C 
ATOM     17  C   UNL     1      32.796  -7.402 -22.337  0.00  0.00    +0.006 C 
ENDBRANCH   5  12
ENDBRANCH   3   6
BRANCH   2  18
ATOM     18  C   UNL     1      34.927 -17.781 -23.570  0.00  0.00    +0.111 C 
BRANCH  18  19
ATOM     19  C   UNL     1      35.758 -18.353 -22.434  0.00  0.00    +0.111 C 
BRANCH  19  21
ATOM     20  O   UNL     1      36.688 -19.730 -20.094  0.00  0.00    -0.270 OA
ATOM     21  N   UNL     1      34.985 -19.213 -21.580  0.00  0.00    -0.299 N 
ATOM     22  C   UNL     1      35.522 -19.840 -20.463  0.00  0.00    +0.252 C 
ATOM     23  H   UNL     1      34.036 -19.363 -21.797  0.00  0.00    +0.150 HD
BRANCH  22  26
ATOM     24 CL   UNL     1      33.546 -23.666 -17.079  0.00  0.00    -0.075 Cl
ATOM     25  S   UNL     1      35.286 -21.854 -18.662  0.00  0.00    -0.071 S 
ATOM     26  C   UNL     1      34.599 -20.718 -19.699  0.00  0.00    +0.084 C 
ATOM     27  C   UNL     1      33.257 -20.707 -19.743  0.00  0.00    +0.012 C 
ATOM     28  C   UNL     1      32.730 -21.700 -18.867  0.00  0.00    +0.019 C 
ATOM     29  C   UNL     1      33.724 -22.396 -18.216  0.00  0.00    +0.087 C 
ENDBRANCH  22  26
ENDBRANCH  19  21
ENDBRANCH  18  19
ENDBRANCH   2  18
TORSDOF 6
ENDMDL
MODEL 7
REMARK VINA RESULT:     -10.3      7.050     11.166
REMARK  Name = 10250490
REMARK  6 active torsions:
REMARK  status: ('A' for Active; 'I' for Inactive)
REMARK    1  A    between atoms: N_2  and  C_18
REMARK    2  A    between atoms: C_3  and  C_6
REMARK    3  A    between atoms: C_5  and  N_12
REMARK    4  A    between atoms: C_18  and  C_19
REMARK    5  A    between atoms: C_19  and  N_21
REMARK    6  A    between atoms: C_22  and  C_26
REMARK                            x       y       z     vdW  Elec       q    Type
REMARK                         _______ _______ _______ _____ _____    ______ ____
ROOT
ATOM      1  O   UNL     1      33.528 -14.360 -21.729  0.00  0.00    -0.270 OA
ATOM      2  N   UNL     1      33.160 -14.076 -24.000  0.00  0.00    -0.299 N 
ATOM      3  C   UNL     1      33.219 -13.620 -22.679  0.00  0.00    +0.246 C 
ATOM      4  H   UNL     1      32.908 -13.435 -24.705  0.00  0.00    +0.150 HD
ENDROOT
BRANCH   3   6
ATOM      5  C   UNL     1      32.218  -9.551 -21.996  0.00  0.00    +0.058 C 
ATOM      6  C   UNL     1      32.876 -12.226 -22.446  0.00  0.00    +0.053 C 
ATOM      7  C   UNL     1      33.132  -9.888 -22.995  0.00  0.00    +0.015 C 
ATOM      8  C   UNL     1      31.633 -10.554 -21.221  0.00  0.00    +0.015 C 
ATOM      9  C   UNL     1      33.460 -11.224 -23.221  0.00  0.00    +0.006 C 
ATOM     10  C   UNL     1      31.962 -11.891 -21.446  0.00  0.00    +0.006 C 
BRANCH   5  12
ATOM     11  O   UNL     1      32.771  -8.081 -19.567  0.00  0.00    -0.269 OA
ATOM     12  N   UNL     1      31.878  -8.162 -21.762  0.00  0.00    -0.233 N 
ATOM     13  C   UNL     1      32.241  -7.541 -20.538  0.00  0.00    +0.257 C 
ATOM     14  C   UNL     1      31.176  -7.433 -22.723  0.00  0.00    +0.072 C 
ATOM     15  C   UNL     1      31.895  -6.093 -20.398  0.00  0.00    +0.059 C 
ATOM     16  C   UNL     1      30.847  -6.146 -22.561  0.00  0.00    +0.017 C 
ATOM     17  C   UNL     1      31.226  -5.457 -21.364  0.00  0.00    +0.006 C 
ENDBRANCH   5  12
ENDBRANCH   3   6
BRANCH   2  18
ATOM     18  C   UNL     1      33.448 -15.438 -24.389  0.00  0.00    +0.111 C 
BRANCH  18  19
ATOM     19  C   UNL     1      34.942 -15.711 -24.459  0.00  0.00    +0.111 C 
BRANCH  19  21
ATOM     20  O   UNL     1      34.309 -18.490 -24.121  0.00  0.00    -0.270 OA
ATOM     21  N   UNL     1      35.383 -16.568 -23.392  0.00  0.00    -0.299 N 
ATOM     22  C   UNL     1      35.024 -17.908 -23.310  0.00  0.00    +0.252 C 
ATOM     23  H   UNL     1      35.963 -16.190 -22.691  0.00  0.00    +0.150 HD
BRANCH  22  26
ATOM     24 CL   UNL     1      35.448 -21.362 -19.082  0.00  0.00    -0.075 Cl
ATOM     25  S   UNL     1      34.530 -19.808 -21.440  0.00  0.00    -0.071 S 
ATOM     26  C   UNL     1      35.541 -18.652 -22.132  0.00  0.00    +0.084 C 
ATOM     27  C   UNL     1      36.741 -18.503 -21.550  0.00  0.00    +0.012 C 
ATOM     28  C   UNL     1      36.863 -19.397 -20.446  0.00  0.00    +0.019 C 
ATOM     29  C   UNL     1      35.733 -20.165 -20.274  0.00  0.00    +0.087 C 
ENDBRANCH  22  26
ENDBRANCH  19  21
ENDBRANCH  18  19
ENDBRANCH   2  18
TORSDOF 6
ENDMDL
MODEL 8
REMARK VINA RESULT:     -10.2      7.039     12.328
REMARK  Name = 10250490
REMARK  6 active torsions:
REMARK  status: ('A' for Active; 'I' for Inactive)
REMARK    1  A    between atoms: N_2  and  C_18
REMARK    2  A    between atoms: C_3  and  C_6
REMARK    3  A    between atoms: C_5  and  N_12
REMARK    4  A    between atoms: C_18  and  C_19
REMARK    5  A    between atoms: C_19  and  N_21
REMARK    6  A    between atoms: C_22  and  C_26
REMARK                            x       y       z     vdW  Elec       q    Type
REMARK                         _______ _______ _______ _____ _____    ______ ____
ROOT
ATOM      1  O   UNL     1      35.033 -16.436 -25.163  0.00  0.00    -0.270 OA
ATOM      2  N   UNL     1      34.375 -14.934 -23.524  0.00  0.00    -0.299 N 
ATOM      3  C   UNL     1      34.769 -16.200 -23.971  0.00  0.00    +0.246 C 
ATOM      4  H   UNL     1      34.181 -14.816 -22.566  0.00  0.00    +0.150 HD
ENDROOT
BRANCH   3   6
ATOM      5  C   UNL     1      34.967 -19.288 -21.066  0.00  0.00    +0.058 C 
ATOM      6  C   UNL     1      34.837 -17.259 -22.976  0.00  0.00    +0.053 C 
ATOM      7  C   UNL     1      34.518 -19.571 -22.356  0.00  0.00    +0.015 C 
ATOM      8  C   UNL     1      35.353 -17.990 -20.732  0.00  0.00    +0.015 C 
ATOM      9  C   UNL     1      34.453 -18.557 -23.311  0.00  0.00    +0.006 C 
ATOM     10  C   UNL     1      35.287 -16.975 -21.686  0.00  0.00    +0.006 C 
BRANCH   5  12
ATOM     11  O   UNL     1      32.688 -20.657 -19.927  0.00  0.00    -0.269 OA
ATOM     12  N   UNL     1      35.033 -20.343 -20.073  0.00  0.00    -0.233 N 
ATOM     13  C   UNL     1      33.840 -20.965 -19.622  0.00  0.00    +0.257 C 
ATOM     14  C   UNL     1      36.262 -20.738 -19.540  0.00  0.00    +0.072 C 
ATOM     15  C   UNL     1      34.002 -22.076 -18.634  0.00  0.00    +0.059 C 
ATOM     16  C   UNL     1      36.378 -21.713 -18.631  0.00  0.00    +0.017 C 
ATOM     17  C   UNL     1      35.211 -22.405 -18.171  0.00  0.00    +0.006 C 
ENDBRANCH   5  12
ENDBRANCH   3   6
BRANCH   2  18
ATOM     18  C   UNL     1      34.237 -13.787 -24.394  0.00  0.00    +0.111 C 
BRANCH  18  19
ATOM     19  C   UNL     1      33.113 -12.864 -23.953  0.00  0.00    +0.111 C 
BRANCH  19  21
ATOM     20  O   UNL     1      32.087 -10.740 -22.318  0.00  0.00    -0.270 OA
ATOM     21  N   UNL     1      33.502 -11.481 -23.999  0.00  0.00    -0.299 N 
ATOM     22  C   UNL     1      32.948 -10.518 -23.165  0.00  0.00    +0.252 C 
ATOM     23  H   UNL     1      34.189 -11.205 -24.649  0.00  0.00    +0.150 HD
BRANCH  22  26
ATOM     24 CL   UNL     1      33.152  -5.069 -23.677  0.00  0.00    -0.075 Cl
ATOM     25  S   UNL     1      32.297  -7.890 -23.311  0.00  0.00    -0.071 S 
ATOM     26  C   UNL     1      33.438  -9.128 -23.356  0.00  0.00    +0.084 C 
ATOM     27  C   UNL     1      34.707  -8.744 -23.563  0.00  0.00    +0.012 C 
ATOM     28  C   UNL     1      34.774  -7.326 -23.699  0.00  0.00    +0.019 C 
ATOM     29  C   UNL     1      33.534  -6.737 -23.582  0.00  0.00    +0.087 C 
ENDBRANCH  22  26
ENDBRANCH  19  21
ENDBRANCH  18  19
ENDBRANCH   2  18
TORSDOF 6
ENDMDL
MODEL 9
REMARK VINA RESULT:     -10.2      4.462      9.986
REMARK  Name = 10250490
REMARK  6 active torsions:
REMARK  status: ('A' for Active; 'I' for Inactive)
REMARK    1  A    between atoms: N_2  and  C_18
REMARK    2  A    between atoms: C_3  and  C_6
REMARK    3  A    between atoms: C_5  and  N_12
REMARK    4  A    between atoms: C_18  and  C_19
REMARK    5  A    between atoms: C_19  and  N_21
REMARK    6  A    between atoms: C_22  and  C_26
REMARK                            x       y       z     vdW  Elec       q    Type
REMARK                         _______ _______ _______ _____ _____    ______ ____
ROOT
ATOM      1  O   UNL     1      33.021 -21.623 -19.543  0.00  0.00    -0.270 OA
ATOM      2  N   UNL     1      35.092 -20.611 -19.786  0.00  0.00    -0.299 N 
ATOM      3  C   UNL     1      34.183 -21.453 -19.136  0.00  0.00    +0.246 C 
ATOM      4  H   UNL     1      35.998 -20.523 -19.410  0.00  0.00    +0.150 HD
ENDROOT
BRANCH   3   6
ATOM      5  C   UNL     1      35.536 -23.400 -15.614  0.00  0.00    +0.058 C 
ATOM      6  C   UNL     1      34.647 -22.119 -17.929  0.00  0.00    +0.053 C 
ATOM      7  C   UNL     1      36.411 -22.602 -16.352  0.00  0.00    +0.015 C 
ATOM      8  C   UNL     1      34.215 -23.556 -16.035  0.00  0.00    +0.015 C 
ATOM      9  C   UNL     1      35.967 -21.962 -17.509  0.00  0.00    +0.006 C 
ATOM     10  C   UNL     1      33.771 -22.917 -17.193  0.00  0.00    +0.006 C 
BRANCH   5  12
ATOM     11  O   UNL     1      36.001 -26.242 -15.352  0.00  0.00    -0.269 OA
ATOM     12  N   UNL     1      35.999 -24.066 -14.413  0.00  0.00    -0.233 N 
ATOM     13  C   UNL     1      36.228 -25.466 -14.424  0.00  0.00    +0.257 C 
ATOM     14  C   UNL     1      36.201 -23.343 -13.236  0.00  0.00    +0.072 C 
ATOM     15  C   UNL     1      36.751 -26.065 -13.157  0.00  0.00    +0.059 C 
ATOM     16  C   UNL     1      36.637 -23.908 -12.104  0.00  0.00    +0.017 C 
ATOM     17  C   UNL     1      36.926 -25.310 -12.069  0.00  0.00    +0.006 C 
ENDBRANCH   5  12
ENDBRANCH   3   6
BRANCH   2  18
ATOM     18  C   UNL     1      34.774 -19.863 -20.981  0.00  0.00    +0.111 C 
BRANCH  18  19
ATOM     19  C   UNL     1      35.907 -18.940 -21.399  0.00  0.00    +0.111 C 
BRANCH  19  21
ATOM     20  O   UNL     1      35.189 -16.477 -20.111  0.00  0.00    -0.270 OA
ATOM     21  N   UNL     1      35.422 -17.747 -22.038  0.00  0.00    -0.299 N 
ATOM     22  C   UNL     1      35.098 -16.596 -21.330  0.00  0.00    +0.252 C 
ATOM     23  H   UNL     1      35.315 -17.746 -23.017  0.00  0.00    +0.150 HD
BRANCH  22  26
ATOM     24 CL   UNL     1      33.270 -13.533 -25.485  0.00  0.00    -0.075 Cl
ATOM     25  S   UNL     1      34.296 -15.730 -23.771  0.00  0.00    -0.071 S 
ATOM     26  C   UNL     1      34.585 -15.457 -22.135  0.00  0.00    +0.084 C 
ATOM     27  C   UNL     1      34.324 -14.216 -21.696  0.00  0.00    +0.012 C 
ATOM     28  C   UNL     1      33.848 -13.407 -22.769  0.00  0.00    +0.019 C 
ATOM     29  C   UNL     1      33.783 -14.106 -23.954  0.00  0.00    +0.087 C 
ENDBRANCH  22  26
ENDBRANCH  19  21
ENDBRANCH  18  19
ENDBRANCH   2  18
TORSDOF 6
ENDMDL
