MODEL 1
REMARK VINA RESULT:     -12.2      0.000      0.000
REMARK  Name = 24752833
REMARK  4 active torsions:
REMARK  status: ('A' for Active; 'I' for Inactive)
REMARK    1  A    between atoms: C_1  and  N_8
REMARK    2  A    between atoms: C_2  and  N_23
REMARK    3  A    between atoms: C_9  and  C_14
REMARK    4  A    between atoms: C_24  and  C_28
REMARK                            x       y       z     vdW  Elec       q    Type
REMARK                         _______ _______ _______ _____ _____    ______ ____
ROOT
ATOM      1  C   UNL     1      32.349 -23.772 -14.352  0.00  0.00    +0.090 C 
ATOM      2  C   UNL     1      31.646 -23.668 -15.717  0.00  0.00    +0.090 C 
ATOM      3  C   UNL     1      31.519 -24.591 -13.358  0.00  0.00    +0.021 C 
ATOM      4  C   UNL     1      30.210 -23.154 -15.574  0.00  0.00    +0.021 C 
ATOM      5  C   UNL     1      30.095 -24.061 -13.227  0.00  0.00    +0.002 C 
ATOM      6  C   UNL     1      29.403 -23.987 -14.583  0.00  0.00    +0.002 C 
ENDROOT
BRANCH   1   8
ATOM      7  O   UNL     1      34.348 -23.990 -12.302  0.00  0.00    -0.267 OA
ATOM      8  N   UNL     1      33.667 -24.355 -14.488  0.00  0.00    -0.298 N 
ATOM      9  C   UNL     1      34.564 -24.413 -13.434  0.00  0.00    +0.282 C 
ATOM     10  H   UNL     1      33.935 -24.724 -15.361  0.00  0.00    +0.150 HD
BRANCH   9  14
ATOM     11  S   UNL     1      36.027 -26.225 -14.963  0.00  0.00    -0.074 S 
ATOM     12  N   UNL     1      39.921 -27.304 -14.565  0.00  0.00    +0.387 N 
ATOM     13  N   UNL     1      36.994 -24.681 -13.115  0.00  0.00    -0.399 NA
ATOM     14  C   UNL     1      35.885 -25.020 -13.741  0.00  0.00    +0.210 C 
ATOM     15  C   UNL     1      38.030 -25.423 -13.637  0.00  0.00    +0.093 C 
ATOM     16  C   UNL     1      37.691 -26.310 -14.635  0.00  0.00    +0.082 C 
ATOM     17  C   UNL     1      39.427 -25.305 -13.141  0.00  0.00    +0.032 C 
ATOM     18  C   UNL     1      38.666 -27.188 -15.347  0.00  0.00    -0.059 C 
ATOM     19  C   UNL     1      40.415 -25.981 -14.120  0.00  0.00    -0.070 C 
ATOM     20  C   UNL     1      40.942 -28.000 -15.347  0.00  0.00    -0.101 C 
ATOM     21  H   UNL     1      39.718 -27.850 -13.727  0.00  0.00    -0.080 HD
ENDBRANCH   9  14
ENDBRANCH   1   8
BRANCH   2  23
ATOM     22  O   UNL     1      33.427 -24.505 -17.807  0.00  0.00    -0.269 OA
ATOM     23  N   UNL     1      32.385 -22.811 -16.618  0.00  0.00    -0.300 N 
ATOM     24  C   UNL     1      33.224 -23.312 -17.599  0.00  0.00    +0.259 C 
ATOM     25  H   UNL     1      32.287 -21.835 -16.531  0.00  0.00    +0.150 HD
BRANCH  24  28
ATOM     26 CL   UNL     1      35.914 -17.799 -22.292  0.00  0.00    -0.082 Cl
ATOM     27  N   UNL     1      35.283 -22.095 -18.383  0.00  0.00    -0.309 N 
ATOM     28  C   UNL     1      33.931 -22.300 -18.426  0.00  0.00    +0.102 C 
ATOM     29  C   UNL     1      33.397 -21.421 -19.340  0.00  0.00    +0.020 C 
ATOM     30  C   UNL     1      35.640 -21.094 -19.258  0.00  0.00    +0.048 C 
ATOM     31  C   UNL     1      34.467 -20.651 -19.876  0.00  0.00    +0.016 C 
ATOM     32  C   UNL     1      36.896 -20.551 -19.548  0.00  0.00    +0.015 C 
ATOM     33  C   UNL     1      34.551 -19.617 -20.828  0.00  0.00    +0.013 C 
ATOM     34  C   UNL     1      35.802 -19.065 -21.129  0.00  0.00    +0.058 C 
ATOM     35  C   UNL     1      36.955 -19.526 -20.497  0.00  0.00    +0.013 C 
ATOM     36  H   UNL     1      35.911 -22.592 -17.810  0.00  0.00    +0.152 HD
ENDBRANCH  24  28
ENDBRANCH   2  23
TORSDOF 4
ENDMDL
MODEL 2
REMARK VINA RESULT:     -11.7      2.819      7.437
REMARK  Name = 24752833
REMARK  4 active torsions:
REMARK  status: ('A' for Active; 'I' for Inactive)
REMARK    1  A    between atoms: C_1  and  N_8
REMARK    2  A    between atoms: C_2  and  N_23
REMARK    3  A    between atoms: C_9  and  C_14
REMARK    4  A    between atoms: C_24  and  C_28
REMARK                            x       y       z     vdW  Elec       q    Type
REMARK                         _______ _______ _______ _____ _____    ______ ____
ROOT
ATOM      1  C   UNL     1      31.888 -23.758 -15.564  0.00  0.00    +0.090 C 
ATOM      2  C   UNL     1      32.650 -23.893 -14.234  0.00  0.00    +0.090 C 
ATOM      3  C   UNL     1      30.467 -23.230 -15.342  0.00  0.00    +0.021 C 
ATOM      4  C   UNL     1      31.859 -24.718 -13.213  0.00  0.00    +0.021 C 
ATOM      5  C   UNL     1      29.696 -24.067 -14.327  0.00  0.00    +0.002 C 
ATOM      6  C   UNL     1      30.451 -24.170 -13.006  0.00  0.00    +0.002 C 
ENDROOT
BRANCH   1   8
ATOM      7  O   UNL     1      33.501 -24.577 -17.795  0.00  0.00    -0.267 OA
ATOM      8  N   UNL     1      32.595 -22.892 -16.484  0.00  0.00    -0.298 N 
ATOM      9  C   UNL     1      33.351 -23.386 -17.535  0.00  0.00    +0.282 C 
ATOM     10  H   UNL     1      32.536 -21.917 -16.358  0.00  0.00    +0.150 HD
BRANCH   9  14
ATOM     11  S   UNL     1      33.122 -21.318 -19.387  0.00  0.00    -0.074 S 
ATOM     12  N   UNL     1      36.076 -19.361 -21.370  0.00  0.00    +0.387 N 
ATOM     13  N   UNL     1      35.344 -22.216 -18.392  0.00  0.00    -0.399 NA
ATOM     14  C   UNL     1      34.035 -22.369 -18.374  0.00  0.00    +0.210 C 
ATOM     15  C   UNL     1      35.648 -21.195 -19.265  0.00  0.00    +0.093 C 
ATOM     16  C   UNL     1      34.576 -20.603 -19.895  0.00  0.00    +0.082 C 
ATOM     17  C   UNL     1      37.047 -20.770 -19.541  0.00  0.00    +0.032 C 
ATOM     18  C   UNL     1      34.688 -19.468 -20.858  0.00  0.00    -0.059 C 
ATOM     19  C   UNL     1      37.070 -19.408 -20.273  0.00  0.00    -0.070 C 
ATOM     20  C   UNL     1      36.233 -18.139 -22.157  0.00  0.00    -0.101 C 
ATOM     21  H   UNL     1      36.251 -20.166 -21.972  0.00  0.00    -0.080 HD
ENDBRANCH   9  14
ENDBRANCH   1   8
BRANCH   2  23
ATOM     22  O   UNL     1      34.800 -24.011 -12.335  0.00  0.00    -0.269 OA
ATOM     23  N   UNL     1      33.953 -24.486 -14.439  0.00  0.00    -0.300 N 
ATOM     24  C   UNL     1      34.929 -24.493 -13.457  0.00  0.00    +0.259 C 
ATOM     25  H   UNL     1      34.153 -24.901 -15.310  0.00  0.00    +0.150 HD
BRANCH  24  28
ATOM     26 CL   UNL     1      41.064 -28.386 -16.075  0.00  0.00    -0.082 Cl
ATOM     27  N   UNL     1      37.432 -24.729 -13.325  0.00  0.00    -0.309 N 
ATOM     28  C   UNL     1      36.223 -25.119 -13.834  0.00  0.00    +0.102 C 
ATOM     29  C   UNL     1      36.446 -26.150 -14.717  0.00  0.00    +0.020 C 
ATOM     30  C   UNL     1      38.442 -25.493 -13.865  0.00  0.00    +0.048 C 
ATOM     31  C   UNL     1      37.847 -26.398 -14.747  0.00  0.00    +0.016 C 
ATOM     32  C   UNL     1      39.823 -25.452 -13.643  0.00  0.00    +0.015 C 
ATOM     33  C   UNL     1      38.669 -27.307 -15.442  0.00  0.00    +0.013 C 
ATOM     34  C   UNL     1      40.052 -27.279 -15.229  0.00  0.00    +0.058 C 
ATOM     35  C   UNL     1      40.618 -26.364 -14.343  0.00  0.00    +0.013 C 
ATOM     36  H   UNL     1      37.560 -24.008 -12.668  0.00  0.00    +0.152 HD
ENDBRANCH  24  28
ENDBRANCH   2  23
TORSDOF 4
ENDMDL
MODEL 3
REMARK VINA RESULT:      -9.5      3.088      7.982
REMARK  Name = 24752833
REMARK  4 active torsions:
REMARK  status: ('A' for Active; 'I' for Inactive)
REMARK    1  A    between atoms: C_1  and  N_8
REMARK    2  A    between atoms: C_2  and  N_23
REMARK    3  A    between atoms: C_9  and  C_14
REMARK    4  A    between atoms: C_24  and  C_28
REMARK                            x       y       z     vdW  Elec       q    Type
REMARK                         _______ _______ _______ _____ _____    ______ ____
ROOT
ATOM      1  C   UNL     1      37.613 -24.087 -14.842  0.00  0.00    +0.090 C 
ATOM      2  C   UNL     1      36.821 -25.406 -14.843  0.00  0.00    +0.090 C 
ATOM      3  C   UNL     1      39.117 -24.340 -14.695  0.00  0.00    +0.021 C 
ATOM      4  C   UNL     1      37.165 -26.272 -13.627  0.00  0.00    +0.021 C 
ATOM      5  C   UNL     1      39.438 -25.199 -13.477  0.00  0.00    +0.002 C 
ATOM      6  C   UNL     1      38.666 -26.514 -13.505  0.00  0.00    +0.002 C 
ENDROOT
BRANCH   1   8
ATOM      7  O   UNL     1      35.655 -22.014 -15.178  0.00  0.00    -0.267 OA
ATOM      8  N   UNL     1      37.359 -23.325 -16.045  0.00  0.00    -0.298 N 
ATOM      9  C   UNL     1      36.387 -22.339 -16.108  0.00  0.00    +0.282 C 
ATOM     10  H   UNL     1      37.897 -23.512 -16.848  0.00  0.00    +0.150 HD
BRANCH   9  14
ATOM     11  S   UNL     1      34.852 -21.977 -18.405  0.00  0.00    -0.074 S 
ATOM     12  N   UNL     1      35.788 -19.908 -21.770  0.00  0.00    +0.387 N 
ATOM     13  N   UNL     1      37.117 -20.815 -17.902  0.00  0.00    -0.399 NA
ATOM     14  C   UNL     1      36.232 -21.665 -17.423  0.00  0.00    +0.210 C 
ATOM     15  C   UNL     1      36.674 -20.375 -19.129  0.00  0.00    +0.093 C 
ATOM     16  C   UNL     1      35.476 -20.902 -19.561  0.00  0.00    +0.082 C 
ATOM     17  C   UNL     1      37.447 -19.414 -19.961  0.00  0.00    +0.032 C 
ATOM     18  C   UNL     1      34.814 -20.540 -20.849  0.00  0.00    -0.059 C 
ATOM     19  C   UNL     1      36.568 -18.844 -21.099  0.00  0.00    -0.070 C 
ATOM     20  C   UNL     1      35.102 -19.379 -22.948  0.00  0.00    -0.101 C 
ATOM     21  H   UNL     1      36.449 -20.626 -22.068  0.00  0.00    -0.080 HD
ENDBRANCH   9  14
ENDBRANCH   1   8
BRANCH   2  23
ATOM     22  O   UNL     1      35.229 -24.237 -12.759  0.00  0.00    -0.269 OA
ATOM     23  N   UNL     1      35.397 -25.156 -14.880  0.00  0.00    -0.300 N 
ATOM     24  C   UNL     1      34.715 -24.585 -13.819  0.00  0.00    +0.259 C 
ATOM     25  H   UNL     1      34.894 -25.401 -15.691  0.00  0.00    +0.150 HD
BRANCH  24  28
ATOM     26 CL   UNL     1      27.339 -22.719 -15.144  0.00  0.00    -0.082 Cl
ATOM     27  N   UNL     1      32.333 -25.394 -13.718  0.00  0.00    -0.309 N 
ATOM     28  C   UNL     1      33.250 -24.419 -14.004  0.00  0.00    +0.102 C 
ATOM     29  C   UNL     1      32.570 -23.319 -14.473  0.00  0.00    +0.020 C 
ATOM     30  C   UNL     1      31.062 -24.944 -13.994  0.00  0.00    +0.048 C 
ATOM     31  C   UNL     1      31.182 -23.637 -14.472  0.00  0.00    +0.016 C 
ATOM     32  C   UNL     1      29.826 -25.588 -13.860  0.00  0.00    +0.015 C 
ATOM     33  C   UNL     1      30.015 -22.936 -14.834  0.00  0.00    +0.013 C 
ATOM     34  C   UNL     1      28.772 -23.567 -14.704  0.00  0.00    +0.058 C 
ATOM     35  C   UNL     1      28.681 -24.873 -14.225  0.00  0.00    +0.013 C 
ATOM     36  H   UNL     1      32.551 -26.286 -13.366  0.00  0.00    +0.152 HD
ENDBRANCH  24  28
ENDBRANCH   2  23
TORSDOF 4
ENDMDL
MODEL 4
REMARK VINA RESULT:      -9.4      2.153      6.336
REMARK  Name = 24752833
REMARK  4 active torsions:
REMARK  status: ('A' for Active; 'I' for Inactive)
REMARK    1  A    between atoms: C_1  and  N_8
REMARK    2  A    between atoms: C_2  and  N_23
REMARK    3  A    between atoms: C_9  and  C_14
REMARK    4  A    between atoms: C_24  and  C_28
REMARK                            x       y       z     vdW  Elec       q    Type
REMARK                         _______ _______ _______ _____ _____    ______ ____
ROOT
ATOM      1  C   UNL     1      36.842 -25.423 -14.842  0.00  0.00    +0.090 C 
ATOM      2  C   UNL     1      37.666 -24.125 -14.754  0.00  0.00    +0.090 C 
ATOM      3  C   UNL     1      37.102 -26.331 -13.636  0.00  0.00    +0.021 C 
ATOM      4  C   UNL     1      39.154 -24.416 -14.535  0.00  0.00    +0.021 C 
ATOM      5  C   UNL     1      38.589 -26.612 -13.439  0.00  0.00    +0.002 C 
ATOM      6  C   UNL     1      39.388 -25.318 -13.327  0.00  0.00    +0.002 C 
ENDROOT
BRANCH   1   8
ATOM      7  O   UNL     1      35.149 -24.382 -12.770  0.00  0.00    -0.267 OA
ATOM      8  N   UNL     1      35.428 -25.136 -14.944  0.00  0.00    -0.298 N 
ATOM      9  C   UNL     1      34.694 -24.632 -13.882  0.00  0.00    +0.282 C 
ATOM     10  H   UNL     1      34.970 -25.304 -15.800  0.00  0.00    +0.150 HD
BRANCH   9  14
ATOM     11  S   UNL     1      32.729 -23.148 -15.185  0.00  0.00    -0.074 S 
ATOM     12  N   UNL     1      28.697 -23.361 -14.753  0.00  0.00    +0.387 N 
ATOM     13  N   UNL     1      32.303 -25.158 -13.599  0.00  0.00    -0.399 NA
ATOM     14  C   UNL     1      33.247 -24.415 -14.140  0.00  0.00    +0.210 C 
ATOM     15  C   UNL     1      31.083 -24.697 -14.043  0.00  0.00    +0.093 C 
ATOM     16  C   UNL     1      31.122 -23.616 -14.897  0.00  0.00    +0.082 C 
ATOM     17  C   UNL     1      29.795 -25.300 -13.608  0.00  0.00    +0.032 C 
ATOM     18  C   UNL     1      29.917 -22.981 -15.506  0.00  0.00    -0.059 C 
ATOM     19  C   UNL     1      28.634 -24.821 -14.512  0.00  0.00    -0.070 C 
ATOM     20  C   UNL     1      27.502 -22.902 -15.459  0.00  0.00    -0.101 C 
ATOM     21  H   UNL     1      28.739 -22.905 -13.841  0.00  0.00    -0.080 HD
ENDBRANCH   9  14
ENDBRANCH   1   8
BRANCH   2  23
ATOM     22  O   UNL     1      35.768 -22.004 -15.127  0.00  0.00    -0.269 OA
ATOM     23  N   UNL     1      37.494 -23.319 -15.942  0.00  0.00    -0.300 N 
ATOM     24  C   UNL     1      36.545 -22.314 -16.026  0.00  0.00    +0.259 C 
ATOM     25  H   UNL     1      38.073 -23.491 -16.720  0.00  0.00    +0.150 HD
BRANCH  24  28
ATOM     26 CL   UNL     1      35.339 -19.215 -22.997  0.00  0.00    -0.082 Cl
ATOM     27  N   UNL     1      37.335 -20.589 -17.682  0.00  0.00    -0.309 N 
ATOM     28  C   UNL     1      36.478 -21.595 -17.325  0.00  0.00    +0.102 C 
ATOM     29  C   UNL     1      35.592 -21.784 -18.360  0.00  0.00    +0.020 C 
ATOM     30  C   UNL     1      37.021 -20.121 -18.937  0.00  0.00    +0.048 C 
ATOM     31  C   UNL     1      35.923 -20.859 -19.389  0.00  0.00    +0.016 C 
ATOM     32  C   UNL     1      37.616 -19.111 -19.700  0.00  0.00    +0.015 C 
ATOM     33  C   UNL     1      35.393 -20.576 -20.663  0.00  0.00    +0.013 C 
ATOM     34  C   UNL     1      35.980 -19.568 -21.438  0.00  0.00    +0.058 C 
ATOM     35  C   UNL     1      37.074 -18.848 -20.962  0.00  0.00    +0.013 C 
ATOM     36  H   UNL     1      38.071 -20.251 -17.122  0.00  0.00    +0.152 HD
ENDBRANCH  24  28
ENDBRANCH   2  23
TORSDOF 4
ENDMDL
