MODEL 1
REMARK VINA RESULT:     -12.1      0.000      0.000
REMARK  Name = 24779676
REMARK  4 active torsions:
REMARK  status: ('A' for Active; 'I' for Inactive)
REMARK    1  A    between atoms: N_2  and  C_22
REMARK    2  A    between atoms: N_3  and  C_14
REMARK    3  A    between atoms: C_10  and  C_21
REMARK    4  A    between atoms: C_22  and  C_24
REMARK                            x       y       z     vdW  Elec       q    Type
REMARK                         _______ _______ _______ _____ _____    ______ ____
ROOT
ATOM      1  N   UNL     1      32.224 -24.492 -13.816  0.00  0.00    -0.123 N 
ATOM      2  N   UNL     1      34.064 -22.908 -16.999  0.00  0.00    -0.254 N 
ATOM      3  N   UNL     1      34.250 -24.689 -12.620  0.00  0.00    -0.274 N 
ATOM      4  N   UNL     1      34.164 -23.796 -14.813  0.00  0.00    -0.295 NA
ATOM      5  N   UNL     1      32.095 -23.613 -15.994  0.00  0.00    -0.314 NA
ATOM      6  N   UNL     1      31.504 -25.014 -12.808  0.00  0.00    -0.170 NA
ATOM      7  C   UNL     1      33.597 -24.312 -13.761  0.00  0.00    +0.279 C 
ATOM      8  C   UNL     1      31.487 -24.149 -14.913  0.00  0.00    +0.219 C 
ATOM      9  C   UNL     1      33.398 -23.451 -15.925  0.00  0.00    +0.203 C 
ATOM     10  C   UNL     1      30.187 -24.472 -14.597  0.00  0.00    +0.203 C 
ATOM     11  C   UNL     1      30.258 -24.999 -13.292  0.00  0.00    +0.116 C 
ATOM     12  H   UNL     1      35.040 -22.787 -16.943  0.00  0.00    +0.161 HD
ATOM     13  H   UNL     1      33.695 -25.067 -11.899  0.00  0.00    +0.156 HD
ENDROOT
BRANCH   3  14
ATOM     14  C   UNL     1      35.620 -24.594 -12.367  0.00  0.00    +0.051 C 
ATOM     15  C   UNL     1      36.483 -25.592 -12.818  0.00  0.00    +0.015 C 
ATOM     16  C   UNL     1      36.124 -23.502 -11.661  0.00  0.00    +0.015 C 
ATOM     17  C   UNL     1      37.852 -25.497 -12.565  0.00  0.00    +0.001 C 
ATOM     18  C   UNL     1      37.493 -23.406 -11.409  0.00  0.00    +0.001 C 
ATOM     19  C   UNL     1      38.356 -24.404 -11.860  0.00  0.00    +0.000 C 
ENDBRANCH   3  14
BRANCH  10  21
ATOM     20  N   UNL     1      28.109 -24.161 -16.097  0.00  0.00    -0.195 NA
ATOM     21  C   UNL     1      29.044 -24.301 -15.422  0.00  0.00    +0.087 C 
ENDBRANCH  10  21
BRANCH   2  22
ATOM     22  C   UNL     1      33.386 -22.514 -18.193  0.00  0.00    +0.125 C 
BRANCH  22  24
ATOM     23 CL   UNL     1      36.829 -18.804 -21.442  0.00  0.00    -0.082 Cl
ATOM     24  C   UNL     1      34.246 -21.588 -19.006  0.00  0.00    -0.002 C 
ATOM     25  C   UNL     1      33.659 -20.707 -19.915  0.00  0.00    -0.002 C 
ATOM     26  C   UNL     1      35.633 -21.606 -18.850  0.00  0.00    -0.002 C 
ATOM     27  C   UNL     1      34.458 -19.846 -20.668  0.00  0.00    +0.011 C 
ATOM     28  C   UNL     1      36.431 -20.746 -19.603  0.00  0.00    +0.011 C 
ATOM     29  C   UNL     1      35.843 -19.866 -20.512  0.00  0.00    +0.058 C 
ENDBRANCH  22  24
ENDBRANCH   2  22
TORSDOF 4
ENDMDL
MODEL 2
REMARK VINA RESULT:     -11.0      1.452      5.532
REMARK  Name = 24779676
REMARK  4 active torsions:
REMARK  status: ('A' for Active; 'I' for Inactive)
REMARK    1  A    between atoms: N_2  and  C_22
REMARK    2  A    between atoms: N_3  and  C_14
REMARK    3  A    between atoms: C_10  and  C_21
REMARK    4  A    between atoms: C_22  and  C_24
REMARK                            x       y       z     vdW  Elec       q    Type
REMARK                         _______ _______ _______ _____ _____    ______ ____
ROOT
ATOM      1  N   UNL     1      33.852 -24.027 -13.836  0.00  0.00    -0.123 N 
ATOM      2  N   UNL     1      34.381 -22.545 -17.516  0.00  0.00    -0.254 N 
ATOM      3  N   UNL     1      31.501 -24.002 -14.058  0.00  0.00    -0.274 N 
ATOM      4  N   UNL     1      32.938 -23.270 -15.794  0.00  0.00    -0.295 NA
ATOM      5  N   UNL     1      35.313 -23.309 -15.533  0.00  0.00    -0.314 NA
ATOM      6  N   UNL     1      33.793 -24.526 -12.589  0.00  0.00    -0.170 NA
ATOM      7  C   UNL     1      32.731 -23.752 -14.603  0.00  0.00    +0.279 C 
ATOM      8  C   UNL     1      35.119 -23.809 -14.293  0.00  0.00    +0.219 C 
ATOM      9  C   UNL     1      34.239 -23.053 -16.247  0.00  0.00    +0.203 C 
ATOM     10  C   UNL     1      35.951 -24.195 -13.267  0.00  0.00    +0.203 C 
ATOM     11  C   UNL     1      35.081 -24.627 -12.246  0.00  0.00    +0.116 C 
ATOM     12  H   UNL     1      33.574 -22.354 -18.048  0.00  0.00    +0.161 HD
ATOM     13  H   UNL     1      31.491 -24.368 -13.143  0.00  0.00    +0.156 HD
ENDROOT
BRANCH   3  14
ATOM     14  C   UNL     1      30.258 -23.793 -14.659  0.00  0.00    +0.051 C 
ATOM     15  C   UNL     1      29.590 -22.583 -14.477  0.00  0.00    +0.015 C 
ATOM     16  C   UNL     1      29.686 -24.796 -15.441  0.00  0.00    +0.015 C 
ATOM     17  C   UNL     1      28.348 -22.375 -15.078  0.00  0.00    +0.001 C 
ATOM     18  C   UNL     1      28.444 -24.588 -16.043  0.00  0.00    +0.001 C 
ATOM     19  C   UNL     1      27.776 -23.377 -15.861  0.00  0.00    +0.000 C 
ENDBRANCH   3  14
BRANCH  10  21
ATOM     20  N   UNL     1      38.531 -24.126 -13.259  0.00  0.00    -0.195 NA
ATOM     21  C   UNL     1      37.371 -24.156 -13.262  0.00  0.00    +0.087 C 
ENDBRANCH  10  21
BRANCH   2  22
ATOM     22  C   UNL     1      35.663 -22.281 -18.089  0.00  0.00    +0.125 C 
BRANCH  22  24
ATOM     23 CL   UNL     1      35.239 -18.059 -22.351  0.00  0.00    -0.082 Cl
ATOM     24  C   UNL     1      35.558 -21.225 -19.154  0.00  0.00    -0.002 C 
ATOM     25  C   UNL     1      36.696 -20.532 -19.565  0.00  0.00    -0.002 C 
ATOM     26  C   UNL     1      34.320 -20.940 -19.733  0.00  0.00    -0.002 C 
ATOM     27  C   UNL     1      36.597 -19.553 -20.554  0.00  0.00    +0.011 C 
ATOM     28  C   UNL     1      34.222 -19.961 -20.721  0.00  0.00    +0.011 C 
ATOM     29  C   UNL     1      35.361 -19.268 -21.132  0.00  0.00    +0.058 C 
ENDBRANCH  22  24
ENDBRANCH   2  22
TORSDOF 4
ENDMDL
MODEL 3
REMARK VINA RESULT:     -10.6      2.086      5.442
REMARK  Name = 24779676
REMARK  4 active torsions:
REMARK  status: ('A' for Active; 'I' for Inactive)
REMARK    1  A    between atoms: N_2  and  C_22
REMARK    2  A    between atoms: N_3  and  C_14
REMARK    3  A    between atoms: C_10  and  C_21
REMARK    4  A    between atoms: C_22  and  C_24
REMARK                            x       y       z     vdW  Elec       q    Type
REMARK                         _______ _______ _______ _____ _____    ______ ____
ROOT
ATOM      1  N   UNL     1      36.153 -24.769 -13.945  0.00  0.00    -0.123 N 
ATOM      2  N   UNL     1      35.759 -22.258 -17.037  0.00  0.00    -0.254 N 
ATOM      3  N   UNL     1      33.830 -24.765 -13.519  0.00  0.00    -0.274 N 
ATOM      4  N   UNL     1      34.791 -23.507 -15.283  0.00  0.00    -0.295 NA
ATOM      5  N   UNL     1      37.146 -23.535 -15.683  0.00  0.00    -0.314 NA
ATOM      6  N   UNL     1      36.403 -25.613 -12.928  0.00  0.00    -0.170 NA
ATOM      7  C   UNL     1      34.883 -24.323 -14.273  0.00  0.00    +0.279 C 
ATOM      8  C   UNL     1      37.264 -24.382 -14.637  0.00  0.00    +0.219 C 
ATOM      9  C   UNL     1      35.934 -23.120 -15.980  0.00  0.00    +0.203 C 
ATOM     10  C   UNL     1      38.319 -25.020 -14.026  0.00  0.00    +0.203 C 
ATOM     11  C   UNL     1      37.729 -25.763 -12.983  0.00  0.00    +0.116 C 
ATOM     12  H   UNL     1      34.850 -21.950 -17.257  0.00  0.00    +0.161 HD
ATOM     13  H   UNL     1      34.045 -25.382 -12.783  0.00  0.00    +0.156 HD
ENDROOT
BRANCH   3  14
ATOM     14  C   UNL     1      32.484 -24.435 -13.683  0.00  0.00    +0.051 C 
ATOM     15  C   UNL     1      31.505 -25.423 -13.571  0.00  0.00    +0.015 C 
ATOM     16  C   UNL     1      32.118 -23.117 -13.958  0.00  0.00    +0.015 C 
ATOM     17  C   UNL     1      30.159 -25.092 -13.734  0.00  0.00    +0.001 C 
ATOM     18  C   UNL     1      30.772 -22.787 -14.119  0.00  0.00    +0.001 C 
ATOM     19  C   UNL     1      29.793 -23.774 -14.008  0.00  0.00    +0.000 C 
ENDBRANCH   3  14
BRANCH  10  21
ATOM     20  N   UNL     1      40.810 -24.863 -14.682  0.00  0.00    -0.195 NA
ATOM     21  C   UNL     1      39.690 -24.934 -14.387  0.00  0.00    +0.087 C 
ENDBRANCH  10  21
BRANCH   2  22
ATOM     22  C   UNL     1      36.855 -21.793 -17.827  0.00  0.00    +0.125 C 
BRANCH  22  24
ATOM     23 CL   UNL     1      34.870 -18.566 -22.497  0.00  0.00    -0.082 Cl
ATOM     24  C   UNL     1      36.359 -20.987 -18.994  0.00  0.00    -0.002 C 
ATOM     25  C   UNL     1      35.070 -21.192 -19.488  0.00  0.00    -0.002 C 
ATOM     26  C   UNL     1      37.187 -20.031 -19.585  0.00  0.00    -0.002 C 
ATOM     27  C   UNL     1      34.610 -20.443 -20.571  0.00  0.00    +0.011 C 
ATOM     28  C   UNL     1      36.727 -19.283 -20.668  0.00  0.00    +0.011 C 
ATOM     29  C   UNL     1      35.438 -19.489 -21.160  0.00  0.00    +0.058 C 
ENDBRANCH  22  24
ENDBRANCH   2  22
TORSDOF 4
ENDMDL
MODEL 4
REMARK VINA RESULT:     -10.0      2.653      6.811
REMARK  Name = 24779676
REMARK  4 active torsions:
REMARK  status: ('A' for Active; 'I' for Inactive)
REMARK    1  A    between atoms: N_2  and  C_22
REMARK    2  A    between atoms: N_3  and  C_14
REMARK    3  A    between atoms: C_10  and  C_21
REMARK    4  A    between atoms: C_22  and  C_24
REMARK                            x       y       z     vdW  Elec       q    Type
REMARK                         _______ _______ _______ _____ _____    ______ ____
ROOT
ATOM      1  N   UNL     1      31.576 -23.010 -16.418  0.00  0.00    -0.123 N 
ATOM      2  N   UNL     1      35.214 -23.974 -15.052  0.00  0.00    -0.254 N 
ATOM      3  N   UNL     1      32.471 -21.850 -18.269  0.00  0.00    -0.274 N 
ATOM      4  N   UNL     1      33.850 -22.911 -16.660  0.00  0.00    -0.295 NA
ATOM      5  N   UNL     1      32.909 -24.076 -14.799  0.00  0.00    -0.314 NA
ATOM      6  N   UNL     1      30.309 -22.746 -16.783  0.00  0.00    -0.170 NA
ATOM      7  C   UNL     1      32.683 -22.582 -17.133  0.00  0.00    +0.279 C 
ATOM      8  C   UNL     1      31.687 -23.744 -15.272  0.00  0.00    +0.219 C 
ATOM      9  C   UNL     1      33.948 -23.661 -15.489  0.00  0.00    +0.203 C 
ATOM     10  C   UNL     1      30.396 -23.976 -14.857  0.00  0.00    +0.203 C 
ATOM     11  C   UNL     1      29.592 -23.339 -15.824  0.00  0.00    +0.116 C 
ATOM     12  H   UNL     1      35.989 -23.661 -15.571  0.00  0.00    +0.161 HD
ATOM     13  H   UNL     1      31.533 -21.673 -18.510  0.00  0.00    +0.156 HD
ENDROOT
BRANCH   3  14
ATOM     14  C   UNL     1      33.443 -21.325 -19.123  0.00  0.00    +0.051 C 
ATOM     15  C   UNL     1      33.071 -20.480 -20.168  0.00  0.00    +0.015 C 
ATOM     16  C   UNL     1      34.787 -21.648 -18.931  0.00  0.00    +0.015 C 
ATOM     17  C   UNL     1      34.043 -19.956 -21.020  0.00  0.00    +0.001 C 
ATOM     18  C   UNL     1      35.759 -21.123 -19.784  0.00  0.00    +0.001 C 
ATOM     19  C   UNL     1      35.386 -20.278 -20.828  0.00  0.00    +0.000 C 
ENDBRANCH   3  14
BRANCH  10  21
ATOM     20  N   UNL     1      29.658 -25.293 -12.763  0.00  0.00    -0.195 NA
ATOM     21  C   UNL     1      29.990 -24.700 -13.705  0.00  0.00    +0.087 C 
ENDBRANCH  10  21
BRANCH   2  22
ATOM     22  C   UNL     1      35.440 -24.737 -13.865  0.00  0.00    +0.125 C 
BRANCH  22  24
ATOM     23 CL   UNL     1      41.084 -26.811 -13.740  0.00  0.00    -0.082 Cl
ATOM     24  C   UNL     1      36.850 -25.256 -13.834  0.00  0.00    -0.002 C 
ATOM     25  C   UNL     1      37.227 -26.306 -14.672  0.00  0.00    -0.002 C 
ATOM     26  C   UNL     1      37.784 -24.687 -12.967  0.00  0.00    -0.002 C 
ATOM     27  C   UNL     1      38.536 -26.786 -14.643  0.00  0.00    +0.011 C 
ATOM     28  C   UNL     1      39.092 -25.168 -12.938  0.00  0.00    +0.011 C 
ATOM     29  C   UNL     1      39.468 -26.217 -13.776  0.00  0.00    +0.058 C 
ENDBRANCH  22  24
ENDBRANCH   2  22
TORSDOF 4
ENDMDL
MODEL 5
REMARK VINA RESULT:      -9.6      2.751      6.850
REMARK  Name = 24779676
REMARK  4 active torsions:
REMARK  status: ('A' for Active; 'I' for Inactive)
REMARK    1  A    between atoms: N_2  and  C_22
REMARK    2  A    between atoms: N_3  and  C_14
REMARK    3  A    between atoms: C_10  and  C_21
REMARK    4  A    between atoms: C_22  and  C_24
REMARK                            x       y       z     vdW  Elec       q    Type
REMARK                         _______ _______ _______ _____ _____    ______ ____
ROOT
ATOM      1  N   UNL     1      32.113 -23.022 -16.317  0.00  0.00    -0.123 N 
ATOM      2  N   UNL     1      35.956 -23.393 -15.259  0.00  0.00    -0.254 N 
ATOM      3  N   UNL     1      32.668 -21.851 -18.290  0.00  0.00    -0.274 N 
ATOM      4  N   UNL     1      34.319 -22.620 -16.776  0.00  0.00    -0.295 NA
ATOM      5  N   UNL     1      33.721 -23.802 -14.787  0.00  0.00    -0.314 NA
ATOM      6  N   UNL     1      30.795 -22.958 -16.573  0.00  0.00    -0.170 NA
ATOM      7  C   UNL     1      33.080 -22.483 -17.150  0.00  0.00    +0.279 C 
ATOM      8  C   UNL     1      32.428 -23.670 -15.157  0.00  0.00    +0.219 C 
ATOM      9  C   UNL     1      34.625 -23.284 -15.589  0.00  0.00    +0.203 C 
ATOM     10  C   UNL     1      31.224 -24.056 -14.614  0.00  0.00    +0.203 C 
ATOM     11  C   UNL     1      30.255 -23.592 -15.527  0.00  0.00    +0.116 C 
ATOM     12  H   UNL     1      36.630 -23.003 -15.861  0.00  0.00    +0.161 HD
ATOM     13  H   UNL     1      31.696 -21.820 -18.450  0.00  0.00    +0.156 HD
ENDROOT
BRANCH   3  14
ATOM     14  C   UNL     1      33.476 -21.243 -19.253  0.00  0.00    +0.051 C 
ATOM     15  C   UNL     1      34.863 -21.383 -19.188  0.00  0.00    +0.015 C 
ATOM     16  C   UNL     1      32.897 -20.496 -20.279  0.00  0.00    +0.015 C 
ATOM     17  C   UNL     1      35.670 -20.776 -20.151  0.00  0.00    +0.001 C 
ATOM     18  C   UNL     1      33.705 -19.890 -21.242  0.00  0.00    +0.001 C 
ATOM     19  C   UNL     1      35.091 -20.030 -21.177  0.00  0.00    +0.000 C 
ENDBRANCH   3  14
BRANCH  10  21
ATOM     20  N   UNL     1      30.867 -25.347 -12.407  0.00  0.00    -0.195 NA
ATOM     21  C   UNL     1      31.027 -24.767 -13.400  0.00  0.00    +0.087 C 
ENDBRANCH  10  21
BRANCH   2  22
ATOM     22  C   UNL     1      36.391 -24.051 -14.068  0.00  0.00    +0.125 C 
BRANCH  22  24
ATOM     23 CL   UNL     1      40.854 -27.893 -15.292  0.00  0.00    -0.082 Cl
ATOM     24  C   UNL     1      37.507 -25.011 -14.375  0.00  0.00    -0.002 C 
ATOM     25  C   UNL     1      38.833 -24.580 -14.323  0.00  0.00    -0.002 C 
ATOM     26  C   UNL     1      37.216 -26.334 -14.709  0.00  0.00    -0.002 C 
ATOM     27  C   UNL     1      39.867 -25.472 -14.607  0.00  0.00    +0.011 C 
ATOM     28  C   UNL     1      38.251 -27.225 -14.993  0.00  0.00    +0.011 C 
ATOM     29  C   UNL     1      39.576 -26.794 -14.942  0.00  0.00    +0.058 C 
ENDBRANCH  22  24
ENDBRANCH   2  22
TORSDOF 4
ENDMDL
MODEL 6
REMARK VINA RESULT:      -9.6      3.160      7.725
REMARK  Name = 24779676
REMARK  4 active torsions:
REMARK  status: ('A' for Active; 'I' for Inactive)
REMARK    1  A    between atoms: N_2  and  C_22
REMARK    2  A    between atoms: N_3  and  C_14
REMARK    3  A    between atoms: C_10  and  C_21
REMARK    4  A    between atoms: C_22  and  C_24
REMARK                            x       y       z     vdW  Elec       q    Type
REMARK                         _______ _______ _______ _____ _____    ______ ____
ROOT
ATOM      1  N   UNL     1      36.412 -22.641 -16.411  0.00  0.00    -0.123 N 
ATOM      2  N   UNL     1      32.458 -23.226 -16.615  0.00  0.00    -0.254 N 
ATOM      3  N   UNL     1      36.415 -21.312 -18.363  0.00  0.00    -0.274 N 
ATOM      4  N   UNL     1      34.429 -22.269 -17.492  0.00  0.00    -0.295 NA
ATOM      5  N   UNL     1      34.465 -23.609 -15.515  0.00  0.00    -0.314 NA
ATOM      6  N   UNL     1      37.740 -22.511 -16.244  0.00  0.00    -0.170 NA
ATOM      7  C   UNL     1      35.713 -22.057 -17.456  0.00  0.00    +0.279 C 
ATOM      8  C   UNL     1      35.799 -23.403 -15.459  0.00  0.00    +0.219 C 
ATOM      9  C   UNL     1      33.817 -23.049 -16.513  0.00  0.00    +0.203 C 
ATOM     10  C   UNL     1      36.803 -23.802 -14.606  0.00  0.00    +0.203 C 
ATOM     11  C   UNL     1      37.973 -23.224 -15.137  0.00  0.00    +0.116 C 
ATOM     12  H   UNL     1      31.976 -22.805 -17.363  0.00  0.00    +0.161 HD
ATOM     13  H   UNL     1      37.385 -21.235 -18.213  0.00  0.00    +0.156 HD
ENDROOT
BRANCH   3  14
ATOM     14  C   UNL     1      35.903 -20.649 -19.480  0.00  0.00    +0.051 C 
ATOM     15  C   UNL     1      34.568 -20.824 -19.844  0.00  0.00    +0.015 C 
ATOM     16  C   UNL     1      36.727 -19.811 -20.231  0.00  0.00    +0.015 C 
ATOM     17  C   UNL     1      34.057 -20.160 -20.959  0.00  0.00    +0.001 C 
ATOM     18  C   UNL     1      36.215 -19.146 -21.346  0.00  0.00    +0.001 C 
ATOM     19  C   UNL     1      34.880 -19.322 -21.710  0.00  0.00    +0.000 C 
ENDBRANCH   3  14
BRANCH  10  21
ATOM     20  N   UNL     1      36.549 -25.281 -12.505  0.00  0.00    -0.195 NA
ATOM     21  C   UNL     1      36.663 -24.615 -13.450  0.00  0.00    +0.087 C 
ENDBRANCH  10  21
BRANCH   2  22
ATOM     22  C   UNL     1      31.721 -24.005 -15.670  0.00  0.00    +0.125 C 
BRANCH  22  24
ATOM     23 CL   UNL     1      26.029 -22.090 -15.340  0.00  0.00    -0.082 Cl
ATOM     24  C   UNL     1      30.298 -23.526 -15.588  0.00  0.00    -0.002 C 
ATOM     25  C   UNL     1      29.381 -23.890 -16.574  0.00  0.00    -0.002 C 
ATOM     26  C   UNL     1      29.894 -22.718 -14.524  0.00  0.00    -0.002 C 
ATOM     27  C   UNL     1      28.061 -23.446 -16.497  0.00  0.00    +0.011 C 
ATOM     28  C   UNL     1      28.574 -22.274 -14.448  0.00  0.00    +0.011 C 
ATOM     29  C   UNL     1      27.658 -22.638 -15.434  0.00  0.00    +0.058 C 
ENDBRANCH  22  24
ENDBRANCH   2  22
TORSDOF 4
ENDMDL
MODEL 7
REMARK VINA RESULT:      -9.1      2.953      7.110
REMARK  Name = 24779676
REMARK  4 active torsions:
REMARK  status: ('A' for Active; 'I' for Inactive)
REMARK    1  A    between atoms: N_2  and  C_22
REMARK    2  A    between atoms: N_3  and  C_14
REMARK    3  A    between atoms: C_10  and  C_21
REMARK    4  A    between atoms: C_22  and  C_24
REMARK                            x       y       z     vdW  Elec       q    Type
REMARK                         _______ _______ _______ _____ _____    ______ ____
ROOT
ATOM      1  N   UNL     1      36.263 -23.178 -14.389  0.00  0.00    -0.123 N 
ATOM      2  N   UNL     1      32.449 -23.747 -15.463  0.00  0.00    -0.254 N 
ATOM      3  N   UNL     1      36.779 -22.103 -16.427  0.00  0.00    -0.274 N 
ATOM      4  N   UNL     1      34.608 -22.925 -15.950  0.00  0.00    -0.295 NA
ATOM      5  N   UNL     1      34.123 -24.008 -13.877  0.00  0.00    -0.314 NA
ATOM      6  N   UNL     1      37.518 -23.041 -13.925  0.00  0.00    -0.170 NA
ATOM      7  C   UNL     1      35.854 -22.723 -15.632  0.00  0.00    +0.279 C 
ATOM      8  C   UNL     1      35.413 -23.809 -13.528  0.00  0.00    +0.219 C 
ATOM      9  C   UNL     1      33.752 -23.571 -15.060  0.00  0.00    +0.203 C 
ATOM     10  C   UNL     1      36.169 -24.108 -12.418  0.00  0.00    +0.203 C 
ATOM     11  C   UNL     1      37.454 -23.612 -12.718  0.00  0.00    +0.116 C 
ATOM     12  H   UNL     1      32.175 -23.418 -16.350  0.00  0.00    +0.161 HD
ATOM     13  H   UNL     1      37.689 -22.018 -16.059  0.00  0.00    +0.156 HD
ENDROOT
BRANCH   3  14
ATOM     14  C   UNL     1      36.572 -21.579 -17.704  0.00  0.00    +0.051 C 
ATOM     15  C   UNL     1      35.517 -22.047 -18.487  0.00  0.00    +0.015 C 
ATOM     16  C   UNL     1      37.422 -20.588 -18.197  0.00  0.00    +0.015 C 
ATOM     17  C   UNL     1      35.311 -21.522 -19.764  0.00  0.00    +0.001 C 
ATOM     18  C   UNL     1      37.214 -20.063 -19.473  0.00  0.00    +0.001 C 
ATOM     19  C   UNL     1      36.159 -20.531 -20.256  0.00  0.00    +0.000 C 
ENDBRANCH   3  14
BRANCH  10  21
ATOM     20  N   UNL     1      35.368 -25.311 -10.279  0.00  0.00    -0.195 NA
ATOM     21  C   UNL     1      35.728 -24.770 -11.241  0.00  0.00    +0.087 C 
ENDBRANCH  10  21
BRANCH   2  22
ATOM     22  C   UNL     1      31.480 -24.394 -14.637  0.00  0.00    +0.125 C 
BRANCH  22  24
ATOM     23 CL   UNL     1      26.004 -22.119 -15.640  0.00  0.00    -0.082 Cl
ATOM     24  C   UNL     1      30.111 -23.826 -14.887  0.00  0.00    -0.002 C 
ATOM     25  C   UNL     1      29.703 -22.668 -14.223  0.00  0.00    -0.002 C 
ATOM     26  C   UNL     1      29.248 -24.455 -15.786  0.00  0.00    -0.002 C 
ATOM     27  C   UNL     1      28.433 -22.141 -14.456  0.00  0.00    +0.011 C 
ATOM     28  C   UNL     1      27.978 -23.927 -16.018  0.00  0.00    +0.011 C 
ATOM     29  C   UNL     1      27.571 -22.770 -15.353  0.00  0.00    +0.058 C 
ENDBRANCH  22  24
ENDBRANCH   2  22
TORSDOF 4
ENDMDL
