MODEL 1
REMARK VINA RESULT:     -13.0      0.000      0.000
REMARK  Name = 23656870
REMARK  4 active torsions:
REMARK  status: ('A' for Active; 'I' for Inactive)
REMARK    1  A    between atoms: N_2  and  C_25
REMARK    2  A    between atoms: N_3  and  C_14
REMARK    3  A    between atoms: C_10  and  C_32
REMARK    4  A    between atoms: C_16  and  N_21
REMARK                            x       y       z     vdW  Elec       q    Type
REMARK                         _______ _______ _______ _____ _____    ______ ____
ROOT
ATOM      1  N   UNL     1      31.772 -23.465 -14.791  0.00  0.00    -0.123 N 
ATOM      2  N   UNL     1      34.012 -23.970 -14.246  0.00  0.00    -0.274 N 
ATOM      3  N   UNL     1      32.757 -22.310 -18.495  0.00  0.00    -0.238 N 
ATOM      4  N   UNL     1      33.390 -23.140 -16.377  0.00  0.00    -0.295 NA
ATOM      5  N   UNL     1      31.112 -22.640 -16.894  0.00  0.00    -0.314 NA
ATOM      6  N   UNL     1      31.327 -23.828 -13.574  0.00  0.00    -0.170 NA
ATOM      7  C   UNL     1      33.104 -23.522 -15.166  0.00  0.00    +0.279 C 
ATOM      8  C   UNL     1      30.793 -23.034 -15.640  0.00  0.00    +0.219 C 
ATOM      9  C   UNL     1      32.381 -22.700 -17.232  0.00  0.00    +0.207 C 
ATOM     10  C   UNL     1      29.621 -23.121 -14.923  0.00  0.00    +0.203 C 
ATOM     11  C   UNL     1      30.011 -23.615 -13.662  0.00  0.00    +0.116 C 
ATOM     12  H   UNL     1      33.647 -24.225 -13.369  0.00  0.00    +0.156 HD
ATOM     13  H   UNL     1      32.088 -22.441 -19.204  0.00  0.00    +0.166 HD
ENDROOT
BRANCH   3  14
ATOM     14  C   UNL     1      33.970 -21.752 -18.896  0.00  0.00    +0.060 C 
ATOM     15  C   UNL     1      33.997 -20.803 -19.918  0.00  0.00    +0.030 C 
ATOM     16  C   UNL     1      35.210 -20.245 -20.319  0.00  0.00    +0.052 C 
ATOM     17  C   UNL     1      35.156 -22.142 -18.275  0.00  0.00    +0.015 C 
ATOM     18  C   UNL     1      36.396 -20.635 -19.698  0.00  0.00    +0.015 C 
ATOM     19  C   UNL     1      36.370 -21.583 -18.675  0.00  0.00    +0.003 C 
BRANCH  16  21
ATOM     20  O   UNL     1      35.540 -17.254 -20.205  0.00  0.00    -0.275 OA
ATOM     21  N   UNL     1      35.238 -19.297 -21.342  0.00  0.00    -0.284 N 
ATOM     22  C   UNL     1      35.394 -17.908 -21.232  0.00  0.00    +0.227 C 
ATOM     23  C   UNL     1      35.370 -17.234 -22.581  0.00  0.00    +0.095 C 
ATOM     24  H   UNL     1      35.136 -19.647 -22.258  0.00  0.00    +0.155 HD
ENDBRANCH  16  21
ENDBRANCH   3  14
BRANCH   2  25
ATOM     25  C   UNL     1      35.395 -24.114 -14.394  0.00  0.00    +0.051 C 
ATOM     26  C   UNL     1      36.198 -22.989 -14.577  0.00  0.00    +0.015 C 
ATOM     27  C   UNL     1      35.972 -25.384 -14.358  0.00  0.00    +0.015 C 
ATOM     28  C   UNL     1      37.578 -23.131 -14.725  0.00  0.00    +0.001 C 
ATOM     29  C   UNL     1      37.352 -25.527 -14.505  0.00  0.00    +0.001 C 
ATOM     30  C   UNL     1      38.155 -24.401 -14.689  0.00  0.00    +0.000 C 
ENDBRANCH   2  25
BRANCH  10  32
ATOM     31  N   UNL     1      27.255 -22.503 -15.750  0.00  0.00    -0.195 NA
ATOM     32  C   UNL     1      28.320 -22.781 -15.378  0.00  0.00    +0.087 C 
ENDBRANCH  10  32
TORSDOF 4
ENDMDL
MODEL 2
REMARK VINA RESULT:     -10.4      1.826      2.241
REMARK  Name = 23656870
REMARK  4 active torsions:
REMARK  status: ('A' for Active; 'I' for Inactive)
REMARK    1  A    between atoms: N_2  and  C_25
REMARK    2  A    between atoms: N_3  and  C_14
REMARK    3  A    between atoms: C_10  and  C_32
REMARK    4  A    between atoms: C_16  and  N_21
REMARK                            x       y       z     vdW  Elec       q    Type
REMARK                         _______ _______ _______ _____ _____    ______ ____
ROOT
ATOM      1  N   UNL     1      32.210 -24.561 -13.688  0.00  0.00    -0.123 N 
ATOM      2  N   UNL     1      34.264 -24.724 -12.536  0.00  0.00    -0.274 N 
ATOM      3  N   UNL     1      33.996 -23.269 -17.030  0.00  0.00    -0.238 N 
ATOM      4  N   UNL     1      34.137 -23.995 -14.787  0.00  0.00    -0.295 NA
ATOM      5  N   UNL     1      32.040 -23.842 -15.922  0.00  0.00    -0.314 NA
ATOM      6  N   UNL     1      31.506 -24.987 -12.623  0.00  0.00    -0.170 NA
ATOM      7  C   UNL     1      33.588 -24.416 -13.685  0.00  0.00    +0.279 C 
ATOM      8  C   UNL     1      31.450 -24.280 -14.787  0.00  0.00    +0.219 C 
ATOM      9  C   UNL     1      33.348 -23.711 -15.901  0.00  0.00    +0.207 C 
ATOM     10  C   UNL     1      30.152 -24.542 -14.412  0.00  0.00    +0.203 C 
ATOM     11  C   UNL     1      30.248 -24.972 -13.073  0.00  0.00    +0.116 C 
ATOM     12  H   UNL     1      33.712 -25.032 -11.781  0.00  0.00    +0.156 HD
ATOM     13  H   UNL     1      33.572 -23.498 -17.888  0.00  0.00    +0.166 HD
ENDROOT
BRANCH   3  14
ATOM     14  C   UNL     1      35.178 -22.536 -17.110  0.00  0.00    +0.060 C 
ATOM     15  C   UNL     1      35.426 -21.729 -18.221  0.00  0.00    +0.030 C 
ATOM     16  C   UNL     1      36.609 -20.995 -18.300  0.00  0.00    +0.052 C 
ATOM     17  C   UNL     1      36.114 -22.607 -16.077  0.00  0.00    +0.015 C 
ATOM     18  C   UNL     1      37.545 -21.067 -17.268  0.00  0.00    +0.015 C 
ATOM     19  C   UNL     1      37.298 -21.873 -16.156  0.00  0.00    +0.003 C 
BRANCH  16  21
ATOM     20  O   UNL     1      34.752 -20.013 -20.457  0.00  0.00    -0.275 OA
ATOM     21  N   UNL     1      36.857 -20.190 -19.411  0.00  0.00    -0.284 N 
ATOM     22  C   UNL     1      35.950 -19.762 -20.391  0.00  0.00    +0.227 C 
ATOM     23  C   UNL     1      36.618 -18.899 -21.433  0.00  0.00    +0.095 C 
ATOM     24  H   UNL     1      37.787 -19.883 -19.523  0.00  0.00    +0.155 HD
ENDBRANCH  16  21
ENDBRANCH   3  14
BRANCH   2  25
ATOM     25  C   UNL     1      35.640 -24.659 -12.298  0.00  0.00    +0.051 C 
ATOM     26  C   UNL     1      36.191 -23.530 -11.693  0.00  0.00    +0.015 C 
ATOM     27  C   UNL     1      36.463 -25.725 -12.664  0.00  0.00    +0.015 C 
ATOM     28  C   UNL     1      37.564 -23.465 -11.455  0.00  0.00    +0.001 C 
ATOM     29  C   UNL     1      37.835 -25.661 -12.425  0.00  0.00    +0.001 C 
ATOM     30  C   UNL     1      38.386 -24.531 -11.821  0.00  0.00    +0.000 C 
ENDBRANCH   2  25
BRANCH  10  32
ATOM     31  N   UNL     1      28.040 -24.285 -15.873  0.00  0.00    -0.195 NA
ATOM     32  C   UNL     1      28.990 -24.400 -15.216  0.00  0.00    +0.087 C 
ENDBRANCH  10  32
TORSDOF 4
ENDMDL
