MODEL 1
REMARK VINA RESULT:     -11.6      0.000      0.000
REMARK  Name = 16045418
REMARK  6 active torsions:
REMARK  status: ('A' for Active; 'I' for Inactive)
REMARK    1  A    between atoms: C_2  and  O_8
REMARK    2  A    between atoms: C_4  and  O_23
REMARK    3  A    between atoms: O_8  and  C_9
REMARK    4  A    between atoms: C_9  and  C_14
REMARK    5  A    between atoms: O_23  and  C_25
REMARK    6  A    between atoms: C_28  and  C_32
REMARK                            x       y       z     vdW  Elec       q    Type
REMARK                         _______ _______ _______ _____ _____    ______ ____
ROOT
ATOM      1 CL   UNL     1      32.149 -12.451 -19.942  0.00  0.00    -0.079 Cl
ATOM      2  C   UNL     1      34.661 -15.289 -22.384  0.00  0.00    +0.142 C 
ATOM      3  C   UNL     1      33.917 -14.306 -23.030  0.00  0.00    +0.075 C 
ATOM      4  C   UNL     1      33.137 -13.423 -22.282  0.00  0.00    +0.159 C 
ATOM      5  C   UNL     1      34.632 -15.397 -20.997  0.00  0.00    +0.038 C 
ATOM      6  C   UNL     1      33.105 -13.528 -20.892  0.00  0.00    +0.092 C 
ATOM      7  C   UNL     1      33.852 -14.515 -20.249  0.00  0.00    +0.018 C 
ENDROOT
BRANCH   2   8
ATOM      8  O   UNL     1      35.425 -16.154 -23.117  0.00  0.00    -0.469 OA
BRANCH   8   9
ATOM      9  C   UNL     1      35.008 -17.520 -23.129  0.00  0.00    +0.249 C 
BRANCH   9  14
ATOM     10  N   UNL     1      37.114 -18.120 -21.957  0.00  0.00    -0.227 N 
ATOM     11  N   UNL     1      37.661 -18.901 -21.002  0.00  0.00    -0.115 NA
ATOM     12  N   UNL     1      36.623 -20.550 -19.557  0.00  0.00    -0.335 NA
ATOM     13  N   UNL     1      35.243 -22.066 -18.340  0.00  0.00    -0.332 N 
ATOM     14  C   UNL     1      35.767 -18.290 -22.131  0.00  0.00    +0.097 C 
ATOM     15  C   UNL     1      35.418 -19.250 -21.221  0.00  0.00    +0.090 C 
ATOM     16  C   UNL     1      36.621 -19.605 -20.540  0.00  0.00    +0.105 C 
ATOM     17  C   UNL     1      34.144 -19.760 -21.023  0.00  0.00    +0.016 C 
ATOM     18  C   UNL     1      34.167 -20.726 -20.011  0.00  0.00    +0.049 C 
ATOM     19  C   UNL     1      35.370 -21.065 -19.346  0.00  0.00    +0.189 C 
ATOM     20  H   UNL     1      37.642 -17.479 -22.487  0.00  0.00    +0.175 HD
ATOM     21  H   UNL     1      36.035 -22.356 -17.832  0.00  0.00    +0.145 HD
ATOM     22  H   UNL     1      34.364 -22.467 -18.152  0.00  0.00    +0.145 HD
ENDBRANCH   9  14
ENDBRANCH   8   9
ENDBRANCH   2   8
BRANCH   4  23
ATOM     23  O   UNL     1      32.417 -12.468 -22.936  0.00  0.00    -0.452 OA
BRANCH  23  25
ATOM     24 CL   UNL     1      35.804 -10.037 -25.854  0.00  0.00    -0.082 Cl
ATOM     25  C   UNL     1      33.060 -11.283 -23.250  0.00  0.00    +0.147 C 
ATOM     26  C   UNL     1      32.754 -10.139 -22.533  0.00  0.00    +0.048 C 
ATOM     27  C   UNL     1      33.993 -11.270 -24.271  0.00  0.00    +0.049 C 
ATOM     28  C   UNL     1      33.402  -8.946 -22.848  0.00  0.00    +0.072 C 
ATOM     29  C   UNL     1      34.641 -10.076 -24.586  0.00  0.00    +0.061 C 
ATOM     30  C   UNL     1      34.345  -8.914 -23.875  0.00  0.00    +0.022 C 
BRANCH  28  32
ATOM     31  N   UNL     1      32.849  -6.785 -21.524  0.00  0.00    -0.191 NA
ATOM     32  C   UNL     1      33.098  -7.755 -22.119  0.00  0.00    +0.101 C 
ENDBRANCH  28  32
ENDBRANCH  23  25
ENDBRANCH   4  23
TORSDOF 6
ENDMDL
MODEL 2
REMARK VINA RESULT:     -11.0      1.663      2.045
REMARK  Name = 16045418
REMARK  6 active torsions:
REMARK  status: ('A' for Active; 'I' for Inactive)
REMARK    1  A    between atoms: C_2  and  O_8
REMARK    2  A    between atoms: C_4  and  O_23
REMARK    3  A    between atoms: O_8  and  C_9
REMARK    4  A    between atoms: C_9  and  C_14
REMARK    5  A    between atoms: O_23  and  C_25
REMARK    6  A    between atoms: C_28  and  C_32
REMARK                            x       y       z     vdW  Elec       q    Type
REMARK                         _______ _______ _______ _____ _____    ______ ____
ROOT
ATOM      1 CL   UNL     1      32.319 -12.697 -19.767  0.00  0.00    -0.079 Cl
ATOM      2  C   UNL     1      34.689 -15.471 -22.415  0.00  0.00    +0.142 C 
ATOM      3  C   UNL     1      33.837 -14.535 -22.995  0.00  0.00    +0.075 C 
ATOM      4  C   UNL     1      33.100 -13.672 -22.183  0.00  0.00    +0.159 C 
ATOM      5  C   UNL     1      34.810 -15.552 -21.031  0.00  0.00    +0.038 C 
ATOM      6  C   UNL     1      33.218 -13.750 -20.795  0.00  0.00    +0.092 C 
ATOM      7  C   UNL     1      34.073 -14.690 -20.219  0.00  0.00    +0.018 C 
ENDROOT
BRANCH   2   8
ATOM      8  O   UNL     1      35.411 -16.317 -23.211  0.00  0.00    -0.469 OA
BRANCH   8   9
ATOM      9  C   UNL     1      35.025 -17.693 -23.193  0.00  0.00    +0.249 C 
BRANCH   9  14
ATOM     10  N   UNL     1      37.128 -18.231 -21.986  0.00  0.00    -0.227 N 
ATOM     11  N   UNL     1      37.675 -18.970 -20.998  0.00  0.00    -0.115 NA
ATOM     12  N   UNL     1      36.640 -20.571 -19.498  0.00  0.00    -0.335 NA
ATOM     13  N   UNL     1      35.264 -22.050 -18.232  0.00  0.00    -0.332 N 
ATOM     14  C   UNL     1      35.784 -18.418 -22.161  0.00  0.00    +0.097 C 
ATOM     15  C   UNL     1      35.436 -19.346 -21.218  0.00  0.00    +0.090 C 
ATOM     16  C   UNL     1      36.638 -19.664 -20.516  0.00  0.00    +0.105 C 
ATOM     17  C   UNL     1      34.164 -19.858 -21.009  0.00  0.00    +0.016 C 
ATOM     18  C   UNL     1      34.188 -20.784 -19.961  0.00  0.00    +0.049 C 
ATOM     19  C   UNL     1      35.390 -21.087 -19.275  0.00  0.00    +0.189 C 
ATOM     20  H   UNL     1      37.655 -17.606 -22.537  0.00  0.00    +0.175 HD
ATOM     21  H   UNL     1      36.055 -22.314 -17.709  0.00  0.00    +0.145 HD
ATOM     22  H   UNL     1      34.386 -22.451 -18.035  0.00  0.00    +0.145 HD
ENDBRANCH   9  14
ENDBRANCH   8   9
ENDBRANCH   2   8
BRANCH   4  23
ATOM     23  O   UNL     1      32.274 -12.764 -22.773  0.00  0.00    -0.452 OA
BRANCH  23  25
ATOM     24 CL   UNL     1      32.295  -7.769 -21.796  0.00  0.00    -0.082 Cl
ATOM     25  C   UNL     1      32.795 -11.514 -23.060  0.00  0.00    +0.147 C 
ATOM     26  C   UNL     1      33.766 -11.397 -24.039  0.00  0.00    +0.048 C 
ATOM     27  C   UNL     1      32.332 -10.412 -22.363  0.00  0.00    +0.049 C 
ATOM     28  C   UNL     1      34.291 -10.137 -24.329  0.00  0.00    +0.072 C 
ATOM     29  C   UNL     1      32.856  -9.153 -22.653  0.00  0.00    +0.061 C 
ATOM     30  C   UNL     1      33.836  -9.016 -23.636  0.00  0.00    +0.022 C 
BRANCH  28  32
ATOM     31  N   UNL     1      36.113  -9.883 -26.157  0.00  0.00    -0.191 NA
ATOM     32  C   UNL     1      35.295  -9.997 -25.336  0.00  0.00    +0.101 C 
ENDBRANCH  28  32
ENDBRANCH  23  25
ENDBRANCH   4  23
TORSDOF 6
ENDMDL
MODEL 3
REMARK VINA RESULT:     -10.8      7.791     12.250
REMARK  Name = 16045418
REMARK  6 active torsions:
REMARK  status: ('A' for Active; 'I' for Inactive)
REMARK    1  A    between atoms: C_2  and  O_8
REMARK    2  A    between atoms: C_4  and  O_23
REMARK    3  A    between atoms: O_8  and  C_9
REMARK    4  A    between atoms: C_9  and  C_14
REMARK    5  A    between atoms: O_23  and  C_25
REMARK    6  A    between atoms: C_28  and  C_32
REMARK                            x       y       z     vdW  Elec       q    Type
REMARK                         _______ _______ _______ _____ _____    ______ ____
ROOT
ATOM      1 CL   UNL     1      30.933 -23.988 -12.162  0.00  0.00    -0.079 Cl
ATOM      2  C   UNL     1      31.866 -23.081 -16.478  0.00  0.00    +0.142 C 
ATOM      3  C   UNL     1      32.901 -23.421 -15.612  0.00  0.00    +0.075 C 
ATOM      4  C   UNL     1      32.622 -23.704 -14.275  0.00  0.00    +0.159 C 
ATOM      5  C   UNL     1      30.554 -23.020 -16.018  0.00  0.00    +0.038 C 
ATOM      6  C   UNL     1      31.308 -23.645 -13.809  0.00  0.00    +0.092 C 
ATOM      7  C   UNL     1      30.275 -23.302 -14.681  0.00  0.00    +0.018 C 
ENDROOT
BRANCH   2   8
ATOM      8  O   UNL     1      32.140 -22.803 -17.789  0.00  0.00    -0.469 OA
BRANCH   8   9
ATOM      9  C   UNL     1      33.521 -22.761 -18.156  0.00  0.00    +0.249 C 
BRANCH   9  14
ATOM     10  N   UNL     1      32.732 -21.088 -19.813  0.00  0.00    -0.227 N 
ATOM     11  N   UNL     1      33.114 -20.105 -20.655  0.00  0.00    -0.115 NA
ATOM     12  N   UNL     1      35.326 -19.225 -21.119  0.00  0.00    -0.335 NA
ATOM     13  N   UNL     1      37.633 -18.649 -21.291  0.00  0.00    -0.332 N 
ATOM     14  C   UNL     1      33.756 -21.672 -19.118  0.00  0.00    +0.097 C 
ATOM     15  C   UNL     1      34.881 -21.020 -19.541  0.00  0.00    +0.090 C 
ATOM     16  C   UNL     1      34.441 -20.053 -20.496  0.00  0.00    +0.105 C 
ATOM     17  C   UNL     1      36.177 -21.268 -19.113  0.00  0.00    +0.016 C 
ATOM     18  C   UNL     1      37.068 -20.408 -19.763  0.00  0.00    +0.049 C 
ATOM     19  C   UNL     1      36.613 -19.455 -20.707  0.00  0.00    +0.189 C 
ATOM     20  H   UNL     1      31.792 -21.362 -19.707  0.00  0.00    +0.175 HD
ATOM     21  H   UNL     1      37.397 -17.963 -21.956  0.00  0.00    +0.145 HD
ATOM     22  H   UNL     1      38.573 -18.777 -21.028  0.00  0.00    +0.145 HD
ENDBRANCH   9  14
ENDBRANCH   8   9
ENDBRANCH   2   8
BRANCH   4  23
ATOM     23  O   UNL     1      33.651 -24.036 -13.446  0.00  0.00    -0.452 OA
BRANCH  23  25
ATOM     24 CL   UNL     1      37.232 -21.351 -15.868  0.00  0.00    -0.082 Cl
ATOM     25  C   UNL     1      34.934 -23.990 -13.966  0.00  0.00    +0.147 C 
ATOM     26  C   UNL     1      35.745 -25.107 -13.861  0.00  0.00    +0.048 C 
ATOM     27  C   UNL     1      35.373 -22.830 -14.579  0.00  0.00    +0.049 C 
ATOM     28  C   UNL     1      37.036 -25.061 -14.385  0.00  0.00    +0.072 C 
ATOM     29  C   UNL     1      36.664 -22.784 -15.103  0.00  0.00    +0.061 C 
ATOM     30  C   UNL     1      37.496 -23.900 -15.006  0.00  0.00    +0.022 C 
BRANCH  28  32
ATOM     31  N   UNL     1      38.584 -27.134 -14.202  0.00  0.00    -0.191 NA
ATOM     32  C   UNL     1      37.888 -26.204 -14.285  0.00  0.00    +0.101 C 
ENDBRANCH  28  32
ENDBRANCH  23  25
ENDBRANCH   4  23
TORSDOF 6
ENDMDL
MODEL 4
REMARK VINA RESULT:     -10.7      7.053     12.514
REMARK  Name = 16045418
REMARK  6 active torsions:
REMARK  status: ('A' for Active; 'I' for Inactive)
REMARK    1  A    between atoms: C_2  and  O_8
REMARK    2  A    between atoms: C_4  and  O_23
REMARK    3  A    between atoms: O_8  and  C_9
REMARK    4  A    between atoms: C_9  and  C_14
REMARK    5  A    between atoms: O_23  and  C_25
REMARK    6  A    between atoms: C_28  and  C_32
REMARK                            x       y       z     vdW  Elec       q    Type
REMARK                         _______ _______ _______ _____ _____    ______ ____
ROOT
ATOM      1 CL   UNL     1      30.849 -24.049 -14.737  0.00  0.00    -0.079 Cl
ATOM      2  C   UNL     1      34.322 -22.662 -17.256  0.00  0.00    +0.142 C 
ATOM      3  C   UNL     1      34.568 -23.388 -16.094  0.00  0.00    +0.075 C 
ATOM      4  C   UNL     1      33.499 -23.822 -15.309  0.00  0.00    +0.159 C 
ATOM      5  C   UNL     1      33.017 -22.366 -17.640  0.00  0.00    +0.038 C 
ATOM      6  C   UNL     1      32.190 -23.527 -15.689  0.00  0.00    +0.092 C 
ATOM      7  C   UNL     1      31.949 -22.799 -16.854  0.00  0.00    +0.018 C 
ENDROOT
BRANCH   2   8
ATOM      8  O   UNL     1      35.370 -22.237 -18.025  0.00  0.00    -0.469 OA
BRANCH   8   9
ATOM      9  C   UNL     1      35.094 -22.008 -19.408  0.00  0.00    +0.249 C 
BRANCH   9  14
ATOM     10  N   UNL     1      36.857 -20.269 -19.230  0.00  0.00    -0.227 N 
ATOM     11  N   UNL     1      37.336 -19.124 -19.762  0.00  0.00    -0.115 NA
ATOM     12  N   UNL     1      36.531 -17.829 -21.648  0.00  0.00    -0.335 NA
ATOM     13  N   UNL     1      35.438 -16.856 -23.530  0.00  0.00    -0.332 N 
ATOM     14  C   UNL     1      35.748 -20.768 -19.856  0.00  0.00    +0.097 C 
ATOM     15  C   UNL     1      35.491 -19.883 -20.867  0.00  0.00    +0.090 C 
ATOM     16  C   UNL     1      36.499 -18.876 -20.776  0.00  0.00    +0.105 C 
ATOM     17  C   UNL     1      34.452 -19.970 -21.782  0.00  0.00    +0.016 C 
ATOM     18  C   UNL     1      34.503 -18.889 -22.667  0.00  0.00    +0.049 C 
ATOM     19  C   UNL     1      35.511 -17.899 -22.562  0.00  0.00    +0.189 C 
ATOM     20  H   UNL     1      37.274 -20.709 -18.453  0.00  0.00    +0.175 HD
ATOM     21  H   UNL     1      36.103 -16.130 -23.523  0.00  0.00    +0.145 HD
ATOM     22  H   UNL     1      34.722 -16.861 -24.206  0.00  0.00    +0.145 HD
ENDBRANCH   9  14
ENDBRANCH   8   9
ENDBRANCH   2   8
BRANCH   4  23
ATOM     23  O   UNL     1      33.763 -24.532 -14.176  0.00  0.00    -0.452 OA
BRANCH  23  25
ATOM     24 CL   UNL     1      37.395 -22.703 -11.116  0.00  0.00    -0.082 Cl
ATOM     25  C   UNL     1      35.079 -24.592 -13.749  0.00  0.00    +0.147 C 
ATOM     26  C   UNL     1      35.930 -25.524 -14.317  0.00  0.00    +0.048 C 
ATOM     27  C   UNL     1      35.511 -23.719 -12.767  0.00  0.00    +0.049 C 
ATOM     28  C   UNL     1      37.256 -25.584 -13.887  0.00  0.00    +0.072 C 
ATOM     29  C   UNL     1      36.837 -23.779 -12.338  0.00  0.00    +0.061 C 
ATOM     30  C   UNL     1      37.709 -24.712 -12.898  0.00  0.00    +0.022 C 
BRANCH  28  32
ATOM     31  N   UNL     1      38.876 -27.322 -14.929  0.00  0.00    -0.191 NA
ATOM     32  C   UNL     1      38.149 -26.541 -14.461  0.00  0.00    +0.101 C 
ENDBRANCH  28  32
ENDBRANCH  23  25
ENDBRANCH   4  23
TORSDOF 6
ENDMDL
MODEL 5
REMARK VINA RESULT:     -10.7      8.093     11.929
REMARK  Name = 16045418
REMARK  6 active torsions:
REMARK  status: ('A' for Active; 'I' for Inactive)
REMARK    1  A    between atoms: C_2  and  O_8
REMARK    2  A    between atoms: C_4  and  O_23
REMARK    3  A    between atoms: O_8  and  C_9
REMARK    4  A    between atoms: C_9  and  C_14
REMARK    5  A    between atoms: O_23  and  C_25
REMARK    6  A    between atoms: C_28  and  C_32
REMARK                            x       y       z     vdW  Elec       q    Type
REMARK                         _______ _______ _______ _____ _____    ______ ____
ROOT
ATOM      1 CL   UNL     1      30.872 -24.132 -12.287  0.00  0.00    -0.079 Cl
ATOM      2  C   UNL     1      31.924 -23.088 -16.545  0.00  0.00    +0.142 C 
ATOM      3  C   UNL     1      32.942 -23.381 -15.642  0.00  0.00    +0.075 C 
ATOM      4  C   UNL     1      32.625 -23.705 -14.322  0.00  0.00    +0.159 C 
ATOM      5  C   UNL     1      30.592 -23.116 -16.140  0.00  0.00    +0.038 C 
ATOM      6  C   UNL     1      31.292 -23.735 -13.912  0.00  0.00    +0.092 C 
ATOM      7  C   UNL     1      30.276 -23.440 -14.821  0.00  0.00    +0.018 C 
ENDROOT
BRANCH   2   8
ATOM      8  O   UNL     1      32.235 -22.769 -17.838  0.00  0.00    -0.469 OA
BRANCH   8   9
ATOM      9  C   UNL     1      33.586 -22.382 -18.092  0.00  0.00    +0.249 C 
BRANCH   9  14
ATOM     10  N   UNL     1      32.513 -21.050 -19.892  0.00  0.00    -0.227 N 
ATOM     11  N   UNL     1      32.730 -20.169 -20.891  0.00  0.00    -0.115 NA
ATOM     12  N   UNL     1      34.800 -19.163 -21.657  0.00  0.00    -0.335 NA
ATOM     13  N   UNL     1      37.016 -18.405 -22.101  0.00  0.00    -0.332 N 
ATOM     14  C   UNL     1      33.639 -21.429 -19.212  0.00  0.00    +0.097 C 
ATOM     15  C   UNL     1      34.657 -20.743 -19.814  0.00  0.00    +0.090 C 
ATOM     16  C   UNL     1      34.052 -19.971 -20.853  0.00  0.00    +0.105 C 
ATOM     17  C   UNL     1      35.998 -20.803 -19.467  0.00  0.00    +0.016 C 
ATOM     18  C   UNL     1      36.747 -19.968 -20.303  0.00  0.00    +0.049 C 
ATOM     19  C   UNL     1      36.130 -19.209 -21.328  0.00  0.00    +0.189 C 
ATOM     20  H   UNL     1      31.617 -21.392 -19.670  0.00  0.00    +0.175 HD
ATOM     21  H   UNL     1      36.664 -17.849 -22.833  0.00  0.00    +0.145 HD
ATOM     22  H   UNL     1      37.981 -18.406 -21.903  0.00  0.00    +0.145 HD
ENDBRANCH   9  14
ENDBRANCH   8   9
ENDBRANCH   2   8
BRANCH   4  23
ATOM     23  O   UNL     1      33.638 -23.990 -13.456  0.00  0.00    -0.452 OA
BRANCH  23  25
ATOM     24 CL   UNL     1      37.987 -26.556 -14.083  0.00  0.00    -0.082 Cl
ATOM     25  C   UNL     1      34.927 -24.009 -13.961  0.00  0.00    +0.147 C 
ATOM     26  C   UNL     1      35.407 -22.897 -14.629  0.00  0.00    +0.048 C 
ATOM     27  C   UNL     1      35.705 -25.140 -13.784  0.00  0.00    +0.049 C 
ATOM     28  C   UNL     1      36.706 -22.916 -15.137  0.00  0.00    +0.072 C 
ATOM     29  C   UNL     1      37.003 -25.160 -14.291  0.00  0.00    +0.061 C 
ATOM     30  C   UNL     1      37.504 -24.047 -14.968  0.00  0.00    +0.022 C 
BRANCH  28  32
ATOM     31  N   UNL     1      37.636 -20.849 -16.398  0.00  0.00    -0.191 NA
ATOM     32  C   UNL     1      37.218 -21.777 -15.831  0.00  0.00    +0.101 C 
ENDBRANCH  28  32
ENDBRANCH  23  25
ENDBRANCH   4  23
TORSDOF 6
ENDMDL
MODEL 6
REMARK VINA RESULT:     -10.6      5.543     10.888
REMARK  Name = 16045418
REMARK  6 active torsions:
REMARK  status: ('A' for Active; 'I' for Inactive)
REMARK    1  A    between atoms: C_2  and  O_8
REMARK    2  A    between atoms: C_4  and  O_23
REMARK    3  A    between atoms: O_8  and  C_9
REMARK    4  A    between atoms: C_9  and  C_14
REMARK    5  A    between atoms: O_23  and  C_25
REMARK    6  A    between atoms: C_28  and  C_32
REMARK                            x       y       z     vdW  Elec       q    Type
REMARK                         _______ _______ _______ _____ _____    ______ ____
ROOT
ATOM      1 CL   UNL     1      36.880 -22.818 -16.129  0.00  0.00    -0.079 Cl
ATOM      2  C   UNL     1      35.297 -20.756 -19.813  0.00  0.00    +0.142 C 
ATOM      3  C   UNL     1      34.638 -21.879 -19.323  0.00  0.00    +0.075 C 
ATOM      4  C   UNL     1      35.120 -22.523 -18.183  0.00  0.00    +0.159 C 
ATOM      5  C   UNL     1      36.435 -20.271 -19.174  0.00  0.00    +0.038 C 
ATOM      6  C   UNL     1      36.260 -22.041 -17.539  0.00  0.00    +0.092 C 
ATOM      7  C   UNL     1      36.917 -20.916 -18.035  0.00  0.00    +0.018 C 
ENDROOT
BRANCH   2   8
ATOM      8  O   UNL     1      34.824 -20.125 -20.931  0.00  0.00    -0.469 OA
BRANCH   8   9
ATOM      9  C   UNL     1      35.652 -19.099 -21.482  0.00  0.00    +0.249 C 
BRANCH   9  14
ATOM     10  N   UNL     1      34.591 -19.322 -23.716  0.00  0.00    -0.227 N 
ATOM     11  N   UNL     1      34.036 -18.649 -24.746  0.00  0.00    -0.115 NA
ATOM     12  N   UNL     1      33.688 -16.267 -25.042  0.00  0.00    -0.335 NA
ATOM     13  N   UNL     1      33.530 -13.890 -24.949  0.00  0.00    -0.332 N 
ATOM     14  C   UNL     1      35.022 -18.532 -22.685  0.00  0.00    +0.097 C 
ATOM     15  C   UNL     1      34.722 -17.256 -23.076  0.00  0.00    +0.090 C 
ATOM     16  C   UNL     1      34.111 -17.370 -24.362  0.00  0.00    +0.105 C 
ATOM     17  C   UNL     1      34.974 -16.101 -22.351  0.00  0.00    +0.016 C 
ATOM     18  C   UNL     1      34.532 -14.982 -23.065  0.00  0.00    +0.049 C 
ATOM     19  C   UNL     1      33.928 -15.115 -24.339  0.00  0.00    +0.189 C 
ATOM     20  H   UNL     1      34.680 -20.303 -23.708  0.00  0.00    +0.175 HD
ATOM     21  H   UNL     1      33.102 -13.899 -25.836  0.00  0.00    +0.145 HD
ATOM     22  H   UNL     1      33.682 -13.036 -24.484  0.00  0.00    +0.145 HD
ENDBRANCH   9  14
ENDBRANCH   8   9
ENDBRANCH   2   8
BRANCH   4  23
ATOM     23  O   UNL     1      34.458 -23.621 -17.720  0.00  0.00    -0.452 OA
BRANCH  23  25
ATOM     24 CL   UNL     1      33.611 -23.584 -12.703  0.00  0.00    -0.082 Cl
ATOM     25  C   UNL     1      33.560 -23.438 -16.683  0.00  0.00    +0.147 C 
ATOM     26  C   UNL     1      32.247 -23.111 -16.976  0.00  0.00    +0.048 C 
ATOM     27  C   UNL     1      33.995 -23.587 -15.378  0.00  0.00    +0.049 C 
ATOM     28  C   UNL     1      31.342 -22.928 -15.931  0.00  0.00    +0.072 C 
ATOM     29  C   UNL     1      33.090 -23.404 -14.333  0.00  0.00    +0.061 C 
ATOM     30  C   UNL     1      31.763 -23.074 -14.610  0.00  0.00    +0.022 C 
BRANCH  28  32
ATOM     31  N   UNL     1      28.876 -22.312 -16.447  0.00  0.00    -0.191 NA
ATOM     32  C   UNL     1      29.983 -22.590 -16.215  0.00  0.00    +0.101 C 
ENDBRANCH  28  32
ENDBRANCH  23  25
ENDBRANCH   4  23
TORSDOF 6
ENDMDL
MODEL 7
REMARK VINA RESULT:     -10.5      8.136     11.549
REMARK  Name = 16045418
REMARK  6 active torsions:
REMARK  status: ('A' for Active; 'I' for Inactive)
REMARK    1  A    between atoms: C_2  and  O_8
REMARK    2  A    between atoms: C_4  and  O_23
REMARK    3  A    between atoms: O_8  and  C_9
REMARK    4  A    between atoms: C_9  and  C_14
REMARK    5  A    between atoms: O_23  and  C_25
REMARK    6  A    between atoms: C_28  and  C_32
REMARK                            x       y       z     vdW  Elec       q    Type
REMARK                         _______ _______ _______ _____ _____    ______ ____
ROOT
ATOM      1 CL   UNL     1      29.189 -22.647 -16.489  0.00  0.00    -0.079 Cl
ATOM      2  C   UNL     1      32.787 -23.795 -14.028  0.00  0.00    +0.142 C 
ATOM      3  C   UNL     1      32.938 -23.564 -15.393  0.00  0.00    +0.075 C 
ATOM      4  C   UNL     1      31.830 -23.208 -16.162  0.00  0.00    +0.159 C 
ATOM      5  C   UNL     1      31.538 -23.674 -13.426  0.00  0.00    +0.038 C 
ATOM      6  C   UNL     1      30.576 -23.085 -15.563  0.00  0.00    +0.092 C 
ATOM      7  C   UNL     1      30.431 -23.318 -14.196  0.00  0.00    +0.018 C 
ENDROOT
BRANCH   2   8
ATOM      8  O   UNL     1      33.874 -24.145 -13.275  0.00  0.00    -0.469 OA
BRANCH   8   9
ATOM      9  C   UNL     1      35.148 -23.712 -13.755  0.00  0.00    +0.249 C 
BRANCH   9  14
ATOM     10  N   UNL     1      35.432 -25.896 -14.902  0.00  0.00    -0.227 N 
ATOM     11  N   UNL     1      36.303 -26.886 -15.192  0.00  0.00    -0.115 NA
ATOM     12  N   UNL     1      38.644 -27.120 -14.601  0.00  0.00    -0.335 NA
ATOM     13  N   UNL     1      40.893 -26.975 -13.823  0.00  0.00    -0.332 N 
ATOM     14  C   UNL     1      35.957 -24.873 -14.161  0.00  0.00    +0.097 C 
ATOM     15  C   UNL     1      37.263 -25.225 -13.957  0.00  0.00    +0.090 C 
ATOM     16  C   UNL     1      37.440 -26.481 -14.613  0.00  0.00    +0.105 C 
ATOM     17  C   UNL     1      38.204 -24.492 -13.251  0.00  0.00    +0.016 C 
ATOM     18  C   UNL     1      39.432 -25.162 -13.252  0.00  0.00    +0.049 C 
ATOM     19  C   UNL     1      39.589 -26.408 -13.908  0.00  0.00    +0.189 C 
ATOM     20  H   UNL     1      34.493 -25.911 -15.200  0.00  0.00    +0.175 HD
ATOM     21  H   UNL     1      41.082 -27.840 -14.254  0.00  0.00    +0.145 HD
ATOM     22  H   UNL     1      41.605 -26.502 -13.335  0.00  0.00    +0.145 HD
ENDBRANCH   9  14
ENDBRANCH   8   9
ENDBRANCH   2   8
BRANCH   4  23
ATOM     23  O   UNL     1      32.002 -22.985 -17.495  0.00  0.00    -0.452 OA
BRANCH  23  25
ATOM     24 CL   UNL     1      37.000 -22.485 -16.684  0.00  0.00    -0.082 Cl
ATOM     25  C   UNL     1      33.210 -22.447 -17.906  0.00  0.00    +0.147 C 
ATOM     26  C   UNL     1      33.245 -21.656 -19.041  0.00  0.00    +0.048 C 
ATOM     27  C   UNL     1      34.351 -22.711 -17.170  0.00  0.00    +0.049 C 
ATOM     28  C   UNL     1      34.461 -21.113 -19.454  0.00  0.00    +0.072 C 
ATOM     29  C   UNL     1      35.568 -22.168 -17.583  0.00  0.00    +0.061 C 
ATOM     30  C   UNL     1      35.623 -21.369 -18.725  0.00  0.00    +0.022 C 
BRANCH  28  32
ATOM     31  N   UNL     1      34.565 -19.629 -21.578  0.00  0.00    -0.191 NA
ATOM     32  C   UNL     1      34.517 -20.296 -20.624  0.00  0.00    +0.101 C 
ENDBRANCH  28  32
ENDBRANCH  23  25
ENDBRANCH   4  23
TORSDOF 6
ENDMDL
MODEL 8
REMARK VINA RESULT:     -10.4      3.643      5.807
REMARK  Name = 16045418
REMARK  6 active torsions:
REMARK  status: ('A' for Active; 'I' for Inactive)
REMARK    1  A    between atoms: C_2  and  O_8
REMARK    2  A    between atoms: C_4  and  O_23
REMARK    3  A    between atoms: O_8  and  C_9
REMARK    4  A    between atoms: C_9  and  C_14
REMARK    5  A    between atoms: O_23  and  C_25
REMARK    6  A    between atoms: C_28  and  C_32
REMARK                            x       y       z     vdW  Elec       q    Type
REMARK                         _______ _______ _______ _____ _____    ______ ____
ROOT
ATOM      1 CL   UNL     1      32.306  -6.172 -20.381  0.00  0.00    -0.079 Cl
ATOM      2  C   UNL     1      32.907  -9.963 -22.747  0.00  0.00    +0.142 C 
ATOM      3  C   UNL     1      33.736  -8.870 -22.986  0.00  0.00    +0.075 C 
ATOM      4  C   UNL     1      33.557  -7.693 -22.258  0.00  0.00    +0.159 C 
ATOM      5  C   UNL     1      31.901  -9.889 -21.788  0.00  0.00    +0.038 C 
ATOM      6  C   UNL     1      32.551  -7.614 -21.295  0.00  0.00    +0.092 C 
ATOM      7  C   UNL     1      31.723  -8.712 -21.061  0.00  0.00    +0.018 C 
ENDROOT
BRANCH   2   8
ATOM      8  O   UNL     1      33.082 -11.116 -23.461  0.00  0.00    -0.469 OA
BRANCH   8   9
ATOM      9  C   UNL     1      33.444 -12.280 -22.714  0.00  0.00    +0.249 C 
BRANCH   9  14
ATOM     10  N   UNL     1      33.232 -13.374 -24.933  0.00  0.00    -0.227 N 
ATOM     11  N   UNL     1      33.437 -14.515 -25.625  0.00  0.00    -0.115 NA
ATOM     12  N   UNL     1      34.349 -16.638 -24.889  0.00  0.00    -0.335 NA
ATOM     13  N   UNL     1      35.281 -18.535 -23.786  0.00  0.00    -0.332 N 
ATOM     14  C   UNL     1      33.598 -13.433 -23.616  0.00  0.00    +0.097 C 
ATOM     15  C   UNL     1      34.074 -14.703 -23.443  0.00  0.00    +0.090 C 
ATOM     16  C   UNL     1      33.958 -15.344 -24.714  0.00  0.00    +0.105 C 
ATOM     17  C   UNL     1      34.565 -15.236 -22.261  0.00  0.00    +0.016 C 
ATOM     18  C   UNL     1      34.962 -16.562 -22.462  0.00  0.00    +0.049 C 
ATOM     19  C   UNL     1      34.839 -17.182 -23.730  0.00  0.00    +0.189 C 
ATOM     20  H   UNL     1      32.850 -12.564 -25.344  0.00  0.00    +0.175 HD
ATOM     21  H   UNL     1      35.228 -19.035 -24.632  0.00  0.00    +0.145 HD
ATOM     22  H   UNL     1      35.639 -18.970 -22.978  0.00  0.00    +0.145 HD
ENDBRANCH   9  14
ENDBRANCH   8   9
ENDBRANCH   2   8
BRANCH   4  23
ATOM     23  O   UNL     1      34.381  -6.637 -22.507  0.00  0.00    -0.452 OA
BRANCH  23  25
ATOM     24 CL   UNL     1      35.688  -4.898 -27.108  0.00  0.00    -0.082 Cl
ATOM     25  C   UNL     1      34.074  -5.825 -23.586  0.00  0.00    +0.147 C 
ATOM     26  C   UNL     1      32.912  -5.074 -23.557  0.00  0.00    +0.048 C 
ATOM     27  C   UNL     1      34.937  -5.783 -24.667  0.00  0.00    +0.049 C 
ATOM     28  C   UNL     1      32.603  -4.256 -24.643  0.00  0.00    +0.072 C 
ATOM     29  C   UNL     1      34.629  -4.964 -25.753  0.00  0.00    +0.061 C 
ATOM     30  C   UNL     1      33.461  -4.201 -25.741  0.00  0.00    +0.022 C 
BRANCH  28  32
ATOM     31  N   UNL     1      30.431  -2.839 -24.620  0.00  0.00    -0.191 NA
ATOM     32  C   UNL     1      31.407  -3.475 -24.631  0.00  0.00    +0.101 C 
ENDBRANCH  28  32
ENDBRANCH  23  25
ENDBRANCH   4  23
TORSDOF 6
ENDMDL
MODEL 9
REMARK VINA RESULT:     -10.4      6.682     12.426
REMARK  Name = 16045418
REMARK  6 active torsions:
REMARK  status: ('A' for Active; 'I' for Inactive)
REMARK    1  A    between atoms: C_2  and  O_8
REMARK    2  A    between atoms: C_4  and  O_23
REMARK    3  A    between atoms: O_8  and  C_9
REMARK    4  A    between atoms: C_9  and  C_14
REMARK    5  A    between atoms: O_23  and  C_25
REMARK    6  A    between atoms: C_28  and  C_32
REMARK                            x       y       z     vdW  Elec       q    Type
REMARK                         _______ _______ _______ _____ _____    ______ ____
ROOT
ATOM      1 CL   UNL     1      33.200 -23.624 -14.260  0.00  0.00    -0.079 Cl
ATOM      2  C   UNL     1      35.093 -22.378 -18.158  0.00  0.00    +0.142 C 
ATOM      3  C   UNL     1      35.793 -22.193 -16.969  0.00  0.00    +0.075 C 
ATOM      4  C   UNL     1      35.215 -22.576 -15.758  0.00  0.00    +0.159 C 
ATOM      5  C   UNL     1      33.821 -22.941 -18.147  0.00  0.00    +0.038 C 
ATOM      6  C   UNL     1      33.940 -23.142 -15.742  0.00  0.00    +0.092 C 
ATOM      7  C   UNL     1      33.243 -23.324 -16.936  0.00  0.00    +0.018 C 
ENDROOT
BRANCH   2   8
ATOM      8  O   UNL     1      35.660 -22.001 -19.344  0.00  0.00    -0.469 OA
BRANCH   8   9
ATOM      9  C   UNL     1      34.787 -21.408 -20.308  0.00  0.00    +0.249 C 
BRANCH   9  14
ATOM     10  N   UNL     1      36.149 -19.374 -19.890  0.00  0.00    -0.227 N 
ATOM     11  N   UNL     1      36.505 -18.165 -20.374  0.00  0.00    -0.115 NA
ATOM     12  N   UNL     1      35.839 -17.054 -22.425  0.00  0.00    -0.335 NA
ATOM     13  N   UNL     1      34.952 -16.312 -24.510  0.00  0.00    -0.332 N 
ATOM     14  C   UNL     1      35.280 -20.073 -20.683  0.00  0.00    +0.097 C 
ATOM     15  C   UNL     1      35.058 -19.258 -21.758  0.00  0.00    +0.090 C 
ATOM     16  C   UNL     1      35.836 -18.082 -21.530  0.00  0.00    +0.105 C 
ATOM     17  C   UNL     1      34.236 -19.540 -22.839  0.00  0.00    +0.016 C 
ATOM     18  C   UNL     1      34.254 -18.475 -23.745  0.00  0.00    +0.049 C 
ATOM     19  C   UNL     1      35.032 -17.316 -23.502  0.00  0.00    +0.189 C 
ATOM     20  H   UNL     1      36.488 -19.724 -19.034  0.00  0.00    +0.175 HD
ATOM     21  H   UNL     1      35.464 -15.477 -24.414  0.00  0.00    +0.145 HD
ATOM     22  H   UNL     1      34.384 -16.454 -25.302  0.00  0.00    +0.145 HD
ENDBRANCH   9  14
ENDBRANCH   8   9
ENDBRANCH   2   8
BRANCH   4  23
ATOM     23  O   UNL     1      35.919 -22.387 -14.606  0.00  0.00    -0.452 OA
BRANCH  23  25
ATOM     24 CL   UNL     1      38.360 -26.850 -14.485  0.00  0.00    -0.082 Cl
ATOM     25  C   UNL     1      36.276 -23.511 -13.880  0.00  0.00    +0.147 C 
ATOM     26  C   UNL     1      35.853 -23.628 -12.568  0.00  0.00    +0.048 C 
ATOM     27  C   UNL     1      37.045 -24.489 -14.485  0.00  0.00    +0.049 C 
ATOM     28  C   UNL     1      36.211 -24.760 -11.837  0.00  0.00    +0.072 C 
ATOM     29  C   UNL     1      37.403 -25.622 -13.754  0.00  0.00    +0.061 C 
ATOM     30  C   UNL     1      36.987 -25.757 -12.429  0.00  0.00    +0.022 C 
BRANCH  28  32
ATOM     31  N   UNL     1      35.436 -25.010  -9.374  0.00  0.00    -0.191 NA
ATOM     32  C   UNL     1      35.785 -24.898 -10.480  0.00  0.00    +0.101 C 
ENDBRANCH  28  32
ENDBRANCH  23  25
ENDBRANCH   4  23
TORSDOF 6
ENDMDL
