MODEL 1
REMARK VINA RESULT:     -12.0      0.000      0.000
REMARK  Name = 16040279
REMARK  5 active torsions:
REMARK  status: ('A' for Active; 'I' for Inactive)
REMARK    1  A    between atoms: N_2  and  C_21
REMARK    2  A    between atoms: C_3  and  C_11
REMARK    3  A    between atoms: C_4  and  N_17
REMARK    4  A    between atoms: C_21  and  C_22
REMARK    5  A    between atoms: C_22  and  C_25
REMARK                            x       y       z     vdW  Elec       q    Type
REMARK                         _______ _______ _______ _____ _____    ______ ____
ROOT
ATOM      1  O   UNL     1      34.017 -16.866 -25.155  0.00  0.00    -0.275 OA
ATOM      2  N   UNL     1      34.833 -16.736 -22.986  0.00  0.00    -0.281 N 
ATOM      3  C   UNL     1      33.491 -14.213 -22.675  0.00  0.00    +0.015 C 
ATOM      4  C   UNL     1      34.675 -14.554 -21.752  0.00  0.00    -0.041 C 
ATOM      5  C   UNL     1      34.815 -16.074 -21.683  0.00  0.00    +0.072 C 
ATOM      6  C   UNL     1      33.791 -14.766 -24.071  0.00  0.00    +0.088 C 
ATOM      7  C   UNL     1      34.192 -16.228 -24.113  0.00  0.00    +0.226 C 
ENDROOT
BRANCH   3  11
ATOM      8  F   UNL     1      31.559 -12.948 -21.026  0.00  0.00    -0.204 F 
ATOM      9  F   UNL     1      34.179  -9.796 -24.647  0.00  0.00    -0.202 F 
ATOM     10  F   UNL     1      32.292  -8.708 -22.995  0.00  0.00    -0.202 F 
ATOM     11  C   UNL     1      33.166 -12.731 -22.759  0.00  0.00    +0.006 C 
ATOM     12  C   UNL     1      32.205 -12.182 -21.916  0.00  0.00    +0.138 C 
ATOM     13  C   UNL     1      33.834 -11.931 -23.682  0.00  0.00    +0.030 C 
ATOM     14  C   UNL     1      33.539 -10.570 -23.762  0.00  0.00    +0.167 C 
ATOM     15  C   UNL     1      31.908 -10.820 -21.996  0.00  0.00    +0.061 C 
ATOM     16  C   UNL     1      32.576 -10.015 -22.919  0.00  0.00    +0.170 C 
ENDBRANCH   3  11
BRANCH   4  17
ATOM     17  N   UNL     1      34.476 -14.047 -20.392  0.00  0.00    +0.383 N 
ATOM     18  H   UNL     1      33.829 -13.259 -20.415  0.00  0.00    -0.089 HD
ATOM     19  H   UNL     1      35.371 -13.742 -20.009  0.00  0.00    -0.089 HD
ATOM     20  H   UNL     1      34.090 -14.787 -19.806  0.00  0.00    -0.089 HD
ENDBRANCH   4  17
BRANCH   2  21
ATOM     21  C   UNL     1      35.329 -18.106 -22.996  0.00  0.00    +0.098 C 
BRANCH  21  22
ATOM     22  C   UNL     1      36.332 -18.374 -21.876  0.00  0.00    +0.048 C 
BRANCH  22  25
ATOM     23  O   UNL     1      32.860 -21.077 -19.636  0.00  0.00    -0.435 OA
ATOM     24  O   UNL     1      34.484 -22.296 -18.338  0.00  0.00    -0.435 OA
ATOM     25  C   UNL     1      35.869 -19.438 -20.913  0.00  0.00    -0.017 C 
ATOM     26  C   UNL     1      34.510 -19.697 -20.792  0.00  0.00    +0.036 C 
ATOM     27  C   UNL     1      36.821 -20.137 -20.166  0.00  0.00    -0.001 C 
ATOM     28  C   UNL     1      34.135 -20.679 -19.898  0.00  0.00    +0.176 C 
ATOM     29  C   UNL     1      35.062 -21.375 -19.156  0.00  0.00    +0.176 C 
ATOM     30  C   UNL     1      36.415 -21.127 -19.268  0.00  0.00    +0.040 C 
ATOM     31  C   UNL     1      33.089 -22.102 -18.648  0.00  0.00    +0.429 C 
ENDBRANCH  22  25
ENDBRANCH  21  22
ENDBRANCH   2  21
TORSDOF 5
ENDMDL
MODEL 2
REMARK VINA RESULT:     -11.9      1.505      2.476
REMARK  Name = 16040279
REMARK  5 active torsions:
REMARK  status: ('A' for Active; 'I' for Inactive)
REMARK    1  A    between atoms: N_2  and  C_21
REMARK    2  A    between atoms: C_3  and  C_11
REMARK    3  A    between atoms: C_4  and  N_17
REMARK    4  A    between atoms: C_21  and  C_22
REMARK    5  A    between atoms: C_22  and  C_25
REMARK                            x       y       z     vdW  Elec       q    Type
REMARK                         _______ _______ _______ _____ _____    ______ ____
ROOT
ATOM      1  O   UNL     1      35.294 -16.284 -20.089  0.00  0.00    -0.275 OA
ATOM      2  N   UNL     1      34.842 -16.650 -22.336  0.00  0.00    -0.281 N 
ATOM      3  C   UNL     1      34.094 -13.888 -22.594  0.00  0.00    +0.015 C 
ATOM      4  C   UNL     1      33.576 -14.906 -23.625  0.00  0.00    -0.041 C 
ATOM      5  C   UNL     1      34.532 -16.097 -23.653  0.00  0.00    +0.072 C 
ATOM      6  C   UNL     1      34.118 -14.560 -21.219  0.00  0.00    +0.088 C 
ATOM      7  C   UNL     1      34.835 -15.895 -21.166  0.00  0.00    +0.226 C 
ENDROOT
BRANCH   3  11
ATOM      8  F   UNL     1      34.684 -11.612 -24.185  0.00  0.00    -0.204 F 
ATOM      9  F   UNL     1      30.439 -11.214 -20.759  0.00  0.00    -0.202 F 
ATOM     10  F   UNL     1      31.119  -9.097 -22.350  0.00  0.00    -0.202 F 
ATOM     11  C   UNL     1      33.294 -12.596 -22.530  0.00  0.00    +0.006 C 
ATOM     12  C   UNL     1      33.645 -11.521 -23.342  0.00  0.00    +0.138 C 
ATOM     13  C   UNL     1      32.215 -12.497 -21.658  0.00  0.00    +0.030 C 
ATOM     14  C   UNL     1      31.478 -11.314 -21.596  0.00  0.00    +0.167 C 
ATOM     15  C   UNL     1      32.909 -10.337 -23.281  0.00  0.00    +0.061 C 
ATOM     16  C   UNL     1      31.826 -10.234 -22.408  0.00  0.00    +0.170 C 
ENDBRANCH   3  11
BRANCH   4  17
ATOM     17  N   UNL     1      33.508 -14.338 -24.974  0.00  0.00    +0.383 N 
ATOM     18  H   UNL     1      32.639 -13.814 -25.078  0.00  0.00    -0.089 HD
ATOM     19  H   UNL     1      33.536 -15.092 -25.662  0.00  0.00    -0.089 HD
ATOM     20  H   UNL     1      34.301 -13.714 -25.121  0.00  0.00    -0.089 HD
ENDBRANCH   4  17
BRANCH   2  21
ATOM     21  C   UNL     1      35.432 -17.982 -22.328  0.00  0.00    +0.098 C 
BRANCH  21  22
ATOM     22  C   UNL     1      34.381 -19.088 -22.245  0.00  0.00    +0.048 C 
BRANCH  22  25
ATOM     23  O   UNL     1      32.716 -22.057 -18.669  0.00  0.00    -0.435 OA
ATOM     24  O   UNL     1      34.930 -22.443 -17.800  0.00  0.00    -0.435 OA
ATOM     25  C   UNL     1      34.566 -19.987 -21.048  0.00  0.00    -0.017 C 
ATOM     26  C   UNL     1      33.452 -20.578 -20.467  0.00  0.00    +0.036 C 
ATOM     27  C   UNL     1      35.855 -20.201 -20.554  0.00  0.00    -0.001 C 
ATOM     28  C   UNL     1      33.671 -21.392 -19.374  0.00  0.00    +0.176 C 
ATOM     29  C   UNL     1      34.936 -21.612 -18.878  0.00  0.00    +0.176 C 
ATOM     30  C   UNL     1      36.050 -21.030 -19.447  0.00  0.00    +0.040 C 
ATOM     31  C   UNL     1      33.522 -22.721 -17.673  0.00  0.00    +0.429 C 
ENDBRANCH  22  25
ENDBRANCH  21  22
ENDBRANCH   2  21
TORSDOF 5
ENDMDL
MODEL 3
REMARK VINA RESULT:     -11.6      1.439      1.894
REMARK  Name = 16040279
REMARK  5 active torsions:
REMARK  status: ('A' for Active; 'I' for Inactive)
REMARK    1  A    between atoms: N_2  and  C_21
REMARK    2  A    between atoms: C_3  and  C_11
REMARK    3  A    between atoms: C_4  and  N_17
REMARK    4  A    between atoms: C_21  and  C_22
REMARK    5  A    between atoms: C_22  and  C_25
REMARK                            x       y       z     vdW  Elec       q    Type
REMARK                         _______ _______ _______ _____ _____    ______ ____
ROOT
ATOM      1  O   UNL     1      35.228 -16.367 -19.913  0.00  0.00    -0.275 OA
ATOM      2  N   UNL     1      34.914 -16.717 -22.186  0.00  0.00    -0.281 N 
ATOM      3  C   UNL     1      34.173 -13.955 -22.469  0.00  0.00    +0.015 C 
ATOM      4  C   UNL     1      33.722 -14.968 -23.537  0.00  0.00    -0.041 C 
ATOM      5  C   UNL     1      34.682 -16.156 -23.515  0.00  0.00    +0.072 C 
ATOM      6  C   UNL     1      34.116 -14.638 -21.099  0.00  0.00    +0.088 C 
ATOM      7  C   UNL     1      34.834 -15.971 -21.013  0.00  0.00    +0.226 C 
ENDROOT
BRANCH   3  11
ATOM      8  F   UNL     1      31.913 -13.567 -20.797  0.00  0.00    -0.204 F 
ATOM      9  F   UNL     1      33.343  -9.405 -24.045  0.00  0.00    -0.202 F 
ATOM     10  F   UNL     1      31.185  -9.168 -22.383  0.00  0.00    -0.202 F 
ATOM     11  C   UNL     1      33.366 -12.667 -22.444  0.00  0.00    +0.006 C 
ATOM     12  C   UNL     1      32.269 -12.551 -21.596  0.00  0.00    +0.138 C 
ATOM     13  C   UNL     1      33.732 -11.610 -23.272  0.00  0.00    +0.030 C 
ATOM     14  C   UNL     1      32.995 -10.425 -23.251  0.00  0.00    +0.167 C 
ATOM     15  C   UNL     1      31.530 -11.367 -21.575  0.00  0.00    +0.061 C 
ATOM     16  C   UNL     1      31.894 -10.305 -22.403  0.00  0.00    +0.170 C 
ENDBRANCH   3  11
BRANCH   4  17
ATOM     17  N   UNL     1      33.734 -14.390 -24.883  0.00  0.00    +0.383 N 
ATOM     18  H   UNL     1      33.572 -15.126 -25.570  0.00  0.00    -0.089 HD
ATOM     19  H   UNL     1      34.641 -13.954 -25.058  0.00  0.00    -0.089 HD
ATOM     20  H   UNL     1      32.998 -13.686 -24.958  0.00  0.00    -0.089 HD
ENDBRANCH   4  17
BRANCH   2  21
ATOM     21  C   UNL     1      35.507 -18.048 -22.153  0.00  0.00    +0.098 C 
BRANCH  21  22
ATOM     22  C   UNL     1      34.457 -19.157 -22.131  0.00  0.00    +0.048 C 
BRANCH  22  25
ATOM     23  O   UNL     1      32.622 -22.061 -18.585  0.00  0.00    -0.435 OA
ATOM     24  O   UNL     1      34.808 -22.554 -17.697  0.00  0.00    -0.435 OA
ATOM     25  C   UNL     1      34.588 -20.069 -20.937  0.00  0.00    -0.017 C 
ATOM     26  C   UNL     1      33.443 -20.610 -20.370  0.00  0.00    +0.036 C 
ATOM     27  C   UNL     1      35.862 -20.345 -20.432  0.00  0.00    -0.001 C 
ATOM     28  C   UNL     1      33.614 -21.439 -19.279  0.00  0.00    +0.176 C 
ATOM     29  C   UNL     1      34.862 -21.719 -18.771  0.00  0.00    +0.176 C 
ATOM     30  C   UNL     1      36.007 -21.187 -19.327  0.00  0.00    +0.040 C 
ATOM     31  C   UNL     1      33.386 -22.766 -17.585  0.00  0.00    +0.429 C 
ENDBRANCH  22  25
ENDBRANCH  21  22
ENDBRANCH   2  21
TORSDOF 5
ENDMDL
MODEL 4
REMARK VINA RESULT:     -11.3      4.791      7.677
REMARK  Name = 16040279
REMARK  5 active torsions:
REMARK  status: ('A' for Active; 'I' for Inactive)
REMARK    1  A    between atoms: N_2  and  C_21
REMARK    2  A    between atoms: C_3  and  C_11
REMARK    3  A    between atoms: C_4  and  N_17
REMARK    4  A    between atoms: C_21  and  C_22
REMARK    5  A    between atoms: C_22  and  C_25
REMARK                            x       y       z     vdW  Elec       q    Type
REMARK                         _______ _______ _______ _____ _____    ______ ____
ROOT
ATOM      1  O   UNL     1      32.314 -22.140 -18.343  0.00  0.00    -0.275 OA
ATOM      2  N   UNL     1      34.623 -22.209 -18.124  0.00  0.00    -0.281 N 
ATOM      3  C   UNL     1      34.821 -19.996 -19.947  0.00  0.00    +0.015 C 
ATOM      4  C   UNL     1      36.041 -20.912 -19.742  0.00  0.00    -0.041 C 
ATOM      5  C   UNL     1      35.920 -21.582 -18.375  0.00  0.00    +0.072 C 
ATOM      6  C   UNL     1      33.556 -20.857 -19.906  0.00  0.00    +0.088 C 
ATOM      7  C   UNL     1      33.434 -21.768 -18.700  0.00  0.00    +0.226 C 
ENDROOT
BRANCH   3  11
ATOM      8  F   UNL     1      35.738 -17.312 -20.060  0.00  0.00    -0.204 F 
ATOM      9  F   UNL     1      34.040 -19.555 -24.751  0.00  0.00    -0.202 F 
ATOM     10  F   UNL     1      34.949 -16.977 -24.714  0.00  0.00    -0.202 F 
ATOM     11  C   UNL     1      34.856 -19.180 -21.230  0.00  0.00    +0.006 C 
ATOM     12  C   UNL     1      35.320 -17.868 -21.206  0.00  0.00    +0.138 C 
ATOM     13  C   UNL     1      34.423 -19.753 -22.422  0.00  0.00    +0.030 C 
ATOM     14  C   UNL     1      34.455 -19.008 -23.601  0.00  0.00    +0.167 C 
ATOM     15  C   UNL     1      35.351 -17.122 -22.385  0.00  0.00    +0.061 C 
ATOM     16  C   UNL     1      34.918 -17.693 -23.582  0.00  0.00    +0.170 C 
ENDBRANCH   3  11
BRANCH   4  17
ATOM     17  N   UNL     1      37.301 -20.168 -19.781  0.00  0.00    +0.383 N 
ATOM     18  H   UNL     1      37.205 -19.308 -19.241  0.00  0.00    -0.089 HD
ATOM     19  H   UNL     1      37.530 -19.937 -20.749  0.00  0.00    -0.089 HD
ATOM     20  H   UNL     1      38.047 -20.738 -19.382  0.00  0.00    -0.089 HD
ENDBRANCH   4  17
BRANCH   2  21
ATOM     21  C   UNL     1      34.579 -23.160 -17.021  0.00  0.00    +0.098 C 
BRANCH  21  22
ATOM     22  C   UNL     1      35.387 -22.692 -15.812  0.00  0.00    +0.048 C 
BRANCH  22  25
ATOM     23  O   UNL     1      39.675 -24.570 -14.242  0.00  0.00    -0.435 OA
ATOM     24  O   UNL     1      38.661 -26.663 -13.613  0.00  0.00    -0.435 OA
ATOM     25  C   UNL     1      36.240 -23.784 -15.216  0.00  0.00    -0.017 C 
ATOM     26  C   UNL     1      37.599 -23.562 -15.040  0.00  0.00    +0.036 C 
ATOM     27  C   UNL     1      35.638 -24.994 -14.856  0.00  0.00    -0.001 C 
ATOM     28  C   UNL     1      38.338 -24.591 -14.492  0.00  0.00    +0.176 C 
ATOM     29  C   UNL     1      37.758 -25.787 -14.132  0.00  0.00    +0.176 C 
ATOM     30  C   UNL     1      36.409 -26.019 -14.302  0.00  0.00    +0.040 C 
ATOM     31  C   UNL     1      39.872 -25.886 -13.685  0.00  0.00    +0.429 C 
ENDBRANCH  22  25
ENDBRANCH  21  22
ENDBRANCH   2  21
TORSDOF 5
ENDMDL
MODEL 5
REMARK VINA RESULT:     -11.2      4.754      7.496
REMARK  Name = 16040279
REMARK  5 active torsions:
REMARK  status: ('A' for Active; 'I' for Inactive)
REMARK    1  A    between atoms: N_2  and  C_21
REMARK    2  A    between atoms: C_3  and  C_11
REMARK    3  A    between atoms: C_4  and  N_17
REMARK    4  A    between atoms: C_21  and  C_22
REMARK    5  A    between atoms: C_22  and  C_25
REMARK                            x       y       z     vdW  Elec       q    Type
REMARK                         _______ _______ _______ _____ _____    ______ ____
ROOT
ATOM      1  O   UNL     1      32.416 -22.014 -18.584  0.00  0.00    -0.275 OA
ATOM      2  N   UNL     1      34.727 -21.999 -18.368  0.00  0.00    -0.281 N 
ATOM      3  C   UNL     1      34.841 -19.760 -20.166  0.00  0.00    +0.015 C 
ATOM      4  C   UNL     1      36.093 -20.633 -19.972  0.00  0.00    -0.041 C 
ATOM      5  C   UNL     1      35.999 -21.322 -18.613  0.00  0.00    +0.072 C 
ATOM      6  C   UNL     1      33.608 -20.667 -20.133  0.00  0.00    +0.088 C 
ATOM      7  C   UNL     1      33.522 -21.596 -18.937  0.00  0.00    +0.226 C 
ENDROOT
BRANCH   3  11
ATOM      8  F   UNL     1      35.583 -17.021 -20.234  0.00  0.00    -0.204 F 
ATOM      9  F   UNL     1      34.110 -19.314 -24.976  0.00  0.00    -0.202 F 
ATOM     10  F   UNL     1      34.849 -16.683 -24.897  0.00  0.00    -0.202 F 
ATOM     11  C   UNL     1      34.843 -18.928 -21.439  0.00  0.00    +0.006 C 
ATOM     12  C   UNL     1      35.220 -17.590 -21.393  0.00  0.00    +0.138 C 
ATOM     13  C   UNL     1      34.468 -19.514 -22.644  0.00  0.00    +0.030 C 
ATOM     14  C   UNL     1      34.470 -18.755 -23.815  0.00  0.00    +0.167 C 
ATOM     15  C   UNL     1      35.222 -16.829 -22.563  0.00  0.00    +0.061 C 
ATOM     16  C   UNL     1      34.847 -17.413 -23.774  0.00  0.00    +0.170 C 
ENDBRANCH   3  11
BRANCH   4  17
ATOM     17  N   UNL     1      37.325 -19.841 -20.004  0.00  0.00    +0.383 N 
ATOM     18  H   UNL     1      37.164 -18.981 -20.528  0.00  0.00    -0.089 HD
ATOM     19  H   UNL     1      38.065 -20.381 -20.457  0.00  0.00    -0.089 HD
ATOM     20  H   UNL     1      37.608 -19.611 -19.051  0.00  0.00    -0.089 HD
ENDBRANCH   4  17
BRANCH   2  21
ATOM     21  C   UNL     1      34.720 -22.964 -17.276  0.00  0.00    +0.098 C 
BRANCH  21  22
ATOM     22  C   UNL     1      35.755 -22.639 -16.201  0.00  0.00    +0.048 C 
BRANCH  22  25
ATOM     23  O   UNL     1      36.801 -23.842 -11.528  0.00  0.00    -0.435 OA
ATOM     24  O   UNL     1      34.637 -24.843 -11.180  0.00  0.00    -0.435 OA
ATOM     25  C   UNL     1      35.420 -23.242 -14.860  0.00  0.00    -0.017 C 
ATOM     26  C   UNL     1      36.368 -23.209 -13.846  0.00  0.00    +0.036 C 
ATOM     27  C   UNL     1      34.161 -23.820 -14.672  0.00  0.00    -0.001 C 
ATOM     28  C   UNL     1      36.016 -23.774 -12.637  0.00  0.00    +0.176 C 
ATOM     29  C   UNL     1      34.779 -24.346 -12.439  0.00  0.00    +0.176 C 
ATOM     30  C   UNL     1      33.829 -24.384 -13.438  0.00  0.00    +0.040 C 
ATOM     31  C   UNL     1      35.920 -24.520 -10.609  0.00  0.00    +0.429 C 
ENDBRANCH  22  25
ENDBRANCH  21  22
ENDBRANCH   2  21
TORSDOF 5
ENDMDL
MODEL 6
REMARK VINA RESULT:     -10.9      4.204      6.577
REMARK  Name = 16040279
REMARK  5 active torsions:
REMARK  status: ('A' for Active; 'I' for Inactive)
REMARK    1  A    between atoms: N_2  and  C_21
REMARK    2  A    between atoms: C_3  and  C_11
REMARK    3  A    between atoms: C_4  and  N_17
REMARK    4  A    between atoms: C_21  and  C_22
REMARK    5  A    between atoms: C_22  and  C_25
REMARK                            x       y       z     vdW  Elec       q    Type
REMARK                         _______ _______ _______ _____ _____    ______ ____
ROOT
ATOM      1  O   UNL     1      33.024 -21.365 -19.089  0.00  0.00    -0.275 OA
ATOM      2  N   UNL     1      35.341 -21.253 -19.168  0.00  0.00    -0.281 N 
ATOM      3  C   UNL     1      35.132 -18.906 -20.813  0.00  0.00    +0.015 C 
ATOM      4  C   UNL     1      36.432 -19.728 -20.838  0.00  0.00    -0.041 C 
ATOM      5  C   UNL     1      36.543 -20.503 -19.526  0.00  0.00    +0.072 C 
ATOM      6  C   UNL     1      33.950 -19.871 -20.684  0.00  0.00    +0.088 C 
ATOM      7  C   UNL     1      34.057 -20.874 -19.551  0.00  0.00    +0.226 C 
ENDROOT
BRANCH   3  11
ATOM      8  F   UNL     1      34.624 -19.883 -23.428  0.00  0.00    -0.204 F 
ATOM      9  F   UNL     1      34.892 -14.455 -22.815  0.00  0.00    -0.202 F 
ATOM     10  F   UNL     1      34.409 -15.534 -25.280  0.00  0.00    -0.202 F 
ATOM     11  C   UNL     1      34.937 -18.000 -22.018  0.00  0.00    +0.006 C 
ATOM     12  C   UNL     1      34.691 -18.554 -23.271  0.00  0.00    +0.138 C 
ATOM     13  C   UNL     1      35.006 -16.619 -21.859  0.00  0.00    +0.030 C 
ATOM     14  C   UNL     1      34.827 -15.784 -22.963  0.00  0.00    +0.167 C 
ATOM     15  C   UNL     1      34.513 -17.720 -24.375  0.00  0.00    +0.061 C 
ATOM     16  C   UNL     1      34.581 -16.335 -24.220  0.00  0.00    +0.170 C 
ENDBRANCH   3  11
BRANCH   4  17
ATOM     17  N   UNL     1      37.618 -18.879 -20.973  0.00  0.00    +0.383 N 
ATOM     18  H   UNL     1      37.802 -18.408 -20.087  0.00  0.00    -0.089 HD
ATOM     19  H   UNL     1      37.455 -18.182 -21.702  0.00  0.00    -0.089 HD
ATOM     20  H   UNL     1      38.422 -19.454 -21.226  0.00  0.00    -0.089 HD
ENDBRANCH   4  17
BRANCH   2  21
ATOM     21  C   UNL     1      35.513 -22.281 -18.150  0.00  0.00    +0.098 C 
BRANCH  21  22
ATOM     22  C   UNL     1      36.652 -21.963 -17.183  0.00  0.00    +0.048 C 
BRANCH  22  25
ATOM     23  O   UNL     1      38.587 -24.238 -13.251  0.00  0.00    -0.435 OA
ATOM     24  O   UNL     1      36.419 -24.795 -12.361  0.00  0.00    -0.435 OA
ATOM     25  C   UNL     1      36.552 -22.725 -15.885  0.00  0.00    -0.017 C 
ATOM     26  C   UNL     1      37.716 -23.093 -15.225  0.00  0.00    +0.036 C 
ATOM     27  C   UNL     1      35.288 -23.043 -15.380  0.00  0.00    -0.001 C 
ATOM     28  C   UNL     1      37.574 -23.790 -14.041  0.00  0.00    +0.176 C 
ATOM     29  C   UNL     1      36.335 -24.109 -13.533  0.00  0.00    +0.176 C 
ATOM     30  C   UNL     1      35.171 -23.748 -14.180  0.00  0.00    +0.040 C 
ATOM     31  C   UNL     1      37.848 -24.874 -12.189  0.00  0.00    +0.429 C 
ENDBRANCH  22  25
ENDBRANCH  21  22
ENDBRANCH   2  21
TORSDOF 5
ENDMDL
MODEL 7
REMARK VINA RESULT:     -10.8      4.386      7.196
REMARK  Name = 16040279
REMARK  5 active torsions:
REMARK  status: ('A' for Active; 'I' for Inactive)
REMARK    1  A    between atoms: N_2  and  C_21
REMARK    2  A    between atoms: C_3  and  C_11
REMARK    3  A    between atoms: C_4  and  N_17
REMARK    4  A    between atoms: C_21  and  C_22
REMARK    5  A    between atoms: C_22  and  C_25
REMARK                            x       y       z     vdW  Elec       q    Type
REMARK                         _______ _______ _______ _____ _____    ______ ____
ROOT
ATOM      1  O   UNL     1      36.785 -22.166 -18.114  0.00  0.00    -0.275 OA
ATOM      2  N   UNL     1      34.487 -22.266 -18.422  0.00  0.00    -0.281 N 
ATOM      3  C   UNL     1      34.734 -20.387 -20.581  0.00  0.00    +0.015 C 
ATOM      4  C   UNL     1      33.375 -20.549 -19.878  0.00  0.00    -0.041 C 
ATOM      5  C   UNL     1      33.321 -21.936 -19.239  0.00  0.00    +0.072 C 
ATOM      6  C   UNL     1      35.841 -20.512 -19.531  0.00  0.00    +0.088 C 
ATOM      7  C   UNL     1      35.757 -21.744 -18.650  0.00  0.00    +0.226 C 
ENDROOT
BRANCH   3  11
ATOM      8  F   UNL     1      34.884 -20.266 -23.413  0.00  0.00    -0.204 F 
ATOM      9  F   UNL     1      35.186 -15.523 -20.706  0.00  0.00    -0.202 F 
ATOM     10  F   UNL     1      35.318 -15.554 -23.436  0.00  0.00    -0.202 F 
ATOM     11  C   UNL     1      34.892 -19.086 -21.353  0.00  0.00    +0.006 C 
ATOM     12  C   UNL     1      34.958 -19.107 -22.743  0.00  0.00    +0.138 C 
ATOM     13  C   UNL     1      34.969 -17.881 -20.662  0.00  0.00    +0.030 C 
ATOM     14  C   UNL     1      35.112 -16.685 -21.366  0.00  0.00    +0.167 C 
ATOM     15  C   UNL     1      35.103 -17.912 -23.448  0.00  0.00    +0.061 C 
ATOM     16  C   UNL     1      35.179 -16.701 -22.759  0.00  0.00    +0.170 C 
ENDBRANCH   3  11
BRANCH   4  17
ATOM     17  N   UNL     1      32.254 -20.428 -20.813  0.00  0.00    +0.383 N 
ATOM     18  H   UNL     1      31.385 -20.318 -20.289  0.00  0.00    -0.089 HD
ATOM     19  H   UNL     1      32.200 -21.269 -21.389  0.00  0.00    -0.089 HD
ATOM     20  H   UNL     1      32.395 -19.614 -21.411  0.00  0.00    -0.089 HD
ENDBRANCH   4  17
BRANCH   2  21
ATOM     21  C   UNL     1      34.325 -23.391 -17.509  0.00  0.00    +0.098 C 
BRANCH  21  22
ATOM     22  C   UNL     1      33.986 -22.948 -16.088  0.00  0.00    +0.048 C 
BRANCH  22  25
ATOM     23  O   UNL     1      29.092 -22.721 -16.705  0.00  0.00    -0.435 OA
ATOM     24  O   UNL     1      28.667 -24.051 -14.741  0.00  0.00    -0.435 OA
ATOM     25  C   UNL     1      32.564 -23.265 -15.696  0.00  0.00    -0.017 C 
ATOM     26  C   UNL     1      31.523 -22.782 -16.477  0.00  0.00    +0.036 C 
ATOM     27  C   UNL     1      32.332 -24.036 -14.553  0.00  0.00    -0.001 C 
ATOM     28  C   UNL     1      30.240 -23.098 -16.078  0.00  0.00    +0.176 C 
ATOM     29  C   UNL     1      29.996 -23.857 -14.955  0.00  0.00    +0.176 C 
ATOM     30  C   UNL     1      31.023 -24.342 -14.171  0.00  0.00    +0.040 C 
ATOM     31  C   UNL     1      28.100 -23.329 -15.852  0.00  0.00    +0.429 C 
ENDBRANCH  22  25
ENDBRANCH  21  22
ENDBRANCH   2  21
TORSDOF 5
ENDMDL
MODEL 8
REMARK VINA RESULT:     -10.7      4.476      7.247
REMARK  Name = 16040279
REMARK  5 active torsions:
REMARK  status: ('A' for Active; 'I' for Inactive)
REMARK    1  A    between atoms: N_2  and  C_21
REMARK    2  A    between atoms: C_3  and  C_11
REMARK    3  A    between atoms: C_4  and  N_17
REMARK    4  A    between atoms: C_21  and  C_22
REMARK    5  A    between atoms: C_22  and  C_25
REMARK                            x       y       z     vdW  Elec       q    Type
REMARK                         _______ _______ _______ _____ _____    ______ ____
ROOT
ATOM      1  O   UNL     1      32.326 -22.223 -18.793  0.00  0.00    -0.275 OA
ATOM      2  N   UNL     1      34.627 -22.203 -18.494  0.00  0.00    -0.281 N 
ATOM      3  C   UNL     1      34.784 -19.866 -20.159  0.00  0.00    +0.015 C 
ATOM      4  C   UNL     1      36.037 -20.740 -19.968  0.00  0.00    -0.041 C 
ATOM      5  C   UNL     1      35.901 -21.504 -18.654  0.00  0.00    +0.072 C 
ATOM      6  C   UNL     1      33.559 -20.783 -20.221  0.00  0.00    +0.088 C 
ATOM      7  C   UNL     1      33.439 -21.778 -19.082  0.00  0.00    +0.226 C 
ENDROOT
BRANCH   3  11
ATOM      8  F   UNL     1      35.608 -17.152 -20.066  0.00  0.00    -0.204 F 
ATOM      9  F   UNL     1      34.118 -19.129 -24.943  0.00  0.00    -0.202 F 
ATOM     10  F   UNL     1      34.933 -16.530 -24.708  0.00  0.00    -0.202 F 
ATOM     11  C   UNL     1      34.825 -18.965 -21.383  0.00  0.00    +0.006 C 
ATOM     12  C   UNL     1      35.241 -17.643 -21.258  0.00  0.00    +0.138 C 
ATOM     13  C   UNL     1      34.445 -19.471 -22.622  0.00  0.00    +0.030 C 
ATOM     14  C   UNL     1      34.482 -18.647 -23.748  0.00  0.00    +0.167 C 
ATOM     15  C   UNL     1      35.277 -16.819 -22.383  0.00  0.00    +0.061 C 
ATOM     16  C   UNL     1      34.898 -17.322 -23.628  0.00  0.00    +0.170 C 
ENDBRANCH   3  11
BRANCH   4  17
ATOM     17  N   UNL     1      37.262 -19.939 -19.912  0.00  0.00    +0.383 N 
ATOM     18  H   UNL     1      37.626 -19.941 -18.959  0.00  0.00    -0.089 HD
ATOM     19  H   UNL     1      37.055 -18.980 -20.195  0.00  0.00    -0.089 HD
ATOM     20  H   UNL     1      37.959 -20.336 -20.543  0.00  0.00    -0.089 HD
ENDBRANCH   4  17
BRANCH   2  21
ATOM     21  C   UNL     1      34.590 -23.228 -17.458  0.00  0.00    +0.098 C 
BRANCH  21  22
ATOM     22  C   UNL     1      34.381 -22.643 -16.063  0.00  0.00    +0.048 C 
BRANCH  22  25
ATOM     23  O   UNL     1      29.819 -24.403 -15.379  0.00  0.00    -0.435 OA
ATOM     24  O   UNL     1      30.373 -25.325 -13.222  0.00  0.00    -0.435 OA
ATOM     25  C   UNL     1      33.325 -23.372 -15.270  0.00  0.00    -0.017 C 
ATOM     26  C   UNL     1      32.048 -23.500 -15.800  0.00  0.00    +0.036 C 
ATOM     27  C   UNL     1      33.660 -23.901 -14.020  0.00  0.00    -0.001 C 
ATOM     28  C   UNL     1      31.116 -24.175 -15.038  0.00  0.00    +0.176 C 
ATOM     29  C   UNL     1      31.433 -24.701 -13.806  0.00  0.00    +0.176 C 
ATOM     30  C   UNL     1      32.698 -24.580 -13.269  0.00  0.00    +0.040 C 
ATOM     31  C   UNL     1      29.355 -25.132 -14.224  0.00  0.00    +0.429 C 
ENDBRANCH  22  25
ENDBRANCH  21  22
ENDBRANCH   2  21
TORSDOF 5
ENDMDL
MODEL 9
REMARK VINA RESULT:     -10.7      5.326     11.097
REMARK  Name = 16040279
REMARK  5 active torsions:
REMARK  status: ('A' for Active; 'I' for Inactive)
REMARK    1  A    between atoms: N_2  and  C_21
REMARK    2  A    between atoms: C_3  and  C_11
REMARK    3  A    between atoms: C_4  and  N_17
REMARK    4  A    between atoms: C_21  and  C_22
REMARK    5  A    between atoms: C_22  and  C_25
REMARK                            x       y       z     vdW  Elec       q    Type
REMARK                         _______ _______ _______ _____ _____    ______ ____
ROOT
ATOM      1  O   UNL     1      30.814 -10.786 -20.581  0.00  0.00    -0.275 OA
ATOM      2  N   UNL     1      32.282  -9.770 -22.064  0.00  0.00    -0.281 N 
ATOM      3  C   UNL     1      32.934 -12.358 -23.131  0.00  0.00    +0.015 C 
ATOM      4  C   UNL     1      33.921 -11.193 -23.327  0.00  0.00    -0.041 C 
ATOM      5  C   UNL     1      33.147  -9.880 -23.238  0.00  0.00    +0.072 C 
ATOM      6  C   UNL     1      32.301 -12.227 -21.743  0.00  0.00    +0.088 C 
ATOM      7  C   UNL     1      31.705 -10.868 -21.431  0.00  0.00    +0.226 C 
ENDROOT
BRANCH   3  11
ATOM      8  F   UNL     1      32.876 -13.804 -25.572  0.00  0.00    -0.204 F 
ATOM      9  F   UNL     1      35.349 -16.202 -21.323  0.00  0.00    -0.202 F 
ATOM     10  F   UNL     1      35.220 -17.482 -23.736  0.00  0.00    -0.202 F 
ATOM     11  C   UNL     1      33.549 -13.738 -23.296  0.00  0.00    +0.006 C 
ATOM     12  C   UNL     1      33.481 -14.386 -24.526  0.00  0.00    +0.138 C 
ATOM     13  C   UNL     1      34.177 -14.346 -22.214  0.00  0.00    +0.030 C 
ATOM     14  C   UNL     1      34.743 -15.613 -22.362  0.00  0.00    +0.167 C 
ATOM     15  C   UNL     1      34.045 -15.653 -24.675  0.00  0.00    +0.061 C 
ATOM     16  C   UNL     1      34.677 -16.266 -23.593  0.00  0.00    +0.170 C 
ENDBRANCH   3  11
BRANCH   4  17
ATOM     17  N   UNL     1      34.586 -11.249 -24.631  0.00  0.00    +0.383 N 
ATOM     18  H   UNL     1      33.907 -11.503 -25.348  0.00  0.00    -0.089 HD
ATOM     19  H   UNL     1      35.329 -11.949 -24.604  0.00  0.00    -0.089 HD
ATOM     20  H   UNL     1      34.986 -10.336 -24.849  0.00  0.00    -0.089 HD
ENDBRANCH   4  17
BRANCH   2  21
ATOM     21  C   UNL     1      31.821  -8.427 -21.738  0.00  0.00    +0.098 C 
BRANCH  21  22
ATOM     22  C   UNL     1      32.971  -7.431 -21.596  0.00  0.00    +0.048 C 
BRANCH  22  25
ATOM     23  O   UNL     1      30.827  -3.673 -23.976  0.00  0.00    -0.435 OA
ATOM     24  O   UNL     1      32.725  -3.358 -25.427  0.00  0.00    -0.435 OA
ATOM     25  C   UNL     1      32.939  -6.342 -22.640  0.00  0.00    -0.017 C 
ATOM     26  C   UNL     1      31.811  -5.538 -22.745  0.00  0.00    +0.036 C 
ATOM     27  C   UNL     1      34.046  -6.171 -23.476  0.00  0.00    -0.001 C 
ATOM     28  C   UNL     1      31.829  -4.556 -23.715  0.00  0.00    +0.176 C 
ATOM     29  C   UNL     1      32.913  -4.377 -24.545  0.00  0.00    +0.176 C 
ATOM     30  C   UNL     1      34.038  -5.169 -24.449  0.00  0.00    +0.040 C 
ATOM     31  C   UNL     1      31.402  -2.917 -25.061  0.00  0.00    +0.429 C 
ENDBRANCH  22  25
ENDBRANCH  21  22
ENDBRANCH   2  21
TORSDOF 5
ENDMDL
