MODEL 1
REMARK VINA RESULT:     -11.4      0.000      0.000
REMARK  Name = 46937091
REMARK  8 active torsions:
REMARK  status: ('A' for Active; 'I' for Inactive)
REMARK    1  A    between atoms: C_1  and  C_4
REMARK    2  A    between atoms: C_1  and  C_18
REMARK    3  A    between atoms: C_10  and  C_12
REMARK    4  A    between atoms: C_18  and  C_19
REMARK    5  A    between atoms: C_19  and  N_20
REMARK    6  A    between atoms: C_19  and  C_30
REMARK    7  A    between atoms: C_24  and  C_27
REMARK    8  A    between atoms: C_30  and  O_32
REMARK                            x       y       z     vdW  Elec       q    Type
REMARK                         _______ _______ _______ _____ _____    ______ ____
ROOT
ATOM      1  C   UNL     1      32.705 -23.226 -16.816  0.00  0.00    +0.031 C 
ENDROOT
BRANCH   1   4
ATOM      2  O   UNL     1      34.539 -21.555 -18.604  0.00  0.00    -0.425 OA
ATOM      3  N   UNL     1      36.761 -21.186 -18.357  0.00  0.00    -0.368 NA
ATOM      4  C   UNL     1      34.182 -22.996 -16.628  0.00  0.00    +0.014 C 
ATOM      5  C   UNL     1      34.954 -22.221 -17.487  0.00  0.00    +0.170 C 
ATOM      6  C   UNL     1      34.867 -23.568 -15.551  0.00  0.00    -0.005 C 
ATOM      7  C   UNL     1      36.314 -21.992 -17.338  0.00  0.00    +0.151 C 
ATOM      8  C   UNL     1      36.240 -23.363 -15.365  0.00  0.00    -0.019 C 
ATOM      9  C   UNL     1      36.985 -22.573 -16.253  0.00  0.00    +0.088 C 
ATOM     10  C   UNL     1      35.676 -20.963 -19.065  0.00  0.00    +0.282 C 
BRANCH  10  12
ATOM     11 CL   UNL     1      35.014 -17.732 -24.013  0.00  0.00    -0.082 Cl
ATOM     12  C   UNL     1      35.515 -20.183 -20.261  0.00  0.00    +0.066 C 
ATOM     13  C   UNL     1      36.564 -19.385 -20.718  0.00  0.00    +0.007 C 
ATOM     14  C   UNL     1      34.312 -20.223 -20.964  0.00  0.00    +0.007 C 
ATOM     15  C   UNL     1      36.408 -18.627 -21.878  0.00  0.00    +0.012 C 
ATOM     16  C   UNL     1      34.157 -19.465 -22.125  0.00  0.00    +0.012 C 
ATOM     17  C   UNL     1      35.205 -18.667 -22.582  0.00  0.00    +0.058 C 
ENDBRANCH  10  12
ENDBRANCH   1   4
BRANCH   1  18
ATOM     18  C   UNL     1      31.859 -22.994 -15.552  0.00  0.00    +0.023 C 
BRANCH  18  19
ATOM     19  C   UNL     1      30.834 -24.114 -15.231  0.00  0.00    +0.087 C 
BRANCH  19  20
ATOM     20  N   UNL     1      29.440 -23.806 -15.763  0.00  0.00    -0.246 NA
ATOM     21  N   UNL     1      27.609 -23.959 -17.011  0.00  0.00    -0.251 NA
ATOM     22  C   UNL     1      28.596 -22.834 -15.309  0.00  0.00    +0.125 C 
ATOM     23  C   UNL     1      28.805 -24.456 -16.785  0.00  0.00    +0.201 C 
ATOM     24  C   UNL     1      27.472 -22.947 -16.093  0.00  0.00    +0.124 C 
BRANCH  24  27
ATOM     25  O   UNL     1      25.569 -22.120 -14.979  0.00  0.00    -0.269 OA
ATOM     26  N   UNL     1      25.951 -21.331 -17.097  0.00  0.00    -0.324 N 
ATOM     27  C   UNL     1      26.295 -22.140 -16.004  0.00  0.00    +0.257 C 
ATOM     28  H   UNL     1      25.144 -20.767 -17.059  0.00  0.00    +0.145 HD
ATOM     29  H   UNL     1      26.516 -21.326 -17.903  0.00  0.00    +0.145 HD
ENDBRANCH  24  27
ENDBRANCH  19  20
BRANCH  19  30
ATOM     30  C   UNL     1      30.844 -24.440 -13.713  0.00  0.00    +0.125 C 
ATOM     31  C   UNL     1      32.223 -24.798 -13.168  0.00  0.00    +0.033 C 
BRANCH  30  32
ATOM     32  O   UNL     1      29.933 -25.496 -13.416  0.00  0.00    -0.383 OA
ATOM     33  H   UNL     1      30.324 -26.344 -13.680  0.00  0.00    +0.210 HD
ENDBRANCH  30  32
ENDBRANCH  19  30
ENDBRANCH  18  19
ENDBRANCH   1  18
TORSDOF 8
ENDMDL
MODEL 2
REMARK VINA RESULT:     -11.4      3.792      7.536
REMARK  Name = 46937091
REMARK  8 active torsions:
REMARK  status: ('A' for Active; 'I' for Inactive)
REMARK    1  A    between atoms: C_1  and  C_4
REMARK    2  A    between atoms: C_1  and  C_18
REMARK    3  A    between atoms: C_10  and  C_12
REMARK    4  A    between atoms: C_18  and  C_19
REMARK    5  A    between atoms: C_19  and  N_20
REMARK    6  A    between atoms: C_19  and  C_30
REMARK    7  A    between atoms: C_24  and  C_27
REMARK    8  A    between atoms: C_30  and  O_32
REMARK                            x       y       z     vdW  Elec       q    Type
REMARK                         _______ _______ _______ _____ _____    ______ ____
ROOT
ATOM      1  C   UNL     1      34.849 -24.418 -14.199  0.00  0.00    +0.031 C 
ENDROOT
BRANCH   1   4
ATOM      2  O   UNL     1      33.834 -22.898 -16.650  0.00  0.00    -0.425 OA
ATOM      3  N   UNL     1      31.685 -22.561 -17.286  0.00  0.00    -0.368 NA
ATOM      4  C   UNL     1      33.411 -24.210 -14.599  0.00  0.00    +0.014 C 
ATOM      5  C   UNL     1      33.025 -23.503 -15.733  0.00  0.00    +0.170 C 
ATOM      6  C   UNL     1      32.368 -24.731 -13.827  0.00  0.00    -0.005 C 
ATOM      7  C   UNL     1      31.710 -23.296 -16.125  0.00  0.00    +0.151 C 
ATOM      8  C   UNL     1      31.028 -24.544 -14.187  0.00  0.00    -0.019 C 
ATOM      9  C   UNL     1      30.677 -23.826 -15.340  0.00  0.00    +0.088 C 
ATOM     10  C   UNL     1      32.958 -22.359 -17.543  0.00  0.00    +0.282 C 
BRANCH  10  12
ATOM     11 CL   UNL     1      35.459 -19.416 -22.066  0.00  0.00    -0.082 Cl
ATOM     12  C   UNL     1      33.562 -21.648 -18.637  0.00  0.00    +0.066 C 
ATOM     13  C   UNL     1      34.945 -21.689 -18.816  0.00  0.00    +0.007 C 
ATOM     14  C   UNL     1      32.766 -20.917 -19.518  0.00  0.00    +0.007 C 
ATOM     15  C   UNL     1      35.531 -20.999 -19.876  0.00  0.00    +0.012 C 
ATOM     16  C   UNL     1      33.353 -20.227 -20.579  0.00  0.00    +0.012 C 
ATOM     17  C   UNL     1      34.735 -20.268 -20.758  0.00  0.00    +0.058 C 
ENDBRANCH  10  12
ENDBRANCH   1   4
BRANCH   1  18
ATOM     18  C   UNL     1      35.121 -24.248 -12.694  0.00  0.00    +0.023 C 
BRANCH  18  19
ATOM     19  C   UNL     1      36.516 -23.667 -12.339  0.00  0.00    +0.087 C 
BRANCH  19  20
ATOM     20  N   UNL     1      37.607 -24.124 -13.299  0.00  0.00    -0.246 NA
ATOM     21  N   UNL     1      38.947 -24.140 -15.070  0.00  0.00    -0.251 NA
ATOM     22  C   UNL     1      38.397 -25.229 -13.160  0.00  0.00    +0.125 C 
ATOM     23  C   UNL     1      37.972 -23.501 -14.460  0.00  0.00    +0.201 C 
ATOM     24  C   UNL     1      39.217 -25.218 -14.264  0.00  0.00    +0.124 C 
BRANCH  24  27
ATOM     25  O   UNL     1      40.602 -26.404 -15.754  0.00  0.00    -0.269 OA
ATOM     26  N   UNL     1      40.835 -26.881 -13.524  0.00  0.00    -0.324 N 
ATOM     27  C   UNL     1      40.228 -26.179 -14.576  0.00  0.00    +0.257 C 
ATOM     28  H   UNL     1      41.534 -27.548 -13.714  0.00  0.00    +0.145 HD
ATOM     29  H   UNL     1      40.562 -26.707 -12.594  0.00  0.00    +0.145 HD
ENDBRANCH  24  27
ENDBRANCH  19  20
BRANCH  19  30
ATOM     30  C   UNL     1      36.860 -23.953 -10.852  0.00  0.00    +0.125 C 
ATOM     31  C   UNL     1      35.711 -24.570 -10.061  0.00  0.00    +0.033 C 
BRANCH  30  32
ATOM     32  O   UNL     1      37.299 -22.766 -10.196  0.00  0.00    -0.383 OA
ATOM     33  H   UNL     1      38.267 -22.765 -10.144  0.00  0.00    +0.210 HD
ENDBRANCH  30  32
ENDBRANCH  19  30
ENDBRANCH  18  19
ENDBRANCH   1  18
TORSDOF 8
ENDMDL
MODEL 3
REMARK VINA RESULT:     -10.3      2.517      4.412
REMARK  Name = 46937091
REMARK  8 active torsions:
REMARK  status: ('A' for Active; 'I' for Inactive)
REMARK    1  A    between atoms: C_1  and  C_4
REMARK    2  A    between atoms: C_1  and  C_18
REMARK    3  A    between atoms: C_10  and  C_12
REMARK    4  A    between atoms: C_18  and  C_19
REMARK    5  A    between atoms: C_19  and  N_20
REMARK    6  A    between atoms: C_19  and  C_30
REMARK    7  A    between atoms: C_24  and  C_27
REMARK    8  A    between atoms: C_30  and  O_32
REMARK                            x       y       z     vdW  Elec       q    Type
REMARK                         _______ _______ _______ _____ _____    ______ ____
ROOT
ATOM      1  C   UNL     1      32.864 -22.573 -17.923  0.00  0.00    +0.031 C 
ENDROOT
BRANCH   1   4
ATOM      2  O   UNL     1      34.486 -20.700 -19.716  0.00  0.00    -0.425 OA
ATOM      3  N   UNL     1      36.699 -20.229 -19.592  0.00  0.00    -0.368 NA
ATOM      4  C   UNL     1      34.338 -22.276 -17.818  0.00  0.00    +0.014 C 
ATOM      5  C   UNL     1      35.009 -21.410 -18.674  0.00  0.00    +0.170 C 
ATOM      6  C   UNL     1      35.123 -22.877 -16.828  0.00  0.00    -0.005 C 
ATOM      7  C   UNL     1      36.364 -21.119 -18.600  0.00  0.00    +0.151 C 
ATOM      8  C   UNL     1      36.493 -22.611 -16.720  0.00  0.00    -0.019 C 
ATOM      9  C   UNL     1      37.135 -21.729 -17.602  0.00  0.00    +0.088 C 
ATOM     10  C   UNL     1      35.558 -20.022 -20.211  0.00  0.00    +0.282 C 
BRANCH  10  12
ATOM     11 CL   UNL     1      34.397 -16.531 -24.884  0.00  0.00    -0.082 Cl
ATOM     12  C   UNL     1      35.277 -19.179 -21.340  0.00  0.00    +0.066 C 
ATOM     13  C   UNL     1      35.646 -17.834 -21.315  0.00  0.00    +0.007 C 
ATOM     14  C   UNL     1      34.636 -19.705 -22.462  0.00  0.00    +0.007 C 
ATOM     15  C   UNL     1      35.374 -17.015 -22.411  0.00  0.00    +0.012 C 
ATOM     16  C   UNL     1      34.364 -18.886 -23.557  0.00  0.00    +0.012 C 
ATOM     17  C   UNL     1      34.733 -17.541 -23.532  0.00  0.00    +0.058 C 
ENDBRANCH  10  12
ENDBRANCH   1   4
BRANCH   1  18
ATOM     18  C   UNL     1      32.342 -23.578 -16.882  0.00  0.00    +0.023 C 
BRANCH  18  19
ATOM     19  C   UNL     1      31.665 -22.945 -15.637  0.00  0.00    +0.087 C 
BRANCH  19  20
ATOM     20  N   UNL     1      32.349 -23.334 -14.333  0.00  0.00    -0.246 NA
ATOM     21  N   UNL     1      32.667 -23.612 -12.153  0.00  0.00    -0.251 NA
ATOM     22  C   UNL     1      33.585 -23.899 -14.205  0.00  0.00    +0.125 C 
ATOM     23  C   UNL     1      31.835 -23.180 -13.075  0.00  0.00    +0.201 C 
ATOM     24  C   UNL     1      33.760 -24.062 -12.850  0.00  0.00    +0.124 C 
BRANCH  24  27
ATOM     25  O   UNL     1      34.885 -25.020 -11.016  0.00  0.00    -0.269 OA
ATOM     26  N   UNL     1      36.099 -24.737 -12.940  0.00  0.00    -0.324 N 
ATOM     27  C   UNL     1      34.909 -24.619 -12.207  0.00  0.00    +0.257 C 
ATOM     28  H   UNL     1      36.903 -25.118 -12.518  0.00  0.00    +0.145 HD
ATOM     29  H   UNL     1      36.130 -24.439 -13.878  0.00  0.00    +0.145 HD
ENDBRANCH  24  27
ENDBRANCH  19  20
BRANCH  19  30
ATOM     30  C   UNL     1      30.142 -23.246 -15.635  0.00  0.00    +0.125 C 
ATOM     31  C   UNL     1      29.808 -24.734 -15.621  0.00  0.00    +0.033 C 
BRANCH  30  32
ATOM     32  O   UNL     1      29.502 -22.631 -16.751  0.00  0.00    -0.383 OA
ATOM     33  H   UNL     1      28.620 -23.016 -16.870  0.00  0.00    +0.210 HD
ENDBRANCH  30  32
ENDBRANCH  19  30
ENDBRANCH  18  19
ENDBRANCH   1  18
TORSDOF 8
ENDMDL
MODEL 4
REMARK VINA RESULT:     -10.2     10.464     14.536
REMARK  Name = 46937091
REMARK  8 active torsions:
REMARK  status: ('A' for Active; 'I' for Inactive)
REMARK    1  A    between atoms: C_1  and  C_4
REMARK    2  A    between atoms: C_1  and  C_18
REMARK    3  A    between atoms: C_10  and  C_12
REMARK    4  A    between atoms: C_18  and  C_19
REMARK    5  A    between atoms: C_19  and  N_20
REMARK    6  A    between atoms: C_19  and  C_30
REMARK    7  A    between atoms: C_24  and  C_27
REMARK    8  A    between atoms: C_30  and  O_32
REMARK                            x       y       z     vdW  Elec       q    Type
REMARK                         _______ _______ _______ _____ _____    ______ ____
ROOT
ATOM      1  C   UNL     1      31.915 -11.175 -22.329  0.00  0.00    +0.031 C 
ENDROOT
BRANCH   1   4
ATOM      2  O   UNL     1      32.702  -8.231 -22.586  0.00  0.00    -0.425 OA
ATOM      3  N   UNL     1      32.781  -6.665 -20.949  0.00  0.00    -0.368 NA
ATOM      4  C   UNL     1      31.958 -10.152 -21.222  0.00  0.00    +0.014 C 
ATOM      5  C   UNL     1      32.328  -8.827 -21.415  0.00  0.00    +0.170 C 
ATOM      6  C   UNL     1      31.619 -10.500 -19.909  0.00  0.00    -0.005 C 
ATOM      7  C   UNL     1      32.377  -7.866 -20.416  0.00  0.00    +0.151 C 
ATOM      8  C   UNL     1      31.656  -9.561 -18.872  0.00  0.00    -0.019 C 
ATOM      9  C   UNL     1      32.034  -8.230 -19.107  0.00  0.00    +0.088 C 
ATOM     10  C   UNL     1      32.956  -6.943 -22.222  0.00  0.00    +0.282 C 
BRANCH  10  12
ATOM     11 CL   UNL     1      34.700  -3.370 -26.645  0.00  0.00    -0.082 Cl
ATOM     12  C   UNL     1      33.378  -6.080 -23.291  0.00  0.00    +0.066 C 
ATOM     13  C   UNL     1      32.596  -4.982 -23.650  0.00  0.00    +0.007 C 
ATOM     14  C   UNL     1      34.569  -6.339 -23.968  0.00  0.00    +0.007 C 
ATOM     15  C   UNL     1      33.005  -4.144 -24.687  0.00  0.00    +0.012 C 
ATOM     16  C   UNL     1      34.978  -5.501 -25.005  0.00  0.00    +0.012 C 
ATOM     17  C   UNL     1      34.196  -4.403 -25.365  0.00  0.00    +0.058 C 
ENDBRANCH  10  12
ENDBRANCH   1   4
BRANCH   1  18
ATOM     18  C   UNL     1      33.276 -11.453 -22.989  0.00  0.00    +0.023 C 
BRANCH  18  19
ATOM     19  C   UNL     1      33.260 -12.539 -24.098  0.00  0.00    +0.087 C 
BRANCH  19  20
ATOM     20  N   UNL     1      33.820 -13.874 -23.624  0.00  0.00    -0.246 NA
ATOM     21  N   UNL     1      34.737 -15.386 -22.281  0.00  0.00    -0.251 NA
ATOM     22  C   UNL     1      33.903 -15.023 -24.357  0.00  0.00    +0.125 C 
ATOM     23  C   UNL     1      34.333 -14.139 -22.385  0.00  0.00    +0.201 C 
ATOM     24  C   UNL     1      34.472 -15.943 -23.507  0.00  0.00    +0.124 C 
BRANCH  24  27
ATOM     25  O   UNL     1      34.234 -17.911 -24.778  0.00  0.00    -0.269 OA
ATOM     26  N   UNL     1      35.702 -17.988 -23.019  0.00  0.00    -0.324 N 
ATOM     27  C   UNL     1      34.768 -17.308 -23.814  0.00  0.00    +0.257 C 
ATOM     28  H   UNL     1      35.922 -18.928 -23.212  0.00  0.00    +0.145 HD
ATOM     29  H   UNL     1      36.139 -17.525 -22.268  0.00  0.00    +0.145 HD
ENDBRANCH  24  27
ENDBRANCH  19  20
BRANCH  19  30
ATOM     30  C   UNL     1      33.954 -12.013 -25.384  0.00  0.00    +0.125 C 
ATOM     31  C   UNL     1      34.576 -10.630 -25.226  0.00  0.00    +0.033 C 
BRANCH  30  32
ATOM     32  O   UNL     1      33.044 -11.997 -26.481  0.00  0.00    -0.383 OA
ATOM     33  H   UNL     1      32.915 -12.902 -26.806  0.00  0.00    +0.210 HD
ENDBRANCH  30  32
ENDBRANCH  19  30
ENDBRANCH  18  19
ENDBRANCH   1  18
TORSDOF 8
ENDMDL
MODEL 5
REMARK VINA RESULT:     -10.1      9.991     14.052
REMARK  Name = 46937091
REMARK  8 active torsions:
REMARK  status: ('A' for Active; 'I' for Inactive)
REMARK    1  A    between atoms: C_1  and  C_4
REMARK    2  A    between atoms: C_1  and  C_18
REMARK    3  A    between atoms: C_10  and  C_12
REMARK    4  A    between atoms: C_18  and  C_19
REMARK    5  A    between atoms: C_19  and  N_20
REMARK    6  A    between atoms: C_19  and  C_30
REMARK    7  A    between atoms: C_24  and  C_27
REMARK    8  A    between atoms: C_30  and  O_32
REMARK                            x       y       z     vdW  Elec       q    Type
REMARK                         _______ _______ _______ _____ _____    ______ ____
ROOT
ATOM      1  C   UNL     1      31.868 -11.699 -22.269  0.00  0.00    +0.031 C 
ENDROOT
BRANCH   1   4
ATOM      2  O   UNL     1      32.565  -8.741 -22.608  0.00  0.00    -0.425 OA
ATOM      3  N   UNL     1      32.627  -7.136 -21.010  0.00  0.00    -0.368 NA
ATOM      4  C   UNL     1      31.901 -10.651 -21.187  0.00  0.00    +0.014 C 
ATOM      5  C   UNL     1      32.229  -9.320 -21.418  0.00  0.00    +0.170 C 
ATOM      6  C   UNL     1      31.595 -10.977 -19.861  0.00  0.00    -0.005 C 
ATOM      7  C   UNL     1      32.267  -8.334 -20.442  0.00  0.00    +0.151 C 
ATOM      8  C   UNL     1      31.623 -10.013 -18.846  0.00  0.00    -0.019 C 
ATOM      9  C   UNL     1      31.958  -8.678 -19.119  0.00  0.00    +0.088 C 
ATOM     10  C   UNL     1      32.787  -7.439 -22.279  0.00  0.00    +0.282 C 
BRANCH  10  12
ATOM     11 CL   UNL     1      34.349  -3.923 -26.815  0.00  0.00    -0.082 Cl
ATOM     12  C   UNL     1      33.165  -6.589 -23.375  0.00  0.00    +0.066 C 
ATOM     13  C   UNL     1      32.184  -5.938 -24.123  0.00  0.00    +0.007 C 
ATOM     14  C   UNL     1      34.512  -6.415 -23.691  0.00  0.00    +0.007 C 
ATOM     15  C   UNL     1      32.550  -5.114 -25.187  0.00  0.00    +0.012 C 
ATOM     16  C   UNL     1      34.879  -5.590 -24.754  0.00  0.00    +0.012 C 
ATOM     17  C   UNL     1      33.897  -4.940 -25.502  0.00  0.00    +0.058 C 
ENDBRANCH  10  12
ENDBRANCH   1   4
BRANCH   1  18
ATOM     18  C   UNL     1      33.232 -12.344 -22.571  0.00  0.00    +0.023 C 
BRANCH  18  19
ATOM     19  C   UNL     1      33.275 -13.230 -23.845  0.00  0.00    +0.087 C 
BRANCH  19  20
ATOM     20  N   UNL     1      33.910 -14.591 -23.594  0.00  0.00    -0.246 NA
ATOM     21  N   UNL     1      34.598 -16.668 -23.976  0.00  0.00    -0.251 NA
ATOM     22  C   UNL     1      34.504 -15.007 -22.437  0.00  0.00    +0.125 C 
ATOM     23  C   UNL     1      33.991 -15.621 -24.490  0.00  0.00    +0.201 C 
ATOM     24  C   UNL     1      34.921 -16.291 -22.696  0.00  0.00    +0.124 C 
BRANCH  24  27
ATOM     25  O   UNL     1      35.452 -17.080 -20.541  0.00  0.00    -0.269 OA
ATOM     26  N   UNL     1      36.455 -18.144 -22.308  0.00  0.00    -0.324 N 
ATOM     27  C   UNL     1      35.603 -17.159 -21.786  0.00  0.00    +0.257 C 
ATOM     28  H   UNL     1      36.935 -18.752 -21.700  0.00  0.00    +0.145 HD
ATOM     29  H   UNL     1      36.573 -18.226 -23.281  0.00  0.00    +0.145 HD
ENDBRANCH  24  27
ENDBRANCH  19  20
BRANCH  19  30
ATOM     30  C   UNL     1      33.936 -12.460 -25.020  0.00  0.00    +0.125 C 
ATOM     31  C   UNL     1      34.188 -10.985 -24.726  0.00  0.00    +0.033 C 
BRANCH  30  32
ATOM     32  O   UNL     1      33.153 -12.576 -26.206  0.00  0.00    -0.383 OA
ATOM     33  H   UNL     1      32.791 -13.474 -26.267  0.00  0.00    +0.210 HD
ENDBRANCH  30  32
ENDBRANCH  19  30
ENDBRANCH  18  19
ENDBRANCH   1  18
TORSDOF 8
ENDMDL
MODEL 6
REMARK VINA RESULT:     -10.0      3.306      5.505
REMARK  Name = 46937091
REMARK  8 active torsions:
REMARK  status: ('A' for Active; 'I' for Inactive)
REMARK    1  A    between atoms: C_1  and  C_4
REMARK    2  A    between atoms: C_1  and  C_18
REMARK    3  A    between atoms: C_10  and  C_12
REMARK    4  A    between atoms: C_18  and  C_19
REMARK    5  A    between atoms: C_19  and  N_20
REMARK    6  A    between atoms: C_19  and  C_30
REMARK    7  A    between atoms: C_24  and  C_27
REMARK    8  A    between atoms: C_30  and  O_32
REMARK                            x       y       z     vdW  Elec       q    Type
REMARK                         _______ _______ _______ _____ _____    ______ ____
ROOT
ATOM      1  C   UNL     1      32.822 -22.866 -18.193  0.00  0.00    +0.031 C 
ENDROOT
BRANCH   1   4
ATOM      2  O   UNL     1      35.334 -22.995 -16.454  0.00  0.00    -0.425 OA
ATOM      3  N   UNL     1      37.334 -21.998 -16.826  0.00  0.00    -0.368 NA
ATOM      4  C   UNL     1      34.142 -22.193 -18.465  0.00  0.00    +0.014 C 
ATOM      5  C   UNL     1      35.244 -22.297 -17.624  0.00  0.00    +0.170 C 
ATOM      6  C   UNL     1      34.326 -21.407 -19.608  0.00  0.00    -0.005 C 
ATOM      7  C   UNL     1      36.471 -21.689 -17.849  0.00  0.00    +0.151 C 
ATOM      8  C   UNL     1      35.548 -20.776 -19.873  0.00  0.00    -0.019 C 
ATOM      9  C   UNL     1      36.638 -20.906 -19.000  0.00  0.00    +0.088 C 
ATOM     10  C   UNL     1      36.611 -22.765 -16.041  0.00  0.00    +0.282 C 
BRANCH  10  12
ATOM     11 CL   UNL     1      38.120 -25.391 -10.923  0.00  0.00    -0.082 Cl
ATOM     12  C   UNL     1      36.975 -23.399 -14.804  0.00  0.00    +0.066 C 
ATOM     13  C   UNL     1      38.096 -24.228 -14.749  0.00  0.00    +0.007 C 
ATOM     14  C   UNL     1      36.209 -23.186 -13.659  0.00  0.00    +0.007 C 
ATOM     15  C   UNL     1      38.449 -24.844 -13.549  0.00  0.00    +0.012 C 
ATOM     16  C   UNL     1      36.563 -23.802 -12.458  0.00  0.00    +0.012 C 
ATOM     17  C   UNL     1      37.683 -24.631 -12.404  0.00  0.00    +0.058 C 
ENDBRANCH  10  12
ENDBRANCH   1   4
BRANCH   1  18
ATOM     18  C   UNL     1      32.091 -22.350 -16.941  0.00  0.00    +0.023 C 
BRANCH  18  19
ATOM     19  C   UNL     1      31.661 -23.447 -15.931  0.00  0.00    +0.087 C 
BRANCH  19  20
ATOM     20  N   UNL     1      30.154 -23.479 -15.704  0.00  0.00    -0.246 NA
ATOM     21  N   UNL     1      28.175 -24.177 -14.979  0.00  0.00    -0.251 NA
ATOM     22  C   UNL     1      29.246 -22.573 -16.170  0.00  0.00    +0.125 C 
ATOM     23  C   UNL     1      29.466 -24.423 -14.994  0.00  0.00    +0.201 C 
ATOM     24  C   UNL     1      28.031 -23.024 -15.710  0.00  0.00    +0.124 C 
BRANCH  24  27
ATOM     25  O   UNL     1      25.855 -22.392 -15.066  0.00  0.00    -0.269 OA
ATOM     26  N   UNL     1      26.525 -21.788 -17.173  0.00  0.00    -0.324 N 
ATOM     27  C   UNL     1      26.760 -22.409 -15.938  0.00  0.00    +0.257 C 
ATOM     28  H   UNL     1      25.658 -21.358 -17.353  0.00  0.00    +0.145 HD
ATOM     29  H   UNL     1      27.229 -21.782 -17.862  0.00  0.00    +0.145 HD
ENDBRANCH  24  27
ENDBRANCH  19  20
BRANCH  19  30
ATOM     30  C   UNL     1      32.469 -23.318 -14.612  0.00  0.00    +0.125 C 
ATOM     31  C   UNL     1      32.643 -24.635 -13.865  0.00  0.00    +0.033 C 
BRANCH  30  32
ATOM     32  O   UNL     1      31.870 -22.360 -13.742  0.00  0.00    -0.383 OA
ATOM     33  H   UNL     1      32.397 -22.286 -12.931  0.00  0.00    +0.210 HD
ENDBRANCH  30  32
ENDBRANCH  19  30
ENDBRANCH  18  19
ENDBRANCH   1  18
TORSDOF 8
ENDMDL
MODEL 7
REMARK VINA RESULT:      -9.9      4.470      8.483
REMARK  Name = 46937091
REMARK  8 active torsions:
REMARK  status: ('A' for Active; 'I' for Inactive)
REMARK    1  A    between atoms: C_1  and  C_4
REMARK    2  A    between atoms: C_1  and  C_18
REMARK    3  A    between atoms: C_10  and  C_12
REMARK    4  A    between atoms: C_18  and  C_19
REMARK    5  A    between atoms: C_19  and  N_20
REMARK    6  A    between atoms: C_19  and  C_30
REMARK    7  A    between atoms: C_24  and  C_27
REMARK    8  A    between atoms: C_30  and  O_32
REMARK                            x       y       z     vdW  Elec       q    Type
REMARK                         _______ _______ _______ _____ _____    ______ ____
ROOT
ATOM      1  C   UNL     1      33.480 -22.953 -18.627  0.00  0.00    +0.031 C 
ENDROOT
BRANCH   1   4
ATOM      2  O   UNL     1      34.985 -23.963 -16.164  0.00  0.00    -0.425 OA
ATOM      3  N   UNL     1      34.211 -24.149 -14.042  0.00  0.00    -0.368 NA
ATOM      4  C   UNL     1      32.941 -23.066 -17.224  0.00  0.00    +0.014 C 
ATOM      5  C   UNL     1      33.688 -23.537 -16.150  0.00  0.00    +0.170 C 
ATOM      6  C   UNL     1      31.626 -22.692 -16.928  0.00  0.00    -0.005 C 
ATOM      7  C   UNL     1      33.218 -23.651 -14.850  0.00  0.00    +0.151 C 
ATOM      8  C   UNL     1      31.112 -22.793 -15.629  0.00  0.00    -0.019 C 
ATOM      9  C   UNL     1      31.897 -23.273 -14.571  0.00  0.00    +0.088 C 
ATOM     10  C   UNL     1      35.221 -24.311 -14.868  0.00  0.00    +0.282 C 
BRANCH  10  12
ATOM     11 CL   UNL     1      40.697 -26.351 -13.763  0.00  0.00    -0.082 Cl
ATOM     12  C   UNL     1      36.544 -24.805 -14.601  0.00  0.00    +0.066 C 
ATOM     13  C   UNL     1      37.648 -23.973 -14.785  0.00  0.00    +0.007 C 
ATOM     14  C   UNL     1      36.724 -26.114 -14.157  0.00  0.00    +0.007 C 
ATOM     15  C   UNL     1      38.932 -24.451 -14.526  0.00  0.00    +0.012 C 
ATOM     16  C   UNL     1      38.008 -26.593 -13.898  0.00  0.00    +0.012 C 
ATOM     17  C   UNL     1      39.112 -25.761 -14.082  0.00  0.00    +0.058 C 
ENDBRANCH  10  12
ENDBRANCH   1   4
BRANCH   1  18
ATOM     18  C   UNL     1      33.523 -21.518 -19.178  0.00  0.00    +0.023 C 
BRANCH  18  19
ATOM     19  C   UNL     1      34.903 -20.815 -19.080  0.00  0.00    +0.087 C 
BRANCH  19  20
ATOM     20  N   UNL     1      35.197 -19.924 -20.280  0.00  0.00    -0.246 NA
ATOM     21  N   UNL     1      36.271 -18.491 -21.594  0.00  0.00    -0.251 NA
ATOM     22  C   UNL     1      34.402 -19.755 -21.377  0.00  0.00    +0.125 C 
ATOM     23  C   UNL     1      36.308 -19.146 -20.455  0.00  0.00    +0.201 C 
ATOM     24  C   UNL     1      35.085 -18.867 -22.175  0.00  0.00    +0.124 C 
BRANCH  24  27
ATOM     25  O   UNL     1      33.881 -19.017 -24.194  0.00  0.00    -0.269 OA
ATOM     26  N   UNL     1      35.109 -17.109 -23.861  0.00  0.00    -0.324 N 
ATOM     27  C   UNL     1      34.657 -18.371 -23.446  0.00  0.00    +0.257 C 
ATOM     28  H   UNL     1      34.827 -16.747 -24.732  0.00  0.00    +0.145 HD
ATOM     29  H   UNL     1      35.707 -16.586 -23.281  0.00  0.00    +0.145 HD
ENDBRANCH  24  27
ENDBRANCH  19  20
BRANCH  19  30
ATOM     30  C   UNL     1      36.024 -21.855 -18.810  0.00  0.00    +0.125 C 
ATOM     31  C   UNL     1      36.881 -21.535 -17.590  0.00  0.00    +0.033 C 
BRANCH  30  32
ATOM     32  O   UNL     1      36.867 -22.000 -19.951  0.00  0.00    -0.383 OA
ATOM     33  H   UNL     1      36.496 -21.495 -20.692  0.00  0.00    +0.210 HD
ENDBRANCH  30  32
ENDBRANCH  19  30
ENDBRANCH  18  19
ENDBRANCH   1  18
TORSDOF 8
ENDMDL
MODEL 8
REMARK VINA RESULT:      -9.6     12.055     16.032
REMARK  Name = 46937091
REMARK  8 active torsions:
REMARK  status: ('A' for Active; 'I' for Inactive)
REMARK    1  A    between atoms: C_1  and  C_4
REMARK    2  A    between atoms: C_1  and  C_18
REMARK    3  A    between atoms: C_10  and  C_12
REMARK    4  A    between atoms: C_18  and  C_19
REMARK    5  A    between atoms: C_19  and  N_20
REMARK    6  A    between atoms: C_19  and  C_30
REMARK    7  A    between atoms: C_24  and  C_27
REMARK    8  A    between atoms: C_30  and  O_32
REMARK                            x       y       z     vdW  Elec       q    Type
REMARK                         _______ _______ _______ _____ _____    ______ ____
ROOT
ATOM      1  C   UNL     1      31.760  -9.676 -22.587  0.00  0.00    +0.031 C 
ENDROOT
BRANCH   1   4
ATOM      2  O   UNL     1      31.999  -6.715 -23.315  0.00  0.00    -0.425 OA
ATOM      3  N   UNL     1      32.288  -4.958 -21.912  0.00  0.00    -0.368 NA
ATOM      4  C   UNL     1      31.951  -8.525 -21.633  0.00  0.00    +0.014 C 
ATOM      5  C   UNL     1      32.052  -7.199 -22.039  0.00  0.00    +0.170 C 
ATOM      6  C   UNL     1      32.039  -8.743 -20.254  0.00  0.00    -0.005 C 
ATOM      7  C   UNL     1      32.228  -6.122 -21.184  0.00  0.00    +0.151 C 
ATOM      8  C   UNL     1      32.218  -7.683 -19.356  0.00  0.00    -0.019 C 
ATOM      9  C   UNL     1      32.314  -6.358 -19.804  0.00  0.00    +0.088 C 
ATOM     10  C   UNL     1      32.147  -5.371 -23.153  0.00  0.00    +0.282 C 
BRANCH  10  12
ATOM     11 CL   UNL     1      32.067  -2.202 -28.184  0.00  0.00    -0.082 Cl
ATOM     12  C   UNL     1      32.127  -4.605 -24.368  0.00  0.00    +0.066 C 
ATOM     13  C   UNL     1      32.810  -5.066 -25.494  0.00  0.00    +0.007 C 
ATOM     14  C   UNL     1      31.426  -3.401 -24.423  0.00  0.00    +0.007 C 
ATOM     15  C   UNL     1      32.792  -4.322 -26.674  0.00  0.00    +0.012 C 
ATOM     16  C   UNL     1      31.407  -2.658 -25.603  0.00  0.00    +0.012 C 
ATOM     17  C   UNL     1      32.090  -3.119 -26.729  0.00  0.00    +0.058 C 
ENDBRANCH  10  12
ENDBRANCH   1   4
BRANCH   1  18
ATOM     18  C   UNL     1      32.980 -10.604 -22.716  0.00  0.00    +0.023 C 
BRANCH  18  19
ATOM     19  C   UNL     1      33.528 -10.775 -24.158  0.00  0.00    +0.087 C 
BRANCH  19  20
ATOM     20  N   UNL     1      33.569 -12.232 -24.603  0.00  0.00    -0.246 NA
ATOM     21  N   UNL     1      33.372 -14.013 -25.915  0.00  0.00    -0.251 NA
ATOM     22  C   UNL     1      33.950 -13.300 -23.842  0.00  0.00    +0.125 C 
ATOM     23  C   UNL     1      33.230 -12.708 -25.839  0.00  0.00    +0.201 C 
ATOM     24  C   UNL     1      33.821 -14.388 -24.673  0.00  0.00    +0.124 C 
BRANCH  24  27
ATOM     25  O   UNL     1      33.468 -16.712 -24.834  0.00  0.00    -0.269 OA
ATOM     26  N   UNL     1      35.136 -16.014 -23.424  0.00  0.00    -0.324 N 
ATOM     27  C   UNL     1      34.102 -15.749 -24.334  0.00  0.00    +0.257 C 
ATOM     28  H   UNL     1      35.348 -16.943 -23.175  0.00  0.00    +0.145 HD
ATOM     29  H   UNL     1      35.650 -15.271 -23.033  0.00  0.00    +0.145 HD
ENDBRANCH  24  27
ENDBRANCH  19  20
BRANCH  19  30
ATOM     30  C   UNL     1      34.896 -10.058 -24.309  0.00  0.00    +0.125 C 
ATOM     31  C   UNL     1      34.865  -8.583 -23.920  0.00  0.00    +0.033 C 
BRANCH  30  32
ATOM     32  O   UNL     1      35.389 -10.182 -25.642  0.00  0.00    -0.383 OA
ATOM     33  H   UNL     1      36.348 -10.036 -25.646  0.00  0.00    +0.210 HD
ENDBRANCH  30  32
ENDBRANCH  19  30
ENDBRANCH  18  19
ENDBRANCH   1  18
TORSDOF 8
ENDMDL
MODEL 9
REMARK VINA RESULT:      -9.6     11.532     15.366
REMARK  Name = 46937091
REMARK  8 active torsions:
REMARK  status: ('A' for Active; 'I' for Inactive)
REMARK    1  A    between atoms: C_1  and  C_4
REMARK    2  A    between atoms: C_1  and  C_18
REMARK    3  A    between atoms: C_10  and  C_12
REMARK    4  A    between atoms: C_18  and  C_19
REMARK    5  A    between atoms: C_19  and  N_20
REMARK    6  A    between atoms: C_19  and  C_30
REMARK    7  A    between atoms: C_24  and  C_27
REMARK    8  A    between atoms: C_30  and  O_32
REMARK                            x       y       z     vdW  Elec       q    Type
REMARK                         _______ _______ _______ _____ _____    ______ ____
ROOT
ATOM      1  C   UNL     1      33.811  -9.615 -23.162  0.00  0.00    +0.031 C 
ENDROOT
BRANCH   1   4
ATOM      2  O   UNL     1      33.871  -6.864 -24.496  0.00  0.00    -0.425 OA
ATOM      3  N   UNL     1      33.116  -4.897 -23.661  0.00  0.00    -0.368 NA
ATOM      4  C   UNL     1      33.300  -8.320 -22.583  0.00  0.00    +0.014 C 
ATOM      5  C   UNL     1      33.362  -7.103 -23.252  0.00  0.00    +0.170 C 
ATOM      6  C   UNL     1      32.724  -8.281 -21.309  0.00  0.00    -0.005 C 
ATOM      7  C   UNL     1      32.900  -5.897 -22.744  0.00  0.00    +0.151 C 
ATOM      8  C   UNL     1      32.246  -7.085 -20.759  0.00  0.00    -0.019 C 
ATOM      9  C   UNL     1      32.325  -5.876 -21.466  0.00  0.00    +0.088 C 
ATOM     10  C   UNL     1      33.686  -5.525 -24.665  0.00  0.00    +0.282 C 
BRANCH  10  12
ATOM     11 CL   UNL     1      35.589  -3.354 -29.865  0.00  0.00    -0.082 Cl
ATOM     12  C   UNL     1      34.145  -5.000 -25.922  0.00  0.00    +0.066 C 
ATOM     13  C   UNL     1      35.512  -4.849 -26.156  0.00  0.00    +0.007 C 
ATOM     14  C   UNL     1      33.225  -4.643 -26.907  0.00  0.00    +0.007 C 
ATOM     15  C   UNL     1      35.958  -4.340 -27.375  0.00  0.00    +0.012 C 
ATOM     16  C   UNL     1      33.671  -4.134 -28.126  0.00  0.00    +0.012 C 
ATOM     17  C   UNL     1      35.038  -3.982 -28.361  0.00  0.00    +0.058 C 
ENDBRANCH  10  12
ENDBRANCH   1   4
BRANCH   1  18
ATOM     18  C   UNL     1      32.741 -10.711 -23.310  0.00  0.00    +0.023 C 
BRANCH  18  19
ATOM     19  C   UNL     1      33.020 -12.015 -22.516  0.00  0.00    +0.087 C 
BRANCH  19  20
ATOM     20  N   UNL     1      33.318 -13.203 -23.422  0.00  0.00    -0.246 NA
ATOM     21  N   UNL     1      33.521 -14.404 -25.279  0.00  0.00    -0.251 NA
ATOM     22  C   UNL     1      33.763 -14.431 -23.025  0.00  0.00    +0.125 C 
ATOM     23  C   UNL     1      33.187 -13.233 -24.782  0.00  0.00    +0.201 C 
ATOM     24  C   UNL     1      33.882 -15.156 -24.188  0.00  0.00    +0.124 C 
BRANCH  24  27
ATOM     25  O   UNL     1      33.767 -17.335 -25.074  0.00  0.00    -0.269 OA
ATOM     26  N   UNL     1      35.406 -16.935 -23.522  0.00  0.00    -0.324 N 
ATOM     27  C   UNL     1      34.316 -16.514 -24.298  0.00  0.00    +0.257 C 
ATOM     28  H   UNL     1      35.724 -17.865 -23.581  0.00  0.00    +0.145 HD
ATOM     29  H   UNL     1      35.855 -16.300 -22.918  0.00  0.00    +0.145 HD
ENDBRANCH  24  27
ENDBRANCH  19  20
BRANCH  19  30
ATOM     30  C   UNL     1      31.872 -12.294 -21.509  0.00  0.00    +0.125 C 
ATOM     31  C   UNL     1      30.914 -11.121 -21.326  0.00  0.00    +0.033 C 
BRANCH  30  32
ATOM     32  O   UNL     1      32.395 -12.677 -20.239  0.00  0.00    -0.383 OA
ATOM     33  H   UNL     1      32.355 -13.642 -20.151  0.00  0.00    +0.210 HD
ENDBRANCH  30  32
ENDBRANCH  19  30
ENDBRANCH  18  19
ENDBRANCH   1  18
TORSDOF 8
ENDMDL
