MODEL 1
REMARK VINA RESULT:     -12.5      0.000      0.000
REMARK  Name = 448889
REMARK  5 active torsions:
REMARK  status: ('A' for Active; 'I' for Inactive)
REMARK    1  A    between atoms: C_1  and  N_2
REMARK    2  A    between atoms: C_1  and  C_16
REMARK    3  A    between atoms: C_6  and  C_10
REMARK    4  A    between atoms: C_16  and  C_17
REMARK    5  A    between atoms: C_17  and  C_21
REMARK                            x       y       z     vdW  Elec       q    Type
REMARK                         _______ _______ _______ _____ _____    ______ ____
ROOT
ATOM      1  C   UNL     1      34.831 -16.393 -24.379  0.00  0.00    -0.076 C 
ENDROOT
BRANCH   1   2
ATOM      2  N   UNL     1      34.594 -17.252 -23.222  0.00  0.00    +0.390 N 
ATOM      3  C   UNL     1      35.762 -17.281 -22.336  0.00  0.00    -0.072 C 
ATOM      4  C   UNL     1      35.423 -18.054 -21.052  0.00  0.00    +0.003 C 
ATOM      5  C   UNL     1      34.232 -18.613 -23.649  0.00  0.00    -0.051 C 
ATOM      6  C   UNL     1      34.746 -19.379 -21.321  0.00  0.00    -0.031 C 
ATOM      7  C   UNL     1      34.204 -19.619 -22.530  0.00  0.00    -0.053 C 
ATOM      8  H   UNL     1      33.811 -16.862 -22.697  0.00  0.00    -0.079 HD
BRANCH   6  10
ATOM      9  F   UNL     1      34.560 -23.168 -17.181  0.00  0.00    -0.204 F 
ATOM     10  C   UNL     1      34.698 -20.379 -20.228  0.00  0.00    -0.004 C 
ATOM     11  C   UNL     1      35.882 -20.866 -19.669  0.00  0.00    +0.002 C 
ATOM     12  C   UNL     1      33.467 -20.838 -19.753  0.00  0.00    +0.002 C 
ATOM     13  C   UNL     1      35.836 -21.807 -18.640  0.00  0.00    +0.030 C 
ATOM     14  C   UNL     1      33.421 -21.778 -18.724  0.00  0.00    +0.030 C 
ATOM     15  C   UNL     1      34.605 -22.264 -18.168  0.00  0.00    +0.140 C 
ENDBRANCH   6  10
ENDBRANCH   1   2
BRANCH   1  16
ATOM     16  C   UNL     1      34.119 -15.050 -24.195  0.00  0.00    -0.014 C 
BRANCH  16  17
ATOM     17  C   UNL     1      34.215 -14.529 -22.770  0.00  0.00    +0.074 C 
BRANCH  17  21
ATOM     18  O   UNL     1      31.033 -11.554 -21.011  0.00  0.00    -0.209 OA
ATOM     19  N   UNL     1      34.164 -12.169 -23.439  0.00  0.00    -0.290 N 
ATOM     20  N   UNL     1      32.582 -13.010 -21.865  0.00  0.00    -0.322 NA
ATOM     21  C   UNL     1      33.597 -13.157 -22.667  0.00  0.00    +0.173 C 
ATOM     22  C   UNL     1      33.634 -10.878 -23.384  0.00  0.00    +0.058 C 
ATOM     23  C   UNL     1      32.540 -10.630 -22.544  0.00  0.00    +0.108 C 
ATOM     24  C   UNL     1      34.166  -9.832 -24.142  0.00  0.00    -0.008 C 
ATOM     25  C   UNL     1      31.993 -11.764 -21.746  0.00  0.00    +0.207 C 
ATOM     26  C   UNL     1      31.981  -9.352 -22.460  0.00  0.00    +0.014 C 
ATOM     27  C   UNL     1      33.610  -8.554 -24.061  0.00  0.00    -0.003 C 
ATOM     28  C   UNL     1      32.520  -8.316 -23.223  0.00  0.00    +0.001 C 
ATOM     29  C   UNL     1      35.332 -10.042 -25.053  0.00  0.00    +0.032 C 
ATOM     30  H   UNL     1      34.932 -12.369 -24.020  0.00  0.00    +0.154 HD
ENDBRANCH  17  21
ENDBRANCH  16  17
ENDBRANCH   1  16
TORSDOF 5
ENDMDL
MODEL 2
REMARK VINA RESULT:     -12.4      1.277      2.311
REMARK  Name = 448889
REMARK  5 active torsions:
REMARK  status: ('A' for Active; 'I' for Inactive)
REMARK    1  A    between atoms: C_1  and  N_2
REMARK    2  A    between atoms: C_1  and  C_16
REMARK    3  A    between atoms: C_6  and  C_10
REMARK    4  A    between atoms: C_16  and  C_17
REMARK    5  A    between atoms: C_17  and  C_21
REMARK                            x       y       z     vdW  Elec       q    Type
REMARK                         _______ _______ _______ _____ _____    ______ ____
ROOT
ATOM      1  C   UNL     1      34.942 -16.244 -24.364  0.00  0.00    -0.076 C 
ENDROOT
BRANCH   1   2
ATOM      2  N   UNL     1      34.655 -17.131 -23.239  0.00  0.00    +0.390 N 
ATOM      3  C   UNL     1      35.762 -17.139 -22.277  0.00  0.00    -0.072 C 
ATOM      4  C   UNL     1      35.363 -17.944 -21.030  0.00  0.00    +0.003 C 
ATOM      5  C   UNL     1      34.367 -18.495 -23.710  0.00  0.00    -0.051 C 
ATOM      6  C   UNL     1      34.748 -19.285 -21.364  0.00  0.00    -0.031 C 
ATOM      7  C   UNL     1      34.296 -19.520 -22.611  0.00  0.00    -0.053 C 
ATOM      8  H   UNL     1      33.827 -16.774 -22.762  0.00  0.00    -0.079 HD
BRANCH   6  10
ATOM      9  F   UNL     1      34.413 -23.147 -17.302  0.00  0.00    -0.204 F 
ATOM     10  C   UNL     1      34.659 -20.305 -20.292  0.00  0.00    -0.004 C 
ATOM     11  C   UNL     1      33.412 -20.748 -19.848  0.00  0.00    +0.002 C 
ATOM     12  C   UNL     1      35.823 -20.826 -19.723  0.00  0.00    +0.002 C 
ATOM     13  C   UNL     1      33.328 -21.708 -18.839  0.00  0.00    +0.030 C 
ATOM     14  C   UNL     1      35.739 -21.786 -18.714  0.00  0.00    +0.030 C 
ATOM     15  C   UNL     1      34.492 -22.226 -18.271  0.00  0.00    +0.140 C 
ENDBRANCH   6  10
ENDBRANCH   1   2
BRANCH   1  16
ATOM     16  C   UNL     1      33.833 -15.199 -24.509  0.00  0.00    -0.014 C 
BRANCH  16  17
ATOM     17  C   UNL     1      33.489 -14.527 -23.190  0.00  0.00    +0.074 C 
BRANCH  17  21
ATOM     18  O   UNL     1      34.684 -10.588 -25.456  0.00  0.00    -0.209 OA
ATOM     19  N   UNL     1      32.708 -12.327 -22.432  0.00  0.00    -0.290 N 
ATOM     20  N   UNL     1      34.105 -12.513 -24.355  0.00  0.00    -0.322 NA
ATOM     21  C   UNL     1      33.446 -13.028 -23.357  0.00  0.00    +0.173 C 
ATOM     22  C   UNL     1      32.632 -10.937 -22.537  0.00  0.00    +0.058 C 
ATOM     23  C   UNL     1      33.310 -10.299 -23.584  0.00  0.00    +0.108 C 
ATOM     24  C   UNL     1      31.897 -10.169 -21.629  0.00  0.00    -0.008 C 
ATOM     25  C   UNL     1      34.085 -11.142 -24.540  0.00  0.00    +0.207 C 
ATOM     26  C   UNL     1      33.258  -8.909 -23.726  0.00  0.00    +0.014 C 
ATOM     27  C   UNL     1      31.843  -8.781 -21.768  0.00  0.00    -0.003 C 
ATOM     28  C   UNL     1      32.523  -8.154 -22.812  0.00  0.00    +0.001 C 
ATOM     29  C   UNL     1      31.155 -10.800 -20.496  0.00  0.00    +0.032 C 
ATOM     30  H   UNL     1      32.241 -12.799 -21.706  0.00  0.00    +0.154 HD
ENDBRANCH  17  21
ENDBRANCH  16  17
ENDBRANCH   1  16
TORSDOF 5
ENDMDL
MODEL 3
REMARK VINA RESULT:     -12.2      1.160      1.926
REMARK  Name = 448889
REMARK  5 active torsions:
REMARK  status: ('A' for Active; 'I' for Inactive)
REMARK    1  A    between atoms: C_1  and  N_2
REMARK    2  A    between atoms: C_1  and  C_16
REMARK    3  A    between atoms: C_6  and  C_10
REMARK    4  A    between atoms: C_16  and  C_17
REMARK    5  A    between atoms: C_17  and  C_21
REMARK                            x       y       z     vdW  Elec       q    Type
REMARK                         _______ _______ _______ _____ _____    ______ ____
ROOT
ATOM      1  C   UNL     1      35.146 -16.101 -24.384  0.00  0.00    -0.076 C 
ENDROOT
BRANCH   1   2
ATOM      2  N   UNL     1      35.320 -17.212 -23.451  0.00  0.00    +0.390 N 
ATOM      3  C   UNL     1      34.279 -18.227 -23.637  0.00  0.00    -0.072 C 
ATOM      4  C   UNL     1      34.584 -19.453 -22.763  0.00  0.00    +0.003 C 
ATOM      5  C   UNL     1      35.332 -16.729 -22.061  0.00  0.00    -0.051 C 
ATOM      6  C   UNL     1      34.926 -19.091 -21.335  0.00  0.00    -0.031 C 
ATOM      7  C   UNL     1      35.267 -17.824 -21.031  0.00  0.00    -0.053 C 
ATOM      8  H   UNL     1      36.222 -17.647 -23.647  0.00  0.00    -0.079 HD
BRANCH   6  10
ATOM      9  F   UNL     1      34.748 -23.136 -17.445  0.00  0.00    -0.204 F 
ATOM     10  C   UNL     1      34.880 -20.159 -20.308  0.00  0.00    -0.004 C 
ATOM     11  C   UNL     1      36.063 -20.648 -19.751  0.00  0.00    +0.002 C 
ATOM     12  C   UNL     1      33.651 -20.678 -19.894  0.00  0.00    +0.002 C 
ATOM     13  C   UNL     1      36.019 -21.653 -18.784  0.00  0.00    +0.030 C 
ATOM     14  C   UNL     1      33.607 -21.683 -18.927  0.00  0.00    +0.030 C 
ATOM     15  C   UNL     1      34.791 -22.171 -18.373  0.00  0.00    +0.140 C 
ENDBRANCH   6  10
ENDBRANCH   1   2
BRANCH   1  16
ATOM     16  C   UNL     1      33.768 -15.463 -24.194  0.00  0.00    -0.014 C 
BRANCH  16  17
ATOM     17  C   UNL     1      33.788 -13.958 -24.408  0.00  0.00    +0.074 C 
BRANCH  17  21
ATOM     18  O   UNL     1      32.298 -13.942 -19.953  0.00  0.00    -0.209 OA
ATOM     19  N   UNL     1      33.032 -11.893 -23.319  0.00  0.00    -0.290 N 
ATOM     20  N   UNL     1      33.026 -13.956 -22.126  0.00  0.00    -0.322 NA
ATOM     21  C   UNL     1      33.248 -13.245 -23.193  0.00  0.00    +0.173 C 
ATOM     22  C   UNL     1      32.533 -11.180 -22.227  0.00  0.00    +0.058 C 
ATOM     23  C   UNL     1      32.267 -11.867 -21.035  0.00  0.00    +0.108 C 
ATOM     24  C   UNL     1      32.295  -9.805 -22.292  0.00  0.00    -0.008 C 
ATOM     25  C   UNL     1      32.531 -13.334 -20.992  0.00  0.00    +0.207 C 
ATOM     26  C   UNL     1      31.767 -11.191 -19.918  0.00  0.00    +0.014 C 
ATOM     27  C   UNL     1      31.795  -9.127 -21.178  0.00  0.00    -0.003 C 
ATOM     28  C   UNL     1      31.532  -9.819 -19.996  0.00  0.00    +0.001 C 
ATOM     29  C   UNL     1      32.562  -9.025 -23.538  0.00  0.00    +0.032 C 
ATOM     30  H   UNL     1      33.227 -11.434 -24.167  0.00  0.00    +0.154 HD
ENDBRANCH  17  21
ENDBRANCH  16  17
ENDBRANCH   1  16
TORSDOF 5
ENDMDL
MODEL 4
REMARK VINA RESULT:     -12.0      1.414      2.591
REMARK  Name = 448889
REMARK  5 active torsions:
REMARK  status: ('A' for Active; 'I' for Inactive)
REMARK    1  A    between atoms: C_1  and  N_2
REMARK    2  A    between atoms: C_1  and  C_16
REMARK    3  A    between atoms: C_6  and  C_10
REMARK    4  A    between atoms: C_16  and  C_17
REMARK    5  A    between atoms: C_17  and  C_21
REMARK                            x       y       z     vdW  Elec       q    Type
REMARK                         _______ _______ _______ _____ _____    ______ ____
ROOT
ATOM      1  C   UNL     1      35.091 -16.044 -24.271  0.00  0.00    -0.076 C 
ENDROOT
BRANCH   1   2
ATOM      2  N   UNL     1      35.271 -17.174 -23.362  0.00  0.00    +0.390 N 
ATOM      3  C   UNL     1      34.224 -18.182 -23.557  0.00  0.00    -0.072 C 
ATOM      4  C   UNL     1      34.535 -19.426 -22.712  0.00  0.00    +0.003 C 
ATOM      5  C   UNL     1      35.299 -16.718 -21.963  0.00  0.00    -0.051 C 
ATOM      6  C   UNL     1      34.894 -19.094 -21.281  0.00  0.00    -0.031 C 
ATOM      7  C   UNL     1      35.242 -17.834 -20.955  0.00  0.00    -0.053 C 
ATOM      8  H   UNL     1      36.169 -17.607 -23.577  0.00  0.00    -0.079 HD
BRANCH   6  10
ATOM      9  F   UNL     1      34.749 -23.213 -17.468  0.00  0.00    -0.204 F 
ATOM     10  C   UNL     1      34.855 -20.182 -20.275  0.00  0.00    -0.004 C 
ATOM     11  C   UNL     1      33.632 -20.724 -19.874  0.00  0.00    +0.002 C 
ATOM     12  C   UNL     1      36.042 -20.668 -19.724  0.00  0.00    +0.002 C 
ATOM     13  C   UNL     1      33.595 -21.748 -18.928  0.00  0.00    +0.030 C 
ATOM     14  C   UNL     1      36.006 -21.692 -18.777  0.00  0.00    +0.030 C 
ATOM     15  C   UNL     1      34.783 -22.231 -18.378  0.00  0.00    +0.140 C 
ENDBRANCH   6  10
ENDBRANCH   1   2
BRANCH   1  16
ATOM     16  C   UNL     1      34.570 -14.826 -23.503  0.00  0.00    -0.014 C 
BRANCH  16  17
ATOM     17  C   UNL     1      33.437 -14.119 -24.229  0.00  0.00    +0.074 C 
BRANCH  17  21
ATOM     18  O   UNL     1      35.144  -9.857 -25.223  0.00  0.00    -0.209 OA
ATOM     19  N   UNL     1      32.704 -12.128 -22.997  0.00  0.00    -0.290 N 
ATOM     20  N   UNL     1      34.316 -11.939 -24.743  0.00  0.00    -0.322 NA
ATOM     21  C   UNL     1      33.507 -12.631 -23.994  0.00  0.00    +0.173 C 
ATOM     22  C   UNL     1      32.726 -10.757 -22.734  0.00  0.00    +0.058 C 
ATOM     23  C   UNL     1      33.568  -9.935 -23.495  0.00  0.00    +0.108 C 
ATOM     24  C   UNL     1      31.932 -10.186 -21.735  0.00  0.00    -0.008 C 
ATOM     25  C   UNL     1      34.403 -10.570 -24.555  0.00  0.00    +0.207 C 
ATOM     26  C   UNL     1      33.619  -8.558 -23.265  0.00  0.00    +0.014 C 
ATOM     27  C   UNL     1      31.981  -8.810 -21.502  0.00  0.00    -0.003 C 
ATOM     28  C   UNL     1      32.823  -8.000 -22.264  0.00  0.00    +0.001 C 
ATOM     29  C   UNL     1      31.017 -11.017 -20.896  0.00  0.00    +0.032 C 
ATOM     30  H   UNL     1      32.121 -12.727 -22.476  0.00  0.00    +0.154 HD
ENDBRANCH  17  21
ENDBRANCH  16  17
ENDBRANCH   1  16
TORSDOF 5
ENDMDL
MODEL 5
REMARK VINA RESULT:     -11.9      4.095     10.530
REMARK  Name = 448889
REMARK  5 active torsions:
REMARK  status: ('A' for Active; 'I' for Inactive)
REMARK    1  A    between atoms: C_1  and  N_2
REMARK    2  A    between atoms: C_1  and  C_16
REMARK    3  A    between atoms: C_6  and  C_10
REMARK    4  A    between atoms: C_16  and  C_17
REMARK    5  A    between atoms: C_17  and  C_21
REMARK                            x       y       z     vdW  Elec       q    Type
REMARK                         _______ _______ _______ _____ _____    ______ ____
ROOT
ATOM      1  C   UNL     1      36.074 -18.263 -22.398  0.00  0.00    -0.076 C 
ENDROOT
BRANCH   1   2
ATOM      2  N   UNL     1      35.653 -16.864 -22.418  0.00  0.00    +0.390 N 
ATOM      3  C   UNL     1      34.940 -16.509 -21.187  0.00  0.00    -0.072 C 
ATOM      4  C   UNL     1      34.659 -14.999 -21.164  0.00  0.00    +0.003 C 
ATOM      5  C   UNL     1      34.821 -16.587 -23.599  0.00  0.00    -0.051 C 
ATOM      6  C   UNL     1      34.068 -14.488 -22.459  0.00  0.00    -0.031 C 
ATOM      7  C   UNL     1      34.151 -15.240 -23.574  0.00  0.00    -0.053 C 
ATOM      8  H   UNL     1      36.492 -16.286 -22.473  0.00  0.00    -0.079 HD
BRANCH   6  10
ATOM      9  F   UNL     1      31.590  -9.450 -22.449  0.00  0.00    -0.204 F 
ATOM     10  C   UNL     1      33.414 -13.158 -22.457  0.00  0.00    -0.004 C 
ATOM     11  C   UNL     1      33.811 -12.180 -23.371  0.00  0.00    +0.002 C 
ATOM     12  C   UNL     1      32.397 -12.879 -21.541  0.00  0.00    +0.002 C 
ATOM     13  C   UNL     1      33.195 -10.928 -23.370  0.00  0.00    +0.030 C 
ATOM     14  C   UNL     1      31.781 -11.627 -21.539  0.00  0.00    +0.030 C 
ATOM     15  C   UNL     1      32.180 -10.652 -22.452  0.00  0.00    +0.140 C 
ENDBRANCH   6  10
ENDBRANCH   1   2
BRANCH   1  16
ATOM     16  C   UNL     1      35.421 -18.995 -21.222  0.00  0.00    -0.014 C 
BRANCH  16  17
ATOM     17  C   UNL     1      36.392 -19.910 -20.494  0.00  0.00    +0.074 C 
BRANCH  17  21
ATOM     18  O   UNL     1      32.548 -22.246 -19.138  0.00  0.00    -0.209 OA
ATOM     19  N   UNL     1      36.351 -21.208 -18.411  0.00  0.00    -0.290 N 
ATOM     20  N   UNL     1      34.420 -21.104 -19.805  0.00  0.00    -0.322 NA
ATOM     21  C   UNL     1      35.653 -20.797 -19.523  0.00  0.00    +0.173 C 
ATOM     22  C   UNL     1      35.718 -22.030 -17.478  0.00  0.00    +0.058 C 
ATOM     23  C   UNL     1      34.389 -22.413 -17.703  0.00  0.00    +0.108 C 
ATOM     24  C   UNL     1      36.375 -22.482 -16.330  0.00  0.00    -0.008 C 
ATOM     25  C   UNL     1      33.712 -21.918 -18.937  0.00  0.00    +0.207 C 
ATOM     26  C   UNL     1      33.719 -23.236 -16.794  0.00  0.00    +0.014 C 
ATOM     27  C   UNL     1      35.708 -23.305 -15.419  0.00  0.00    -0.003 C 
ATOM     28  C   UNL     1      34.385 -23.679 -15.651  0.00  0.00    +0.001 C 
ATOM     29  C   UNL     1      37.792 -22.105 -16.042  0.00  0.00    +0.032 C 
ATOM     30  H   UNL     1      37.284 -20.925 -18.276  0.00  0.00    +0.154 HD
ENDBRANCH  17  21
ENDBRANCH  16  17
ENDBRANCH   1  16
TORSDOF 5
ENDMDL
MODEL 6
REMARK VINA RESULT:     -11.7      6.022     11.581
REMARK  Name = 448889
REMARK  5 active torsions:
REMARK  status: ('A' for Active; 'I' for Inactive)
REMARK    1  A    between atoms: C_1  and  N_2
REMARK    2  A    between atoms: C_1  and  C_16
REMARK    3  A    between atoms: C_6  and  C_10
REMARK    4  A    between atoms: C_16  and  C_17
REMARK    5  A    between atoms: C_17  and  C_21
REMARK                            x       y       z     vdW  Elec       q    Type
REMARK                         _______ _______ _______ _____ _____    ______ ____
ROOT
ATOM      1  C   UNL     1      36.609 -22.025 -17.774  0.00  0.00    -0.076 C 
ENDROOT
BRANCH   1   2
ATOM      2  N   UNL     1      36.152 -20.960 -18.664  0.00  0.00    +0.390 N 
ATOM      3  C   UNL     1      35.070 -21.427 -19.536  0.00  0.00    -0.072 C 
ATOM      4  C   UNL     1      34.500 -20.247 -20.337  0.00  0.00    +0.003 C 
ATOM      5  C   UNL     1      37.271 -20.432 -19.461  0.00  0.00    -0.051 C 
ATOM      6  C   UNL     1      35.573 -19.400 -20.986  0.00  0.00    -0.031 C 
ATOM      7  C   UNL     1      36.849 -19.502 -20.567  0.00  0.00    -0.053 C 
ATOM      8  H   UNL     1      35.786 -20.205 -18.085  0.00  0.00    -0.079 HD
BRANCH   6  10
ATOM      9  F   UNL     1      34.065 -15.879 -25.091  0.00  0.00    -0.204 F 
ATOM     10  C   UNL     1      35.175 -18.470 -22.069  0.00  0.00    -0.004 C 
ATOM     11  C   UNL     1      35.396 -17.098 -21.932  0.00  0.00    +0.002 C 
ATOM     12  C   UNL     1      34.579 -18.963 -23.232  0.00  0.00    +0.002 C 
ATOM     13  C   UNL     1      35.022 -16.222 -22.952  0.00  0.00    +0.030 C 
ATOM     14  C   UNL     1      34.205 -18.088 -24.252  0.00  0.00    +0.030 C 
ATOM     15  C   UNL     1      34.426 -16.718 -24.112  0.00  0.00    +0.140 C 
ENDBRANCH   6  10
ENDBRANCH   1   2
BRANCH   1  16
ATOM     16  C   UNL     1      36.843 -21.474 -16.366  0.00  0.00    -0.014 C 
BRANCH  16  17
ATOM     17  C   UNL     1      37.149 -22.568 -15.355  0.00  0.00    +0.074 C 
BRANCH  17  21
ATOM     18  O   UNL     1      34.788 -24.550 -11.810  0.00  0.00    -0.209 OA
ATOM     19  N   UNL     1      34.736 -22.987 -15.501  0.00  0.00    -0.290 N 
ATOM     20  N   UNL     1      35.946 -23.584 -13.536  0.00  0.00    -0.322 NA
ATOM     21  C   UNL     1      35.874 -23.085 -14.736  0.00  0.00    +0.173 C 
ATOM     22  C   UNL     1      33.526 -23.449 -14.980  0.00  0.00    +0.058 C 
ATOM     23  C   UNL     1      33.510 -24.001 -13.692  0.00  0.00    +0.108 C 
ATOM     24  C   UNL     1      32.335 -23.375 -15.707  0.00  0.00    -0.008 C 
ATOM     25  C   UNL     1      34.795 -24.066 -12.937  0.00  0.00    +0.207 C 
ATOM     26  C   UNL     1      32.320 -24.474 -13.133  0.00  0.00    +0.014 C 
ATOM     27  C   UNL     1      31.144 -23.848 -15.152  0.00  0.00    -0.003 C 
ATOM     28  C   UNL     1      31.138 -24.396 -13.869  0.00  0.00    +0.001 C 
ATOM     29  C   UNL     1      32.296 -22.796 -17.084  0.00  0.00    +0.032 C 
ATOM     30  H   UNL     1      34.774 -22.595 -16.403  0.00  0.00    +0.154 HD
ENDBRANCH  17  21
ENDBRANCH  16  17
ENDBRANCH   1  16
TORSDOF 5
ENDMDL
MODEL 7
REMARK VINA RESULT:     -11.6      3.337      6.100
REMARK  Name = 448889
REMARK  5 active torsions:
REMARK  status: ('A' for Active; 'I' for Inactive)
REMARK    1  A    between atoms: C_1  and  N_2
REMARK    2  A    between atoms: C_1  and  C_16
REMARK    3  A    between atoms: C_6  and  C_10
REMARK    4  A    between atoms: C_16  and  C_17
REMARK    5  A    between atoms: C_17  and  C_21
REMARK                            x       y       z     vdW  Elec       q    Type
REMARK                         _______ _______ _______ _____ _____    ______ ____
ROOT
ATOM      1  C   UNL     1      36.132 -21.234 -20.009  0.00  0.00    -0.076 C 
ENDROOT
BRANCH   1   2
ATOM      2  N   UNL     1      35.358 -22.030 -19.060  0.00  0.00    +0.390 N 
ATOM      3  C   UNL     1      33.980 -21.541 -18.959  0.00  0.00    -0.072 C 
ATOM      4  C   UNL     1      33.151 -22.495 -18.086  0.00  0.00    +0.003 C 
ATOM      5  C   UNL     1      36.005 -22.038 -17.738  0.00  0.00    -0.051 C 
ATOM      6  C   UNL     1      33.837 -22.855 -16.787  0.00  0.00    -0.031 C 
ATOM      7  C   UNL     1      35.158 -22.633 -16.645  0.00  0.00    -0.053 C 
ATOM      8  H   UNL     1      35.327 -22.989 -19.408  0.00  0.00    -0.079 HD
BRANCH   6  10
ATOM      9  F   UNL     1      30.752 -25.117 -12.677  0.00  0.00    -0.204 F 
ATOM     10  C   UNL     1      33.022 -23.452 -15.703  0.00  0.00    -0.004 C 
ATOM     11  C   UNL     1      31.633 -23.523 -15.827  0.00  0.00    +0.002 C 
ATOM     12  C   UNL     1      33.641 -23.947 -14.553  0.00  0.00    +0.002 C 
ATOM     13  C   UNL     1      30.866 -24.086 -14.806  0.00  0.00    +0.030 C 
ATOM     14  C   UNL     1      32.874 -24.509 -13.532  0.00  0.00    +0.030 C 
ATOM     15  C   UNL     1      31.487 -24.578 -13.658  0.00  0.00    +0.140 C 
ENDBRANCH   6  10
ENDBRANCH   1   2
BRANCH   1  16
ATOM     16  C   UNL     1      35.304 -20.042 -20.498  0.00  0.00    -0.014 C 
BRANCH  16  17
ATOM     17  C   UNL     1      36.148 -18.795 -20.711  0.00  0.00    +0.074 C 
BRANCH  17  21
ATOM     18  O   UNL     1      34.470 -18.036 -25.033  0.00  0.00    -0.209 OA
ATOM     19  N   UNL     1      35.231 -16.614 -21.362  0.00  0.00    -0.290 N 
ATOM     20  N   UNL     1      35.290 -18.413 -22.926  0.00  0.00    -0.322 NA
ATOM     21  C   UNL     1      35.516 -17.903 -21.750  0.00  0.00    +0.173 C 
ATOM     22  C   UNL     1      34.645 -15.743 -22.283  0.00  0.00    +0.058 C 
ATOM     23  C   UNL     1      34.365 -16.209 -23.574  0.00  0.00    +0.108 C 
ATOM     24  C   UNL     1      34.330 -14.423 -21.949  0.00  0.00    -0.008 C 
ATOM     25  C   UNL     1      34.710 -17.623 -23.903  0.00  0.00    +0.207 C 
ATOM     26  C   UNL     1      33.778 -15.370 -24.525  0.00  0.00    +0.014 C 
ATOM     27  C   UNL     1      33.744 -13.581 -22.896  0.00  0.00    -0.003 C 
ATOM     28  C   UNL     1      33.470 -14.054 -24.180  0.00  0.00    +0.001 C 
ATOM     29  C   UNL     1      34.607 -13.875 -20.586  0.00  0.00    +0.032 C 
ATOM     30  H   UNL     1      35.437 -16.311 -20.449  0.00  0.00    +0.154 HD
ENDBRANCH  17  21
ENDBRANCH  16  17
ENDBRANCH   1  16
TORSDOF 5
ENDMDL
MODEL 8
REMARK VINA RESULT:     -11.5      5.124     11.281
REMARK  Name = 448889
REMARK  5 active torsions:
REMARK  status: ('A' for Active; 'I' for Inactive)
REMARK    1  A    between atoms: C_1  and  N_2
REMARK    2  A    between atoms: C_1  and  C_16
REMARK    3  A    between atoms: C_6  and  C_10
REMARK    4  A    between atoms: C_16  and  C_17
REMARK    5  A    between atoms: C_17  and  C_21
REMARK                            x       y       z     vdW  Elec       q    Type
REMARK                         _______ _______ _______ _____ _____    ______ ____
ROOT
ATOM      1  C   UNL     1      36.513 -21.585 -18.888  0.00  0.00    -0.076 C 
ENDROOT
BRANCH   1   2
ATOM      2  N   UNL     1      36.009 -20.407 -19.589  0.00  0.00    +0.390 N 
ATOM      3  C   UNL     1      35.008 -20.779 -20.594  0.00  0.00    -0.072 C 
ATOM      4  C   UNL     1      34.377 -19.513 -21.194  0.00  0.00    +0.003 C 
ATOM      5  C   UNL     1      37.113 -19.657 -20.209  0.00  0.00    -0.051 C 
ATOM      6  C   UNL     1      35.402 -18.483 -21.612  0.00  0.00    -0.031 C 
ATOM      7  C   UNL     1      36.663 -18.569 -21.146  0.00  0.00    -0.053 C 
ATOM      8  H   UNL     1      35.556 -19.804 -18.903  0.00  0.00    -0.079 HD
BRANCH   6  10
ATOM      9  F   UNL     1      33.791 -14.364 -25.071  0.00  0.00    -0.204 F 
ATOM     10  C   UNL     1      34.976 -17.396 -22.525  0.00  0.00    -0.004 C 
ATOM     11  C   UNL     1      34.576 -17.693 -23.830  0.00  0.00    +0.002 C 
ATOM     12  C   UNL     1      34.974 -16.071 -22.083  0.00  0.00    +0.002 C 
ATOM     13  C   UNL     1      34.175 -16.669 -24.689  0.00  0.00    +0.030 C 
ATOM     14  C   UNL     1      34.573 -15.048 -22.943  0.00  0.00    +0.030 C 
ATOM     15  C   UNL     1      34.174 -15.347 -24.246  0.00  0.00    +0.140 C 
ENDBRANCH   6  10
ENDBRANCH   1   2
BRANCH   1  16
ATOM     16  C   UNL     1      35.516 -22.029 -17.814  0.00  0.00    -0.014 C 
BRANCH  16  17
ATOM     17  C   UNL     1      34.190 -22.484 -18.402  0.00  0.00    +0.074 C 
BRANCH  17  21
ATOM     18  O   UNL     1      29.829 -22.561 -16.657  0.00  0.00    -0.209 OA
ATOM     19  N   UNL     1      33.725 -23.365 -16.159  0.00  0.00    -0.290 N 
ATOM     20  N   UNL     1      31.954 -22.520 -17.514  0.00  0.00    -0.322 NA
ATOM     21  C   UNL     1      33.207 -22.802 -17.302  0.00  0.00    +0.173 C 
ATOM     22  C   UNL     1      32.862 -23.681 -15.108  0.00  0.00    +0.058 C 
ATOM     23  C   UNL     1      31.494 -23.413 -15.251  0.00  0.00    +0.108 C 
ATOM     24  C   UNL     1      33.326 -24.257 -13.922  0.00  0.00    -0.008 C 
ATOM     25  C   UNL     1      31.025 -22.800 -16.527  0.00  0.00    +0.207 C 
ATOM     26  C   UNL     1      30.596 -23.715 -14.223  0.00  0.00    +0.014 C 
ATOM     27  C   UNL     1      32.433 -24.559 -12.893  0.00  0.00    -0.003 C 
ATOM     28  C   UNL     1      31.073 -24.288 -13.043  0.00  0.00    +0.001 C 
ATOM     29  C   UNL     1      34.775 -24.563 -13.719  0.00  0.00    +0.032 C 
ATOM     30  H   UNL     1      34.690 -23.544 -16.084  0.00  0.00    +0.154 HD
ENDBRANCH  17  21
ENDBRANCH  16  17
ENDBRANCH   1  16
TORSDOF 5
ENDMDL
MODEL 9
REMARK VINA RESULT:     -11.5      1.774      2.891
REMARK  Name = 448889
REMARK  5 active torsions:
REMARK  status: ('A' for Active; 'I' for Inactive)
REMARK    1  A    between atoms: C_1  and  N_2
REMARK    2  A    between atoms: C_1  and  C_16
REMARK    3  A    between atoms: C_6  and  C_10
REMARK    4  A    between atoms: C_16  and  C_17
REMARK    5  A    between atoms: C_17  and  C_21
REMARK                            x       y       z     vdW  Elec       q    Type
REMARK                         _______ _______ _______ _____ _____    ______ ____
ROOT
ATOM      1  C   UNL     1      33.681 -13.968 -24.405  0.00  0.00    -0.076 C 
ENDROOT
BRANCH   1   2
ATOM      2  N   UNL     1      33.881 -15.145 -23.564  0.00  0.00    +0.390 N 
ATOM      3  C   UNL     1      34.686 -14.821 -22.382  0.00  0.00    -0.072 C 
ATOM      4  C   UNL     1      34.737 -16.032 -21.438  0.00  0.00    +0.003 C 
ATOM      5  C   UNL     1      34.504 -16.235 -24.333  0.00  0.00    -0.051 C 
ATOM      6  C   UNL     1      35.074 -17.323 -22.150  0.00  0.00    -0.031 C 
ATOM      7  C   UNL     1      34.961 -17.395 -23.490  0.00  0.00    -0.053 C 
ATOM      8  H   UNL     1      32.966 -15.461 -23.244  0.00  0.00    -0.079 HD
BRANCH   6  10
ATOM      9  F   UNL     1      36.749 -21.707 -19.067  0.00  0.00    -0.204 F 
ATOM     10  C   UNL     1      35.515 -18.481 -21.337  0.00  0.00    -0.004 C 
ATOM     11  C   UNL     1      34.601 -19.470 -20.971  0.00  0.00    +0.002 C 
ATOM     12  C   UNL     1      36.848 -18.585 -20.934  0.00  0.00    +0.002 C 
ATOM     13  C   UNL     1      35.017 -20.560 -20.205  0.00  0.00    +0.030 C 
ATOM     14  C   UNL     1      37.264 -19.675 -20.169  0.00  0.00    +0.030 C 
ATOM     15  C   UNL     1      36.349 -20.662 -19.803  0.00  0.00    +0.140 C 
ENDBRANCH   6  10
ENDBRANCH   1   2
BRANCH   1  16
ATOM     16  C   UNL     1      33.952 -12.692 -23.602  0.00  0.00    -0.014 C 
BRANCH  16  17
ATOM     17  C   UNL     1      33.673 -11.430 -24.402  0.00  0.00    +0.074 C 
BRANCH  17  21
ATOM     18  O   UNL     1      31.241  -9.927 -20.673  0.00  0.00    -0.209 OA
ATOM     19  N   UNL     1      33.579  -9.050 -23.810  0.00  0.00    -0.290 N 
ATOM     20  N   UNL     1      32.426 -10.666 -22.491  0.00  0.00    -0.322 NA
ATOM     21  C   UNL     1      33.182 -10.329 -23.495  0.00  0.00    +0.173 C 
ATOM     22  C   UNL     1      33.155  -7.991 -23.006  0.00  0.00    +0.058 C 
ATOM     23  C   UNL     1      32.338  -8.264 -21.900  0.00  0.00    +0.108 C 
ATOM     24  C   UNL     1      33.526  -6.670 -23.273  0.00  0.00    -0.008 C 
ATOM     25  C   UNL     1      31.959  -9.682 -21.638  0.00  0.00    +0.207 C 
ATOM     26  C   UNL     1      31.893  -7.232 -21.069  0.00  0.00    +0.014 C 
ATOM     27  C   UNL     1      33.083  -5.636 -22.445  0.00  0.00    -0.003 C 
ATOM     28  C   UNL     1      32.269  -5.917 -21.347  0.00  0.00    +0.001 C 
ATOM     29  C   UNL     1      34.396  -6.324 -24.437  0.00  0.00    +0.032 C 
ATOM     30  H   UNL     1      34.153  -8.885 -24.592  0.00  0.00    +0.154 HD
ENDBRANCH  17  21
ENDBRANCH  16  17
ENDBRANCH   1  16
TORSDOF 5
ENDMDL
