MODEL 1
REMARK VINA RESULT:     -11.4      0.000      0.000
REMARK  Name = 24941248
REMARK  7 active torsions:
REMARK  status: ('A' for Active; 'I' for Inactive)
REMARK    1  A    between atoms: N_2  and  C_24
REMARK    2  A    between atoms: C_6  and  C_14
REMARK    3  A    between atoms: C_13  and  C_19
REMARK    4  A    between atoms: C_19  and  C_20
REMARK    5  A    between atoms: C_20  and  C_21
REMARK    6  A    between atoms: C_21  and  O_22
REMARK    7  A    between atoms: C_24  and  C_26
REMARK                            x       y       z     vdW  Elec       q    Type
REMARK                         _______ _______ _______ _____ _____    ______ ____
ROOT
ATOM      1  O   UNL     1      33.736 -15.760 -25.744  0.00  0.00    -0.352 OA
ATOM      2  N   UNL     1      35.723 -17.678 -21.070  0.00  0.00    -0.316 N 
ATOM      3  N   UNL     1      33.352 -14.466 -25.415  0.00  0.00    -0.077 NA
ATOM      4  N   UNL     1      35.238 -18.076 -23.367  0.00  0.00    -0.226 NA
ATOM      5  C   UNL     1      34.233 -15.491 -23.576  0.00  0.00    +0.062 A 
ATOM      6  C   UNL     1      33.656 -14.326 -24.120  0.00  0.00    +0.123 A 
ATOM      7  C   UNL     1      35.214 -17.220 -22.313  0.00  0.00    +0.129 C 
ATOM      8  C   UNL     1      34.728 -15.916 -22.342  0.00  0.00    +0.039 C 
ATOM      9  C   UNL     1      34.260 -16.367 -24.646  0.00  0.00    +0.196 A 
ATOM     10  C   UNL     1      34.756 -17.654 -24.562  0.00  0.00    +0.140 C 
ATOM     11  H   UNL     1      35.712 -17.066 -20.299  0.00  0.00    +0.148 HD
ENDROOT
BRANCH   6  14
ATOM     12 CL   UNL     1      34.258  -9.210 -23.915  0.00  0.00    -0.082 Cl
ATOM     13  C   UNL     1      32.362 -11.880 -21.617  0.00  0.00    -0.021 C 
ATOM     14  C   UNL     1      33.388 -13.086 -23.441  0.00  0.00    +0.021 C 
ATOM     15  C   UNL     1      32.622 -13.081 -22.275  0.00  0.00    -0.003 C 
ATOM     16  C   UNL     1      32.868 -10.682 -22.124  0.00  0.00    +0.007 C 
ATOM     17  C   UNL     1      33.894 -11.889 -23.948  0.00  0.00    +0.013 C 
ATOM     18  C   UNL     1      33.633 -10.687 -23.290  0.00  0.00    +0.057 C 
BRANCH  13  19
ATOM     19  C   UNL     1      31.542 -11.874 -20.371  0.00  0.00    +0.029 C 
BRANCH  19  20
ATOM     20  C   UNL     1      31.229 -10.452 -19.887  0.00  0.00    +0.036 C 
BRANCH  20  21
ATOM     21  C   UNL     1      32.013 -10.087 -18.635  0.00  0.00    +0.138 C 
BRANCH  21  22
ATOM     22  O   UNL     1      32.770  -8.912 -18.893  0.00  0.00    -0.382 OA
ATOM     23  H   UNL     1      32.564  -8.584 -19.783  0.00  0.00    +0.210 HD
ENDBRANCH  21  22
ENDBRANCH  20  21
ENDBRANCH  19  20
ENDBRANCH  13  19
ENDBRANCH   6  14
BRANCH   2  24
ATOM     24  C   UNL     1      36.251 -18.991 -20.892  0.00  0.00    +0.093 C 
ATOM     25  C   UNL     1      37.512 -18.920 -20.034  0.00  0.00    +0.026 C 
BRANCH  24  26
ATOM     26  C   UNL     1      35.193 -19.906 -20.316  0.00  0.00    -0.005 C 
ATOM     27  C   UNL     1      35.557 -20.926 -19.438  0.00  0.00    -0.003 C 
ATOM     28  C   UNL     1      33.854 -19.730 -20.663  0.00  0.00    -0.003 C 
ATOM     29  C   UNL     1      34.581 -21.771 -18.906  0.00  0.00    -0.000 C 
ATOM     30  C   UNL     1      32.879 -20.574 -20.132  0.00  0.00    -0.000 C 
ATOM     31  C   UNL     1      33.242 -21.594 -19.253  0.00  0.00    -0.000 C 
ENDBRANCH  24  26
ENDBRANCH   2  24
TORSDOF 7
ENDMDL
MODEL 2
REMARK VINA RESULT:     -11.2      1.537      2.312
REMARK  Name = 24941248
REMARK  7 active torsions:
REMARK  status: ('A' for Active; 'I' for Inactive)
REMARK    1  A    between atoms: N_2  and  C_24
REMARK    2  A    between atoms: C_6  and  C_14
REMARK    3  A    between atoms: C_13  and  C_19
REMARK    4  A    between atoms: C_19  and  C_20
REMARK    5  A    between atoms: C_20  and  C_21
REMARK    6  A    between atoms: C_21  and  O_22
REMARK    7  A    between atoms: C_24  and  C_26
REMARK                            x       y       z     vdW  Elec       q    Type
REMARK                         _______ _______ _______ _____ _____    ______ ____
ROOT
ATOM      1  O   UNL     1      33.750 -15.431 -25.695  0.00  0.00    -0.352 OA
ATOM      2  N   UNL     1      35.624 -17.634 -21.100  0.00  0.00    -0.316 N 
ATOM      3  N   UNL     1      33.318 -14.175 -25.287  0.00  0.00    -0.077 NA
ATOM      4  N   UNL     1      35.233 -17.875 -23.436  0.00  0.00    -0.226 NA
ATOM      5  C   UNL     1      34.162 -15.308 -23.495  0.00  0.00    +0.062 A 
ATOM      6  C   UNL     1      33.572 -14.122 -23.976  0.00  0.00    +0.123 A 
ATOM      7  C   UNL     1      35.147 -17.099 -22.325  0.00  0.00    +0.129 C 
ATOM      8  C   UNL     1      34.625 -15.809 -22.278  0.00  0.00    +0.039 C 
ATOM      9  C   UNL     1      34.252 -16.103 -24.624  0.00  0.00    +0.196 A 
ATOM     10  C   UNL     1      34.782 -17.379 -24.614  0.00  0.00    +0.140 C 
ATOM     11  H   UNL     1      35.568 -17.080 -20.287  0.00  0.00    +0.148 HD
ENDROOT
BRANCH   6  14
ATOM     12 CL   UNL     1      31.867 -12.064 -19.567  0.00  0.00    -0.082 Cl
ATOM     13  C   UNL     1      33.086 -10.538 -23.058  0.00  0.00    -0.021 C 
ATOM     14  C   UNL     1      33.244 -12.943 -23.219  0.00  0.00    +0.021 C 
ATOM     15  C   UNL     1      33.402 -11.681 -23.791  0.00  0.00    -0.003 C 
ATOM     16  C   UNL     1      32.611 -10.656 -21.751  0.00  0.00    +0.007 C 
ATOM     17  C   UNL     1      32.769 -13.061 -21.912  0.00  0.00    +0.013 C 
ATOM     18  C   UNL     1      32.453 -11.918 -21.179  0.00  0.00    +0.057 C 
BRANCH  13  19
ATOM     19  C   UNL     1      33.256  -9.188 -23.669  0.00  0.00    +0.029 C 
BRANCH  19  20
ATOM     20  C   UNL     1      34.715  -8.716 -23.640  0.00  0.00    +0.036 C 
BRANCH  20  21
ATOM     21  C   UNL     1      34.866  -7.360 -22.967  0.00  0.00    +0.138 C 
BRANCH  21  22
ATOM     22  O   UNL     1      33.892  -7.247 -21.938  0.00  0.00    -0.382 OA
ATOM     23  H   UNL     1      33.282  -6.523 -22.150  0.00  0.00    +0.210 HD
ENDBRANCH  21  22
ENDBRANCH  20  21
ENDBRANCH  19  20
ENDBRANCH  13  19
ENDBRANCH   6  14
BRANCH   2  24
ATOM     24  C   UNL     1      36.183 -18.941 -20.997  0.00  0.00    +0.093 C 
ATOM     25  C   UNL     1      37.500 -18.873 -20.229  0.00  0.00    +0.026 C 
BRANCH  24  26
ATOM     26  C   UNL     1      35.183 -19.890 -20.373  0.00  0.00    -0.005 C 
ATOM     27  C   UNL     1      35.618 -20.894 -19.510  0.00  0.00    -0.003 C 
ATOM     28  C   UNL     1      33.824 -19.759 -20.661  0.00  0.00    -0.003 C 
ATOM     29  C   UNL     1      34.696 -21.770 -18.936  0.00  0.00    -0.000 C 
ATOM     30  C   UNL     1      32.902 -20.634 -20.087  0.00  0.00    -0.000 C 
ATOM     31  C   UNL     1      33.338 -21.638 -19.223  0.00  0.00    -0.000 C 
ENDBRANCH  24  26
ENDBRANCH   2  24
TORSDOF 7
ENDMDL
MODEL 3
REMARK VINA RESULT:     -10.6      7.693     12.796
REMARK  Name = 24941248
REMARK  7 active torsions:
REMARK  status: ('A' for Active; 'I' for Inactive)
REMARK    1  A    between atoms: N_2  and  C_24
REMARK    2  A    between atoms: C_6  and  C_14
REMARK    3  A    between atoms: C_13  and  C_19
REMARK    4  A    between atoms: C_19  and  C_20
REMARK    5  A    between atoms: C_20  and  C_21
REMARK    6  A    between atoms: C_21  and  O_22
REMARK    7  A    between atoms: C_24  and  C_26
REMARK                            x       y       z     vdW  Elec       q    Type
REMARK                         _______ _______ _______ _____ _____    ______ ____
ROOT
ATOM      1  O   UNL     1      31.377 -23.944 -14.612  0.00  0.00    -0.352 OA
ATOM      2  N   UNL     1      34.495 -22.003 -18.611  0.00  0.00    -0.316 N 
ATOM      3  N   UNL     1      32.305 -24.434 -13.700  0.00  0.00    -0.077 NA
ATOM      4  N   UNL     1      32.299 -22.369 -17.765  0.00  0.00    -0.226 NA
ATOM      5  C   UNL     1      33.398 -23.552 -15.499  0.00  0.00    +0.062 A 
ATOM      6  C   UNL     1      33.500 -24.191 -14.247  0.00  0.00    +0.123 A 
ATOM      7  C   UNL     1      33.640 -22.496 -17.591  0.00  0.00    +0.129 C 
ATOM      8  C   UNL     1      34.261 -23.074 -16.487  0.00  0.00    +0.039 C 
ATOM      9  C   UNL     1      32.032 -23.420 -15.682  0.00  0.00    +0.196 A 
ATOM     10  C   UNL     1      31.469 -22.835 -16.800  0.00  0.00    +0.140 C 
ATOM     11  H   UNL     1      35.469 -22.089 -18.495  0.00  0.00    +0.148 HD
ENDROOT
BRANCH   6  14
ATOM     12 CL   UNL     1      36.261 -24.204  -9.893  0.00  0.00    -0.082 Cl
ATOM     13  C   UNL     1      36.868 -25.650 -13.572  0.00  0.00    -0.021 C 
ATOM     14  C   UNL     1      34.706 -24.574 -13.560  0.00  0.00    +0.021 C 
ATOM     15  C   UNL     1      35.701 -25.278 -14.238  0.00  0.00    -0.003 C 
ATOM     16  C   UNL     1      37.041 -25.318 -12.229  0.00  0.00    +0.007 C 
ATOM     17  C   UNL     1      34.879 -24.242 -12.217  0.00  0.00    +0.013 C 
ATOM     18  C   UNL     1      36.046 -24.614 -11.551  0.00  0.00    +0.057 C 
BRANCH  13  19
ATOM     19  C   UNL     1      37.932 -26.405 -14.297  0.00  0.00    +0.029 C 
BRANCH  19  20
ATOM     20  C   UNL     1      39.330 -26.128 -13.729  0.00  0.00    +0.036 C 
BRANCH  20  21
ATOM     21  C   UNL     1      40.205 -25.360 -14.709  0.00  0.00    +0.138 C 
BRANCH  21  22
ATOM     22  O   UNL     1      40.518 -26.208 -15.807  0.00  0.00    -0.382 OA
ATOM     23  H   UNL     1      39.868 -26.926 -15.855  0.00  0.00    +0.210 HD
ENDBRANCH  21  22
ENDBRANCH  20  21
ENDBRANCH  19  20
ENDBRANCH  13  19
ENDBRANCH   6  14
BRANCH   2  24
ATOM     24  C   UNL     1      34.000 -21.388 -19.798  0.00  0.00    +0.093 C 
ATOM     25  C   UNL     1      32.659 -20.719 -19.503  0.00  0.00    +0.026 C 
BRANCH  24  26
ATOM     26  C   UNL     1      35.028 -20.430 -20.359  0.00  0.00    -0.005 C 
ATOM     27  C   UNL     1      36.298 -20.358 -19.789  0.00  0.00    -0.003 C 
ATOM     28  C   UNL     1      34.705 -19.620 -21.448  0.00  0.00    -0.003 C 
ATOM     29  C   UNL     1      37.246 -19.473 -20.306  0.00  0.00    -0.000 C 
ATOM     30  C   UNL     1      35.652 -18.737 -21.965  0.00  0.00    -0.000 C 
ATOM     31  C   UNL     1      36.923 -18.664 -21.395  0.00  0.00    -0.000 C 
ENDBRANCH  24  26
ENDBRANCH   2  24
TORSDOF 7
ENDMDL
MODEL 4
REMARK VINA RESULT:      -9.5      7.637     12.415
REMARK  Name = 24941248
REMARK  7 active torsions:
REMARK  status: ('A' for Active; 'I' for Inactive)
REMARK    1  A    between atoms: N_2  and  C_24
REMARK    2  A    between atoms: C_6  and  C_14
REMARK    3  A    between atoms: C_13  and  C_19
REMARK    4  A    between atoms: C_19  and  C_20
REMARK    5  A    between atoms: C_20  and  C_21
REMARK    6  A    between atoms: C_21  and  O_22
REMARK    7  A    between atoms: C_24  and  C_26
REMARK                            x       y       z     vdW  Elec       q    Type
REMARK                         _______ _______ _______ _____ _____    ______ ____
ROOT
ATOM      1  O   UNL     1      31.854 -23.944 -14.937  0.00  0.00    -0.352 OA
ATOM      2  N   UNL     1      34.524 -21.672 -19.082  0.00  0.00    -0.316 N 
ATOM      3  N   UNL     1      32.878 -24.399 -14.115  0.00  0.00    -0.077 NA
ATOM      4  N   UNL     1      32.428 -22.211 -18.089  0.00  0.00    -0.226 NA
ATOM      5  C   UNL     1      33.771 -23.389 -15.957  0.00  0.00    +0.062 A 
ATOM      6  C   UNL     1      34.010 -24.059 -14.740  0.00  0.00    +0.123 A 
ATOM      7  C   UNL     1      33.784 -22.253 -18.020  0.00  0.00    +0.129 C 
ATOM      8  C   UNL     1      34.523 -22.824 -16.988  0.00  0.00    +0.039 C 
ATOM      9  C   UNL     1      32.390 -23.343 -16.032  0.00  0.00    +0.196 A 
ATOM     10  C   UNL     1      31.706 -22.761 -17.083  0.00  0.00    +0.140 C 
ATOM     11  H   UNL     1      35.508 -21.696 -19.043  0.00  0.00    +0.148 HD
ENDROOT
BRANCH   6  14
ATOM     12 CL   UNL     1      38.258 -26.979 -14.819  0.00  0.00    -0.082 Cl
ATOM     13  C   UNL     1      36.985 -23.988 -12.489  0.00  0.00    -0.021 C 
ATOM     14  C   UNL     1      35.287 -24.383 -14.160  0.00  0.00    +0.021 C 
ATOM     15  C   UNL     1      35.748 -23.675 -13.051  0.00  0.00    -0.003 C 
ATOM     16  C   UNL     1      37.761 -25.010 -13.036  0.00  0.00    +0.007 C 
ATOM     17  C   UNL     1      36.063 -25.405 -14.707  0.00  0.00    +0.013 C 
ATOM     18  C   UNL     1      37.300 -25.718 -14.145  0.00  0.00    +0.057 C 
BRANCH  13  19
ATOM     19  C   UNL     1      37.479 -23.230 -11.303  0.00  0.00    +0.029 C 
BRANCH  19  20
ATOM     20  C   UNL     1      37.208 -23.969  -9.986  0.00  0.00    +0.036 C 
BRANCH  20  21
ATOM     21  C   UNL     1      35.720 -24.095  -9.696  0.00  0.00    +0.138 C 
BRANCH  21  22
ATOM     22  O   UNL     1      35.317 -25.437  -9.933  0.00  0.00    -0.382 OA
ATOM     23  H   UNL     1      35.090 -25.545 -10.869  0.00  0.00    +0.210 HD
ENDBRANCH  21  22
ENDBRANCH  20  21
ENDBRANCH  19  20
ENDBRANCH  13  19
ENDBRANCH   6  14
BRANCH   2  24
ATOM     24  C   UNL     1      33.900 -21.054 -20.206  0.00  0.00    +0.093 C 
ATOM     25  C   UNL     1      32.610 -20.372 -19.760  0.00  0.00    +0.026 C 
BRANCH  24  26
ATOM     26  C   UNL     1      34.866 -20.107 -20.884  0.00  0.00    -0.005 C 
ATOM     27  C   UNL     1      34.542 -19.549 -22.120  0.00  0.00    -0.003 C 
ATOM     28  C   UNL     1      36.080 -19.792 -20.273  0.00  0.00    -0.003 C 
ATOM     29  C   UNL     1      35.433 -18.676 -22.747  0.00  0.00    -0.000 C 
ATOM     30  C   UNL     1      36.970 -18.919 -20.899  0.00  0.00    -0.000 C 
ATOM     31  C   UNL     1      36.646 -18.360 -22.135  0.00  0.00    -0.000 C 
ENDBRANCH  24  26
ENDBRANCH   2  24
TORSDOF 7
ENDMDL
MODEL 5
REMARK VINA RESULT:      -9.3      5.209      8.807
REMARK  Name = 24941248
REMARK  7 active torsions:
REMARK  status: ('A' for Active; 'I' for Inactive)
REMARK    1  A    between atoms: N_2  and  C_24
REMARK    2  A    between atoms: C_6  and  C_14
REMARK    3  A    between atoms: C_13  and  C_19
REMARK    4  A    between atoms: C_19  and  C_20
REMARK    5  A    between atoms: C_20  and  C_21
REMARK    6  A    between atoms: C_21  and  O_22
REMARK    7  A    between atoms: C_24  and  C_26
REMARK                            x       y       z     vdW  Elec       q    Type
REMARK                         _______ _______ _______ _____ _____    ______ ____
ROOT
ATOM      1  O   UNL     1      32.619 -22.779 -18.376  0.00  0.00    -0.352 OA
ATOM      2  N   UNL     1      37.194 -22.537 -15.463  0.00  0.00    -0.316 N 
ATOM      3  N   UNL     1      32.886 -21.939 -19.451  0.00  0.00    -0.077 NA
ATOM      4  N   UNL     1      34.997 -23.428 -15.695  0.00  0.00    -0.226 NA
ATOM      5  C   UNL     1      34.696 -21.999 -18.063  0.00  0.00    +0.062 A 
ATOM      6  C   UNL     1      34.126 -21.485 -19.244  0.00  0.00    +0.123 A 
ATOM      7  C   UNL     1      35.979 -22.632 -16.191  0.00  0.00    +0.129 C 
ATOM      8  C   UNL     1      35.901 -21.889 -17.366  0.00  0.00    +0.039 C 
ATOM      9  C   UNL     1      33.699 -22.812 -17.552  0.00  0.00    +0.196 A 
ATOM     10  C   UNL     1      33.831 -23.529 -16.378  0.00  0.00    +0.140 C 
ATOM     11  H   UNL     1      37.913 -21.963 -15.814  0.00  0.00    +0.148 HD
ENDROOT
BRANCH   6  14
ATOM     12 CL   UNL     1      38.147 -18.517 -20.510  0.00  0.00    -0.082 Cl
ATOM     13  C   UNL     1      34.643 -19.340 -22.255  0.00  0.00    -0.021 C 
ATOM     14  C   UNL     1      34.733 -20.575 -20.181  0.00  0.00    +0.021 C 
ATOM     15  C   UNL     1      34.055 -20.221 -21.347  0.00  0.00    -0.003 C 
ATOM     16  C   UNL     1      35.909 -18.813 -21.995  0.00  0.00    +0.007 C 
ATOM     17  C   UNL     1      35.998 -20.048 -19.921  0.00  0.00    +0.013 C 
ATOM     18  C   UNL     1      36.586 -19.168 -20.829  0.00  0.00    +0.057 C 
BRANCH  13  19
ATOM     19  C   UNL     1      33.920 -18.962 -23.503  0.00  0.00    +0.029 C 
BRANCH  19  20
ATOM     20  C   UNL     1      34.690 -17.924 -24.329  0.00  0.00    +0.036 C 
BRANCH  20  21
ATOM     21  C   UNL     1      34.208 -16.505 -24.060  0.00  0.00    +0.138 C 
BRANCH  21  22
ATOM     22  O   UNL     1      33.853 -15.899 -25.295  0.00  0.00    -0.382 OA
ATOM     23  H   UNL     1      34.642 -15.818 -25.854  0.00  0.00    +0.210 HD
ENDBRANCH  21  22
ENDBRANCH  20  21
ENDBRANCH  19  20
ENDBRANCH  13  19
ENDBRANCH   6  14
BRANCH   2  24
ATOM     24  C   UNL     1      37.414 -23.240 -14.242  0.00  0.00    +0.093 C 
ATOM     25  C   UNL     1      36.091 -23.391 -13.496  0.00  0.00    +0.026 C 
BRANCH  24  26
ATOM     26  C   UNL     1      38.093 -24.564 -14.516  0.00  0.00    -0.005 C 
ATOM     27  C   UNL     1      39.474 -24.617 -14.696  0.00  0.00    -0.003 C 
ATOM     28  C   UNL     1      37.335 -25.734 -14.588  0.00  0.00    -0.003 C 
ATOM     29  C   UNL     1      40.100 -25.838 -14.950  0.00  0.00    -0.000 C 
ATOM     30  C   UNL     1      37.960 -26.955 -14.841  0.00  0.00    -0.000 C 
ATOM     31  C   UNL     1      39.342 -27.007 -15.021  0.00  0.00    -0.000 C 
ENDBRANCH  24  26
ENDBRANCH   2  24
TORSDOF 7
ENDMDL
MODEL 6
REMARK VINA RESULT:      -8.9      5.883     10.495
REMARK  Name = 24941248
REMARK  7 active torsions:
REMARK  status: ('A' for Active; 'I' for Inactive)
REMARK    1  A    between atoms: N_2  and  C_24
REMARK    2  A    between atoms: C_6  and  C_14
REMARK    3  A    between atoms: C_13  and  C_19
REMARK    4  A    between atoms: C_19  and  C_20
REMARK    5  A    between atoms: C_20  and  C_21
REMARK    6  A    between atoms: C_21  and  O_22
REMARK    7  A    between atoms: C_24  and  C_26
REMARK                            x       y       z     vdW  Elec       q    Type
REMARK                         _______ _______ _______ _____ _____    ______ ____
ROOT
ATOM      1  O   UNL     1      32.003 -22.100 -18.881  0.00  0.00    -0.352 OA
ATOM      2  N   UNL     1      36.056 -19.253 -21.104  0.00  0.00    -0.316 N 
ATOM      3  N   UNL     1      32.604 -22.693 -17.778  0.00  0.00    -0.077 NA
ATOM      4  N   UNL     1      33.768 -19.907 -21.193  0.00  0.00    -0.226 NA
ATOM      5  C   UNL     1      34.139 -21.423 -18.890  0.00  0.00    +0.062 A 
ATOM      6  C   UNL     1      33.875 -22.278 -17.802  0.00  0.00    +0.123 A 
ATOM      7  C   UNL     1      34.967 -19.981 -20.558  0.00  0.00    +0.129 C 
ATOM      8  C   UNL     1      35.227 -20.716 -19.405  0.00  0.00    +0.039 C 
ATOM      9  C   UNL     1      32.921 -21.344 -19.541  0.00  0.00    +0.196 A 
ATOM     10  C   UNL     1      32.718 -20.596 -20.685  0.00  0.00    +0.140 C 
ATOM     11  H   UNL     1      36.930 -19.298 -20.652  0.00  0.00    +0.148 HD
ENDROOT
BRANCH   6  14
ATOM     12 CL   UNL     1      38.717 -22.399 -16.037  0.00  0.00    -0.082 Cl
ATOM     13  C   UNL     1      35.239 -23.864 -14.711  0.00  0.00    -0.021 C 
ATOM     14  C   UNL     1      34.800 -22.708 -16.786  0.00  0.00    +0.021 C 
ATOM     15  C   UNL     1      34.343 -23.448 -15.696  0.00  0.00    -0.003 C 
ATOM     16  C   UNL     1      36.592 -23.539 -14.817  0.00  0.00    +0.007 C 
ATOM     17  C   UNL     1      36.152 -22.383 -16.891  0.00  0.00    +0.013 C 
ATOM     18  C   UNL     1      37.048 -22.799 -15.907  0.00  0.00    +0.057 C 
BRANCH  13  19
ATOM     19  C   UNL     1      34.751 -24.654 -13.544  0.00  0.00    +0.029 C 
BRANCH  19  20
ATOM     20  C   UNL     1      35.847 -24.877 -12.494  0.00  0.00    +0.036 C 
BRANCH  20  21
ATOM     21  C   UNL     1      35.518 -24.201 -11.171  0.00  0.00    +0.138 C 
BRANCH  21  22
ATOM     22  O   UNL     1      35.408 -25.195 -10.161  0.00  0.00    -0.382 OA
ATOM     23  H   UNL     1      34.614 -25.028  -9.630  0.00  0.00    +0.210 HD
ENDBRANCH  21  22
ENDBRANCH  20  21
ENDBRANCH  19  20
ENDBRANCH  13  19
ENDBRANCH   6  14
BRANCH   2  24
ATOM     24  C   UNL     1      35.937 -18.458 -22.282  0.00  0.00    +0.093 C 
ATOM     25  C   UNL     1      35.124 -19.217 -23.327  0.00  0.00    +0.026 C 
BRANCH  24  26
ATOM     26  C   UNL     1      35.348 -17.106 -21.943  0.00  0.00    -0.005 C 
ATOM     27  C   UNL     1      35.184 -16.730 -20.611  0.00  0.00    -0.003 C 
ATOM     28  C   UNL     1      34.970 -16.234 -22.965  0.00  0.00    -0.003 C 
ATOM     29  C   UNL     1      34.641 -15.483 -20.298  0.00  0.00    -0.000 C 
ATOM     30  C   UNL     1      34.427 -14.988 -22.653  0.00  0.00    -0.000 C 
ATOM     31  C   UNL     1      34.263 -14.612 -21.320  0.00  0.00    -0.000 C 
ENDBRANCH  24  26
ENDBRANCH   2  24
TORSDOF 7
ENDMDL
MODEL 7
REMARK VINA RESULT:      -8.8     10.780     13.265
REMARK  Name = 24941248
REMARK  7 active torsions:
REMARK  status: ('A' for Active; 'I' for Inactive)
REMARK    1  A    between atoms: N_2  and  C_24
REMARK    2  A    between atoms: C_6  and  C_14
REMARK    3  A    between atoms: C_13  and  C_19
REMARK    4  A    between atoms: C_19  and  C_20
REMARK    5  A    between atoms: C_20  and  C_21
REMARK    6  A    between atoms: C_21  and  O_22
REMARK    7  A    between atoms: C_24  and  C_26
REMARK                            x       y       z     vdW  Elec       q    Type
REMARK                         _______ _______ _______ _____ _____    ______ ____
ROOT
ATOM      1  O   UNL     1      35.025 -24.849 -11.312  0.00  0.00    -0.352 OA
ATOM      2  N   UNL     1      38.904 -25.542 -15.047  0.00  0.00    -0.316 N 
ATOM      3  N   UNL     1      33.949 -24.385 -12.060  0.00  0.00    -0.077 NA
ATOM      4  N   UNL     1      38.263 -25.683 -12.758  0.00  0.00    -0.226 NA
ATOM      5  C   UNL     1      35.730 -24.754 -13.438  0.00  0.00    +0.062 A 
ATOM      6  C   UNL     1      34.390 -24.335 -13.321  0.00  0.00    +0.123 A 
ATOM      7  C   UNL     1      37.922 -25.376 -14.036  0.00  0.00    +0.129 C 
ATOM      8  C   UNL     1      36.678 -24.908 -14.451  0.00  0.00    +0.039 C 
ATOM      9  C   UNL     1      36.084 -25.067 -12.137  0.00  0.00    +0.196 A 
ATOM     10  C   UNL     1      37.336 -25.530 -11.781  0.00  0.00    +0.140 C 
ATOM     11  H   UNL     1      38.668 -25.324 -15.978  0.00  0.00    +0.148 HD
ENDROOT
BRANCH   6  14
ATOM     12 CL   UNL     1      33.852 -22.792 -18.210  0.00  0.00    -0.082 Cl
ATOM     13  C   UNL     1      31.308 -23.330 -15.171  0.00  0.00    -0.021 C 
ATOM     14  C   UNL     1      33.520 -23.891 -14.378  0.00  0.00    +0.021 C 
ATOM     15  C   UNL     1      32.151 -23.760 -14.146  0.00  0.00    -0.003 C 
ATOM     16  C   UNL     1      31.835 -23.031 -16.428  0.00  0.00    +0.007 C 
ATOM     17  C   UNL     1      34.046 -23.592 -15.635  0.00  0.00    +0.013 C 
ATOM     18  C   UNL     1      33.203 -23.162 -16.660  0.00  0.00    +0.057 C 
BRANCH  13  19
ATOM     19  C   UNL     1      29.844 -23.191 -14.923  0.00  0.00    +0.029 C 
BRANCH  19  20
ATOM     20  C   UNL     1      29.020 -24.203 -15.730  0.00  0.00    +0.036 C 
BRANCH  20  21
ATOM     21  C   UNL     1      28.027 -23.522 -16.661  0.00  0.00    +0.138 C 
BRANCH  21  22
ATOM     22  O   UNL     1      28.263 -22.120 -16.638  0.00  0.00    -0.382 OA
ATOM     23  H   UNL     1      28.013 -21.765 -15.772  0.00  0.00    +0.210 HD
ENDBRANCH  21  22
ENDBRANCH  20  21
ENDBRANCH  19  20
ENDBRANCH  13  19
ENDBRANCH   6  14
BRANCH   2  24
ATOM     24  C   UNL     1      40.222 -26.011 -14.769  0.00  0.00    +0.093 C 
ATOM     25  C   UNL     1      40.464 -25.982 -13.262  0.00  0.00    +0.026 C 
BRANCH  24  26
ATOM     26  C   UNL     1      40.428 -27.382 -15.374  0.00  0.00    -0.005 C 
ATOM     27  C   UNL     1      39.584 -27.830 -16.390  0.00  0.00    -0.003 C 
ATOM     28  C   UNL     1      41.462 -28.199 -14.916  0.00  0.00    -0.003 C 
ATOM     29  C   UNL     1      39.774 -29.095 -16.948  0.00  0.00    -0.000 C 
ATOM     30  C   UNL     1      41.652 -29.463 -15.474  0.00  0.00    -0.000 C 
ATOM     31  C   UNL     1      40.808 -29.910 -16.491  0.00  0.00    -0.000 C 
ENDBRANCH  24  26
ENDBRANCH   2  24
TORSDOF 7
ENDMDL
MODEL 8
REMARK VINA RESULT:      -8.6      4.151     10.281
REMARK  Name = 24941248
REMARK  7 active torsions:
REMARK  status: ('A' for Active; 'I' for Inactive)
REMARK    1  A    between atoms: N_2  and  C_24
REMARK    2  A    between atoms: C_6  and  C_14
REMARK    3  A    between atoms: C_13  and  C_19
REMARK    4  A    between atoms: C_19  and  C_20
REMARK    5  A    between atoms: C_20  and  C_21
REMARK    6  A    between atoms: C_21  and  O_22
REMARK    7  A    between atoms: C_24  and  C_26
REMARK                            x       y       z     vdW  Elec       q    Type
REMARK                         _______ _______ _______ _____ _____    ______ ____
ROOT
ATOM      1  O   UNL     1      32.038 -12.750 -19.625  0.00  0.00    -0.352 OA
ATOM      2  N   UNL     1      31.996  -7.992 -22.241  0.00  0.00    -0.316 N 
ATOM      3  N   UNL     1      32.468 -13.640 -20.601  0.00  0.00    -0.077 NA
ATOM      4  N   UNL     1      31.611  -9.180 -20.214  0.00  0.00    -0.226 NA
ATOM      5  C   UNL     1      32.370 -11.537 -21.481  0.00  0.00    +0.062 A 
ATOM      6  C   UNL     1      32.660 -12.899 -21.697  0.00  0.00    +0.123 A 
ATOM      7  C   UNL     1      31.992  -9.213 -21.517  0.00  0.00    +0.129 C 
ATOM      8  C   UNL     1      32.384 -10.351 -22.216  0.00  0.00    +0.039 C 
ATOM      9  C   UNL     1      31.980 -11.498 -20.153  0.00  0.00    +0.196 A 
ATOM     10  C   UNL     1      31.601 -10.337 -19.507  0.00  0.00    +0.140 C 
ATOM     11  H   UNL     1      32.271  -8.004 -23.187  0.00  0.00    +0.148 HD
ENDROOT
BRANCH   6  14
ATOM     12 CL   UNL     1      33.206 -12.612 -26.815  0.00  0.00    -0.082 Cl
ATOM     13  C   UNL     1      34.152 -15.363 -24.070  0.00  0.00    -0.021 C 
ATOM     14  C   UNL     1      33.114 -13.511 -22.918  0.00  0.00    +0.021 C 
ATOM     15  C   UNL     1      33.710 -14.771 -22.887  0.00  0.00    -0.003 C 
ATOM     16  C   UNL     1      33.995 -14.695 -25.285  0.00  0.00    +0.007 C 
ATOM     17  C   UNL     1      32.958 -12.843 -24.133  0.00  0.00    +0.013 C 
ATOM     18  C   UNL     1      33.399 -13.435 -25.316  0.00  0.00    +0.057 C 
BRANCH  13  19
ATOM     19  C   UNL     1      34.791 -16.710 -24.037  0.00  0.00    +0.029 C 
BRANCH  19  20
ATOM     20  C   UNL     1      35.291 -17.082 -22.635  0.00  0.00    +0.036 C 
BRANCH  20  21
ATOM     21  C   UNL     1      35.807 -18.512 -22.571  0.00  0.00    +0.138 C 
BRANCH  21  22
ATOM     22  O   UNL     1      37.187 -18.488 -22.229  0.00  0.00    -0.382 OA
ATOM     23  H   UNL     1      37.314 -17.944 -21.437  0.00  0.00    +0.210 HD
ENDBRANCH  21  22
ENDBRANCH  20  21
ENDBRANCH  19  20
ENDBRANCH  13  19
ENDBRANCH   6  14
BRANCH   2  24
ATOM     24  C   UNL     1      31.617  -6.749 -21.655  0.00  0.00    +0.093 C 
ATOM     25  C   UNL     1      32.483  -6.481 -20.427  0.00  0.00    +0.026 C 
BRANCH  24  26
ATOM     26  C   UNL     1      31.690  -5.642 -22.684  0.00  0.00    -0.005 C 
ATOM     27  C   UNL     1      31.556  -4.312 -22.288  0.00  0.00    -0.003 C 
ATOM     28  C   UNL     1      31.893  -5.952 -24.029  0.00  0.00    -0.003 C 
ATOM     29  C   UNL     1      31.623  -3.291 -23.236  0.00  0.00    -0.000 C 
ATOM     30  C   UNL     1      31.960  -4.931 -24.977  0.00  0.00    -0.000 C 
ATOM     31  C   UNL     1      31.826  -3.601 -24.581  0.00  0.00    -0.000 C 
ENDBRANCH  24  26
ENDBRANCH   2  24
TORSDOF 7
ENDMDL
MODEL 9
REMARK VINA RESULT:      -8.6      3.911      6.559
REMARK  Name = 24941248
REMARK  7 active torsions:
REMARK  status: ('A' for Active; 'I' for Inactive)
REMARK    1  A    between atoms: N_2  and  C_24
REMARK    2  A    between atoms: C_6  and  C_14
REMARK    3  A    between atoms: C_13  and  C_19
REMARK    4  A    between atoms: C_19  and  C_20
REMARK    5  A    between atoms: C_20  and  C_21
REMARK    6  A    between atoms: C_21  and  O_22
REMARK    7  A    between atoms: C_24  and  C_26
REMARK                            x       y       z     vdW  Elec       q    Type
REMARK                         _______ _______ _______ _____ _____    ______ ____
ROOT
ATOM      1  O   UNL     1      37.816 -19.829 -19.760  0.00  0.00    -0.352 OA
ATOM      2  N   UNL     1      33.289 -22.476 -18.355  0.00  0.00    -0.316 N 
ATOM      3  N   UNL     1      37.400 -19.038 -20.824  0.00  0.00    -0.077 NA
ATOM      4  N   UNL     1      35.605 -22.091 -17.955  0.00  0.00    -0.226 NA
ATOM      5  C   UNL     1      35.637 -20.264 -20.052  0.00  0.00    +0.062 A 
ATOM      6  C   UNL     1      36.101 -19.312 -20.982  0.00  0.00    +0.123 A 
ATOM      7  C   UNL     1      34.496 -21.807 -18.686  0.00  0.00    +0.129 C 
ATOM      8  C   UNL     1      34.436 -20.907 -19.746  0.00  0.00    +0.039 C 
ATOM      9  C   UNL     1      36.763 -20.558 -19.303  0.00  0.00    +0.196 A 
ATOM     10  C   UNL     1      36.766 -21.462 -18.258  0.00  0.00    +0.140 C 
ATOM     11  H   UNL     1      32.478 -22.277 -18.878  0.00  0.00    +0.148 HD
ENDROOT
BRANCH   6  14
ATOM     12 CL   UNL     1      32.774 -19.700 -24.901  0.00  0.00    -0.082 Cl
ATOM     13  C   UNL     1      34.680 -16.641 -23.167  0.00  0.00    -0.021 C 
ATOM     14  C   UNL     1      35.339 -18.658 -22.013  0.00  0.00    +0.021 C 
ATOM     15  C   UNL     1      35.419 -17.275 -22.168  0.00  0.00    -0.003 C 
ATOM     16  C   UNL     1      33.863 -17.391 -24.012  0.00  0.00    +0.007 C 
ATOM     17  C   UNL     1      34.522 -19.409 -22.859  0.00  0.00    +0.013 C 
ATOM     18  C   UNL     1      33.783 -18.775 -23.858  0.00  0.00    +0.057 C 
BRANCH  13  19
ATOM     19  C   UNL     1      34.764 -15.161 -23.332  0.00  0.00    +0.029 C 
BRANCH  19  20
ATOM     20  C   UNL     1      34.189 -14.408 -22.125  0.00  0.00    +0.036 C 
BRANCH  20  21
ATOM     21  C   UNL     1      33.389 -13.182 -22.542  0.00  0.00    +0.138 C 
BRANCH  21  22
ATOM     22  O   UNL     1      34.257 -12.271 -23.203  0.00  0.00    -0.382 OA
ATOM     23  H   UNL     1      35.080 -12.185 -22.698  0.00  0.00    +0.210 HD
ENDBRANCH  21  22
ENDBRANCH  20  21
ENDBRANCH  19  20
ENDBRANCH  13  19
ENDBRANCH   6  14
BRANCH   2  24
ATOM     24  C   UNL     1      33.202 -23.425 -17.295  0.00  0.00    +0.093 C 
ATOM     25  C   UNL     1      34.519 -23.446 -16.522  0.00  0.00    +0.026 C 
BRANCH  24  26
ATOM     26  C   UNL     1      32.007 -23.121 -16.418  0.00  0.00    -0.005 C 
ATOM     27  C   UNL     1      32.137 -23.142 -15.030  0.00  0.00    -0.003 C 
ATOM     28  C   UNL     1      30.774 -22.821 -16.998  0.00  0.00    -0.003 C 
ATOM     29  C   UNL     1      31.034 -22.863 -14.221  0.00  0.00    -0.000 C 
ATOM     30  C   UNL     1      29.672 -22.542 -16.190  0.00  0.00    -0.000 C 
ATOM     31  C   UNL     1      29.803 -22.562 -14.801  0.00  0.00    -0.000 C 
ENDBRANCH  24  26
ENDBRANCH   2  24
TORSDOF 7
ENDMDL
