MODEL 1
REMARK VINA RESULT:     -12.1      0.000      0.000
REMARK  Name = 24941249
REMARK  6 active torsions:
REMARK  status: ('A' for Active; 'I' for Inactive)
REMARK    1  A    between atoms: N_1  and  C_13
REMARK    2  A    between atoms: N_2  and  C_26
REMARK    3  A    between atoms: C_14  and  C_19
REMARK    4  A    between atoms: C_19  and  C_20
REMARK    5  A    between atoms: C_20  and  C_23
REMARK    6  A    between atoms: C_26  and  C_28
REMARK                            x       y       z     vdW  Elec       q    Type
REMARK                         _______ _______ _______ _____ _____    ______ ____
ROOT
ATOM      1  N   UNL     1      34.026 -24.293 -13.407  0.00  0.00    -0.230 N 
ATOM      2  N   UNL     1      34.675 -22.361 -17.848  0.00  0.00    -0.316 N 
ATOM      3  N   UNL     1      32.945 -24.718 -12.730  0.00  0.00    -0.169 NA
ATOM      4  N   UNL     1      32.550 -23.002 -16.988  0.00  0.00    -0.229 NA
ATOM      5  C   UNL     1      33.751 -23.811 -14.656  0.00  0.00    +0.088 A 
ATOM      6  C   UNL     1      32.375 -23.934 -14.802  0.00  0.00    +0.052 A 
ATOM      7  C   UNL     1      31.942 -24.498 -13.583  0.00  0.00    +0.082 A 
ATOM      8  C   UNL     1      34.569 -23.288 -15.651  0.00  0.00    +0.053 C 
ATOM      9  C   UNL     1      33.889 -22.903 -16.796  0.00  0.00    +0.130 C 
ATOM     10  C   UNL     1      31.784 -23.517 -15.995  0.00  0.00    +0.103 C 
ATOM     11  C   UNL     1      30.566 -24.846 -13.190  0.00  0.00    +0.054 C 
ATOM     12  H   UNL     1      35.647 -22.283 -17.719  0.00  0.00    +0.148 HD
ENDROOT
BRANCH   1  13
ATOM     13  C   UNL     1      35.286 -24.374 -12.812  0.00  0.00    +0.082 C 
ATOM     14  C   UNL     1      37.470 -25.396 -12.667  0.00  0.00    -0.020 C 
ATOM     15  C   UNL     1      36.211 -25.316 -13.262  0.00  0.00    +0.015 C 
ATOM     16  C   UNL     1      35.620 -23.511 -11.768  0.00  0.00    +0.019 C 
ATOM     17  C   UNL     1      37.805 -24.534 -11.623  0.00  0.00    -0.004 C 
ATOM     18  C   UNL     1      36.880 -23.590 -11.174  0.00  0.00    +0.001 C 
BRANCH  14  19
ATOM     19  C   UNL     1      38.459 -26.404 -13.146  0.00  0.00    +0.036 C 
BRANCH  19  20
ATOM     20  C   UNL     1      39.828 -25.780 -13.442  0.00  0.00    +0.089 C 
BRANCH  20  23
ATOM     21  O   UNL     1      40.729 -26.375 -15.615  0.00  0.00    -0.275 OA
ATOM     22  N   UNL     1      39.499 -24.442 -15.414  0.00  0.00    -0.329 N 
ATOM     23  C   UNL     1      40.080 -25.593 -14.926  0.00  0.00    +0.220 C 
ATOM     24  H   UNL     1      39.593 -24.210 -16.366  0.00  0.00    +0.145 HD
ATOM     25  H   UNL     1      38.991 -23.854 -14.811  0.00  0.00    +0.145 HD
ENDBRANCH  20  23
ENDBRANCH  19  20
ENDBRANCH  14  19
ENDBRANCH   1  13
BRANCH   2  26
ATOM     26  C   UNL     1      34.110 -21.926 -19.082  0.00  0.00    +0.093 C 
ATOM     27  C   UNL     1      32.688 -21.422 -18.839  0.00  0.00    +0.026 C 
BRANCH  26  28
ATOM     28  C   UNL     1      35.002 -20.888 -19.727  0.00  0.00    -0.005 C 
ATOM     29  C   UNL     1      34.466 -19.974 -20.635  0.00  0.00    -0.003 C 
ATOM     30  C   UNL     1      36.361 -20.844 -19.415  0.00  0.00    -0.003 C 
ATOM     31  C   UNL     1      35.289 -19.018 -21.230  0.00  0.00    -0.000 C 
ATOM     32  C   UNL     1      37.183 -19.888 -20.011  0.00  0.00    -0.000 C 
ATOM     33  C   UNL     1      36.647 -18.974 -20.918  0.00  0.00    -0.000 C 
ENDBRANCH  26  28
ENDBRANCH   2  26
TORSDOF 6
ENDMDL
MODEL 2
REMARK VINA RESULT:     -11.2      3.808      8.586
REMARK  Name = 24941249
REMARK  6 active torsions:
REMARK  status: ('A' for Active; 'I' for Inactive)
REMARK    1  A    between atoms: N_1  and  C_13
REMARK    2  A    between atoms: N_2  and  C_26
REMARK    3  A    between atoms: C_14  and  C_19
REMARK    4  A    between atoms: C_19  and  C_20
REMARK    5  A    between atoms: C_20  and  C_23
REMARK    6  A    between atoms: C_26  and  C_28
REMARK                            x       y       z     vdW  Elec       q    Type
REMARK                         _______ _______ _______ _____ _____    ______ ____
ROOT
ATOM      1  N   UNL     1      32.328 -23.178 -16.378  0.00  0.00    -0.230 N 
ATOM      2  N   UNL     1      35.946 -23.838 -13.160  0.00  0.00    -0.316 N 
ATOM      3  N   UNL     1      32.282 -22.706 -17.636  0.00  0.00    -0.169 NA
ATOM      4  N   UNL     1      36.272 -22.954 -15.345  0.00  0.00    -0.229 NA
ATOM      5  C   UNL     1      33.581 -23.191 -15.830  0.00  0.00    +0.088 A 
ATOM      6  C   UNL     1      34.418 -22.684 -16.817  0.00  0.00    +0.052 A 
ATOM      7  C   UNL     1      33.556 -22.406 -17.899  0.00  0.00    +0.082 A 
ATOM      8  C   UNL     1      34.046 -23.593 -14.583  0.00  0.00    +0.053 C 
ATOM      9  C   UNL     1      35.414 -23.443 -14.416  0.00  0.00    +0.130 C 
ATOM     10  C   UNL     1      35.782 -22.572 -16.551  0.00  0.00    +0.103 C 
ATOM     11  C   UNL     1      33.914 -21.850 -19.215  0.00  0.00    +0.054 C 
ATOM     12  H   UNL     1      35.332 -24.193 -12.477  0.00  0.00    +0.148 HD
ENDROOT
BRANCH   1  13
ATOM     13  C   UNL     1      31.152 -23.600 -15.758  0.00  0.00    +0.082 C 
ATOM     14  C   UNL     1      28.771 -23.372 -15.410  0.00  0.00    -0.020 C 
ATOM     15  C   UNL     1      29.948 -22.950 -16.030  0.00  0.00    +0.015 C 
ATOM     16  C   UNL     1      31.179 -24.672 -14.866  0.00  0.00    +0.019 C 
ATOM     17  C   UNL     1      28.799 -24.443 -14.518  0.00  0.00    -0.004 C 
ATOM     18  C   UNL     1      30.003 -25.094 -14.246  0.00  0.00    +0.001 C 
BRANCH  14  19
ATOM     19  C   UNL     1      27.485 -22.676 -15.700  0.00  0.00    +0.036 C 
BRANCH  19  20
ATOM     20  C   UNL     1      27.087 -22.784 -17.176  0.00  0.00    +0.089 C 
BRANCH  20  23
ATOM     21  O   UNL     1      26.329 -20.479 -17.117  0.00  0.00    -0.275 OA
ATOM     22  N   UNL     1      25.569 -21.855 -18.796  0.00  0.00    -0.329 N 
ATOM     23  C   UNL     1      26.307 -21.577 -17.665  0.00  0.00    +0.220 C 
ATOM     24  H   UNL     1      25.020 -21.150 -19.209  0.00  0.00    +0.145 HD
ATOM     25  H   UNL     1      25.592 -22.757 -19.189  0.00  0.00    +0.145 HD
ENDBRANCH  20  23
ENDBRANCH  19  20
ENDBRANCH  14  19
ENDBRANCH   1  13
BRANCH   2  26
ATOM     26  C   UNL     1      37.333 -23.741 -12.849  0.00  0.00    +0.093 C 
ATOM     27  C   UNL     1      37.512 -23.712 -11.332  0.00  0.00    +0.026 C 
BRANCH  26  28
ATOM     28  C   UNL     1      38.097 -24.866 -13.513  0.00  0.00    -0.005 C 
ATOM     29  C   UNL     1      39.492 -24.838 -13.545  0.00  0.00    -0.003 C 
ATOM     30  C   UNL     1      37.408 -25.931 -14.093  0.00  0.00    -0.003 C 
ATOM     31  C   UNL     1      40.196 -25.875 -14.157  0.00  0.00    -0.000 C 
ATOM     32  C   UNL     1      38.112 -26.967 -14.705  0.00  0.00    -0.000 C 
ATOM     33  C   UNL     1      39.506 -26.940 -14.737  0.00  0.00    -0.000 C 
ENDBRANCH  26  28
ENDBRANCH   2  26
TORSDOF 6
ENDMDL
MODEL 3
REMARK VINA RESULT:     -11.1      3.168      8.377
REMARK  Name = 24941249
REMARK  6 active torsions:
REMARK  status: ('A' for Active; 'I' for Inactive)
REMARK    1  A    between atoms: N_1  and  C_13
REMARK    2  A    between atoms: N_2  and  C_26
REMARK    3  A    between atoms: C_14  and  C_19
REMARK    4  A    between atoms: C_19  and  C_20
REMARK    5  A    between atoms: C_20  and  C_23
REMARK    6  A    between atoms: C_26  and  C_28
REMARK                            x       y       z     vdW  Elec       q    Type
REMARK                         _______ _______ _______ _____ _____    ______ ____
ROOT
ATOM      1  N   UNL     1      33.391 -22.321 -17.618  0.00  0.00    -0.230 N 
ATOM      2  N   UNL     1      36.344 -24.773 -14.593  0.00  0.00    -0.316 N 
ATOM      3  N   UNL     1      32.058 -22.153 -17.677  0.00  0.00    -0.169 NA
ATOM      4  N   UNL     1      33.976 -24.716 -14.363  0.00  0.00    -0.229 NA
ATOM      5  C   UNL     1      33.810 -23.107 -16.579  0.00  0.00    +0.088 A 
ATOM      6  C   UNL     1      32.651 -23.479 -15.909  0.00  0.00    +0.052 A 
ATOM      7  C   UNL     1      31.612 -22.860 -16.636  0.00  0.00    +0.082 A 
ATOM      8  C   UNL     1      35.077 -23.516 -16.177  0.00  0.00    +0.053 C 
ATOM      9  C   UNL     1      35.077 -24.324 -15.051  0.00  0.00    +0.130 C 
ATOM     10  C   UNL     1      32.757 -24.297 -14.785  0.00  0.00    +0.103 C 
ATOM     11  C   UNL     1      30.166 -22.918 -16.364  0.00  0.00    +0.054 C 
ATOM     12  H   UNL     1      37.150 -24.496 -15.086  0.00  0.00    +0.148 HD
ENDROOT
BRANCH   1  13
ATOM     13  C   UNL     1      34.205 -21.711 -18.572  0.00  0.00    +0.082 C 
ATOM     14  C   UNL     1      34.446 -20.358 -20.560  0.00  0.00    -0.020 C 
ATOM     15  C   UNL     1      33.632 -20.969 -19.606  0.00  0.00    +0.015 C 
ATOM     16  C   UNL     1      35.591 -21.841 -18.493  0.00  0.00    +0.019 C 
ATOM     17  C   UNL     1      35.832 -20.489 -20.481  0.00  0.00    -0.004 C 
ATOM     18  C   UNL     1      36.405 -21.229 -19.447  0.00  0.00    +0.001 C 
BRANCH  14  19
ATOM     19  C   UNL     1      33.834 -19.567 -21.666  0.00  0.00    +0.036 C 
BRANCH  19  20
ATOM     20  C   UNL     1      34.744 -19.489 -22.897  0.00  0.00    +0.089 C 
BRANCH  20  23
ATOM     21  O   UNL     1      33.931 -17.998 -24.630  0.00  0.00    -0.275 OA
ATOM     22  N   UNL     1      35.394 -17.178 -23.055  0.00  0.00    -0.329 N 
ATOM     23  C   UNL     1      34.627 -18.168 -23.633  0.00  0.00    +0.220 C 
ATOM     24  H   UNL     1      35.402 -16.274 -23.443  0.00  0.00    +0.145 HD
ATOM     25  H   UNL     1      35.933 -17.377 -22.256  0.00  0.00    +0.145 HD
ENDBRANCH  20  23
ENDBRANCH  19  20
ENDBRANCH  14  19
ENDBRANCH   1  13
BRANCH   2  26
ATOM     26  C   UNL     1      36.495 -25.608 -13.448  0.00  0.00    +0.093 C 
ATOM     27  C   UNL     1      37.709 -26.516 -13.638  0.00  0.00    +0.026 C 
BRANCH  26  28
ATOM     28  C   UNL     1      36.578 -24.765 -12.194  0.00  0.00    -0.005 C 
ATOM     29  C   UNL     1      35.840 -25.120 -11.064  0.00  0.00    -0.003 C 
ATOM     30  C   UNL     1      37.393 -23.633 -12.167  0.00  0.00    -0.003 C 
ATOM     31  C   UNL     1      35.917 -24.343  -9.909  0.00  0.00    -0.000 C 
ATOM     32  C   UNL     1      37.469 -22.856 -11.011  0.00  0.00    -0.000 C 
ATOM     33  C   UNL     1      36.732 -23.211  -9.881  0.00  0.00    -0.000 C 
ENDBRANCH  26  28
ENDBRANCH   2  26
TORSDOF 6
ENDMDL
MODEL 4
REMARK VINA RESULT:     -10.8      8.281     13.656
REMARK  Name = 24941249
REMARK  6 active torsions:
REMARK  status: ('A' for Active; 'I' for Inactive)
REMARK    1  A    between atoms: N_1  and  C_13
REMARK    2  A    between atoms: N_2  and  C_26
REMARK    3  A    between atoms: C_14  and  C_19
REMARK    4  A    between atoms: C_19  and  C_20
REMARK    5  A    between atoms: C_20  and  C_23
REMARK    6  A    between atoms: C_26  and  C_28
REMARK                            x       y       z     vdW  Elec       q    Type
REMARK                         _______ _______ _______ _____ _____    ______ ____
ROOT
ATOM      1  N   UNL     1      33.205 -13.365 -23.071  0.00  0.00    -0.230 N 
ATOM      2  N   UNL     1      35.305 -17.406 -21.298  0.00  0.00    -0.316 N 
ATOM      3  N   UNL     1      33.013 -12.889 -24.313  0.00  0.00    -0.169 NA
ATOM      4  N   UNL     1      35.159 -16.907 -23.621  0.00  0.00    -0.229 NA
ATOM      5  C   UNL     1      33.855 -14.567 -23.025  0.00  0.00    +0.088 A 
ATOM      6  C   UNL     1      34.107 -14.899 -24.351  0.00  0.00    +0.052 A 
ATOM      7  C   UNL     1      33.564 -13.826 -25.090  0.00  0.00    +0.082 A 
ATOM      8  C   UNL     1      34.238 -15.377 -21.962  0.00  0.00    +0.053 C 
ATOM      9  C   UNL     1      34.890 -16.539 -22.344  0.00  0.00    +0.130 C 
ATOM     10  C   UNL     1      34.770 -16.092 -24.633  0.00  0.00    +0.103 C 
ATOM     11  C   UNL     1      33.550 -13.656 -26.553  0.00  0.00    +0.054 C 
ATOM     12  H   UNL     1      35.116 -17.148 -20.368  0.00  0.00    +0.148 HD
ENDROOT
BRANCH   1  13
ATOM     13  C   UNL     1      32.747 -12.633 -21.975  0.00  0.00    +0.082 C 
ATOM     14  C   UNL     1      31.929 -10.561 -21.037  0.00  0.00    -0.020 C 
ATOM     15  C   UNL     1      32.387 -11.294 -22.132  0.00  0.00    +0.015 C 
ATOM     16  C   UNL     1      32.647 -13.239 -20.723  0.00  0.00    +0.019 C 
ATOM     17  C   UNL     1      31.830 -11.168 -19.785  0.00  0.00    -0.004 C 
ATOM     18  C   UNL     1      32.188 -12.507 -19.628  0.00  0.00    +0.001 C 
BRANCH  14  19
ATOM     19  C   UNL     1      31.546  -9.130 -21.204  0.00  0.00    +0.036 C 
BRANCH  19  20
ATOM     20  C   UNL     1      32.766  -8.223 -21.405  0.00  0.00    +0.089 C 
BRANCH  20  23
ATOM     21  O   UNL     1      32.378  -5.885 -20.883  0.00  0.00    -0.275 OA
ATOM     22  N   UNL     1      33.176  -7.274 -19.232  0.00  0.00    -0.329 N 
ATOM     23  C   UNL     1      32.741  -6.997 -20.511  0.00  0.00    +0.220 C 
ATOM     24  H   UNL     1      33.206  -6.558 -18.558  0.00  0.00    +0.145 HD
ATOM     25  H   UNL     1      33.456  -8.187 -18.995  0.00  0.00    +0.145 HD
ENDBRANCH  20  23
ENDBRANCH  19  20
ENDBRANCH  14  19
ENDBRANCH   1  13
BRANCH   2  26
ATOM     26  C   UNL     1      35.983 -18.635 -21.544  0.00  0.00    +0.093 C 
ATOM     27  C   UNL     1      37.488 -18.425 -21.379  0.00  0.00    +0.026 C 
BRANCH  26  28
ATOM     28  C   UNL     1      35.436 -19.723 -20.646  0.00  0.00    -0.005 C 
ATOM     29  C   UNL     1      36.308 -20.519 -19.903  0.00  0.00    -0.003 C 
ATOM     30  C   UNL     1      34.059 -19.930 -20.561  0.00  0.00    -0.003 C 
ATOM     31  C   UNL     1      35.803 -21.522 -19.076  0.00  0.00    -0.000 C 
ATOM     32  C   UNL     1      33.554 -20.933 -19.734  0.00  0.00    -0.000 C 
ATOM     33  C   UNL     1      34.426 -21.729 -18.991  0.00  0.00    -0.000 C 
ENDBRANCH  26  28
ENDBRANCH   2  26
TORSDOF 6
ENDMDL
MODEL 5
REMARK VINA RESULT:     -10.7      2.489      7.529
REMARK  Name = 24941249
REMARK  6 active torsions:
REMARK  status: ('A' for Active; 'I' for Inactive)
REMARK    1  A    between atoms: N_1  and  C_13
REMARK    2  A    between atoms: N_2  and  C_26
REMARK    3  A    between atoms: C_14  and  C_19
REMARK    4  A    between atoms: C_19  and  C_20
REMARK    5  A    between atoms: C_20  and  C_23
REMARK    6  A    between atoms: C_26  and  C_28
REMARK                            x       y       z     vdW  Elec       q    Type
REMARK                         _______ _______ _______ _____ _____    ______ ____
ROOT
ATOM      1  N   UNL     1      32.560 -22.500 -17.226  0.00  0.00    -0.230 N 
ATOM      2  N   UNL     1      36.191 -24.733 -14.835  0.00  0.00    -0.316 N 
ATOM      3  N   UNL     1      31.232 -22.423 -17.031  0.00  0.00    -0.169 NA
ATOM      4  N   UNL     1      33.911 -24.834 -14.160  0.00  0.00    -0.229 NA
ATOM      5  C   UNL     1      33.221 -23.251 -16.292  0.00  0.00    +0.088 A 
ATOM      6  C   UNL     1      32.237 -23.697 -15.418  0.00  0.00    +0.052 A 
ATOM      7  C   UNL     1      31.040 -23.152 -15.929  0.00  0.00    +0.082 A 
ATOM      8  C   UNL     1      34.565 -23.571 -16.141  0.00  0.00    +0.053 C 
ATOM      9  C   UNL     1      34.832 -24.373 -15.041  0.00  0.00    +0.130 C 
ATOM     10  C   UNL     1      32.609 -24.501 -14.341  0.00  0.00    +0.103 C 
ATOM     11  C   UNL     1      29.678 -23.307 -15.389  0.00  0.00    +0.054 C 
ATOM     12  H   UNL     1      36.868 -24.405 -15.470  0.00  0.00    +0.148 HD
ENDROOT
BRANCH   1  13
ATOM     13  C   UNL     1      33.136 -21.841 -18.312  0.00  0.00    +0.082 C 
ATOM     14  C   UNL     1      35.095 -21.198 -19.572  0.00  0.00    -0.020 C 
ATOM     15  C   UNL     1      34.520 -21.858 -18.485  0.00  0.00    +0.015 C 
ATOM     16  C   UNL     1      32.327 -21.165 -19.226  0.00  0.00    +0.019 C 
ATOM     17  C   UNL     1      34.286 -20.523 -20.485  0.00  0.00    -0.004 C 
ATOM     18  C   UNL     1      32.902 -20.506 -20.313  0.00  0.00    +0.001 C 
BRANCH  14  19
ATOM     19  C   UNL     1      36.575 -21.215 -19.757  0.00  0.00    +0.036 C 
BRANCH  19  20
ATOM     20  C   UNL     1      37.232 -19.909 -19.296  0.00  0.00    +0.089 C 
BRANCH  20  23
ATOM     21  O   UNL     1      36.217 -17.883 -20.162  0.00  0.00    -0.275 OA
ATOM     22  N   UNL     1      37.925 -18.865 -21.349  0.00  0.00    -0.329 N 
ATOM     23  C   UNL     1      37.050 -18.776 -20.288  0.00  0.00    +0.220 C 
ATOM     24  H   UNL     1      37.904 -18.186 -22.061  0.00  0.00    +0.145 HD
ATOM     25  H   UNL     1      38.570 -19.607 -21.394  0.00  0.00    +0.145 HD
ENDBRANCH  20  23
ENDBRANCH  19  20
ENDBRANCH  14  19
ENDBRANCH   1  13
BRANCH   2  26
ATOM     26  C   UNL     1      36.611 -25.550 -13.747  0.00  0.00    +0.093 C 
ATOM     27  C   UNL     1      37.931 -26.232 -14.104  0.00  0.00    +0.026 C 
BRANCH  26  28
ATOM     28  C   UNL     1      36.695 -24.729 -12.478  0.00  0.00    -0.005 C 
ATOM     29  C   UNL     1      37.482 -23.578 -12.443  0.00  0.00    -0.003 C 
ATOM     30  C   UNL     1      35.984 -25.123 -11.345  0.00  0.00    -0.003 C 
ATOM     31  C   UNL     1      37.559 -22.821 -11.274  0.00  0.00    -0.000 C 
ATOM     32  C   UNL     1      36.061 -24.366 -10.176  0.00  0.00    -0.000 C 
ATOM     33  C   UNL     1      36.848 -23.215 -10.140  0.00  0.00    -0.000 C 
ENDBRANCH  26  28
ENDBRANCH   2  26
TORSDOF 6
ENDMDL
MODEL 6
REMARK VINA RESULT:     -10.5      3.607      6.743
REMARK  Name = 24941249
REMARK  6 active torsions:
REMARK  status: ('A' for Active; 'I' for Inactive)
REMARK    1  A    between atoms: N_1  and  C_13
REMARK    2  A    between atoms: N_2  and  C_26
REMARK    3  A    between atoms: C_14  and  C_19
REMARK    4  A    between atoms: C_19  and  C_20
REMARK    5  A    between atoms: C_20  and  C_23
REMARK    6  A    between atoms: C_26  and  C_28
REMARK                            x       y       z     vdW  Elec       q    Type
REMARK                         _______ _______ _______ _____ _____    ______ ____
ROOT
ATOM      1  N   UNL     1      33.040 -24.014 -14.156  0.00  0.00    -0.230 N 
ATOM      2  N   UNL     1      34.961 -21.890 -18.116  0.00  0.00    -0.316 N 
ATOM      3  N   UNL     1      33.549 -24.403 -12.975  0.00  0.00    -0.169 NA
ATOM      4  N   UNL     1      36.221 -22.435 -16.172  0.00  0.00    -0.229 NA
ATOM      5  C   UNL     1      33.954 -23.447 -15.001  0.00  0.00    +0.088 A 
ATOM      6  C   UNL     1      35.158 -23.470 -14.307  0.00  0.00    +0.052 A 
ATOM      7  C   UNL     1      34.839 -24.070 -13.071  0.00  0.00    +0.082 A 
ATOM      8  C   UNL     1      33.835 -22.926 -16.284  0.00  0.00    +0.053 C 
ATOM      9  C   UNL     1      35.022 -22.435 -16.806  0.00  0.00    +0.130 C 
ATOM     10  C   UNL     1      36.298 -22.951 -14.920  0.00  0.00    +0.103 C 
ATOM     11  C   UNL     1      35.745 -24.346 -11.943  0.00  0.00    +0.054 C 
ATOM     12  H   UNL     1      34.097 -21.886 -18.586  0.00  0.00    +0.148 HD
ENDROOT
BRANCH   1  13
ATOM     13  C   UNL     1      31.683 -24.208 -14.419  0.00  0.00    +0.082 C 
ATOM     14  C   UNL     1      29.608 -23.437 -15.387  0.00  0.00    -0.020 C 
ATOM     15  C   UNL     1      30.965 -23.243 -15.125  0.00  0.00    +0.015 C 
ATOM     16  C   UNL     1      31.046 -25.366 -13.975  0.00  0.00    +0.019 C 
ATOM     17  C   UNL     1      28.971 -24.596 -14.943  0.00  0.00    -0.004 C 
ATOM     18  C   UNL     1      29.690 -25.561 -14.238  0.00  0.00    +0.001 C 
BRANCH  14  19
ATOM     19  C   UNL     1      28.839 -22.405 -16.141  0.00  0.00    +0.036 C 
BRANCH  19  20
ATOM     20  C   UNL     1      27.520 -22.955 -16.696  0.00  0.00    +0.089 C 
BRANCH  20  23
ATOM     21  O   UNL     1      25.750 -22.264 -15.187  0.00  0.00    -0.275 OA
ATOM     22  N   UNL     1      25.926 -21.237 -17.237  0.00  0.00    -0.329 N 
ATOM     23  C   UNL     1      26.315 -22.138 -16.269  0.00  0.00    +0.220 C 
ATOM     24  H   UNL     1      25.154 -20.648 -17.078  0.00  0.00    +0.145 HD
ATOM     25  H   UNL     1      26.419 -21.184 -18.087  0.00  0.00    +0.145 HD
ENDBRANCH  20  23
ENDBRANCH  19  20
ENDBRANCH  14  19
ENDBRANCH   1  13
BRANCH   2  26
ATOM     26  C   UNL     1      36.102 -21.348 -18.776  0.00  0.00    +0.093 C 
ATOM     27  C   UNL     1      37.012 -22.488 -19.234  0.00  0.00    +0.026 C 
BRANCH  26  28
ATOM     28  C   UNL     1      35.670 -20.444 -19.910  0.00  0.00    -0.005 C 
ATOM     29  C   UNL     1      34.364 -20.508 -20.394  0.00  0.00    -0.003 C 
ATOM     30  C   UNL     1      36.578 -19.546 -20.470  0.00  0.00    -0.003 C 
ATOM     31  C   UNL     1      33.966 -19.675 -21.440  0.00  0.00    -0.000 C 
ATOM     32  C   UNL     1      36.180 -18.713 -21.516  0.00  0.00    -0.000 C 
ATOM     33  C   UNL     1      34.874 -18.777 -22.000  0.00  0.00    -0.000 C 
ENDBRANCH  26  28
ENDBRANCH   2  26
TORSDOF 6
ENDMDL
MODEL 7
REMARK VINA RESULT:      -9.8      3.144      7.357
REMARK  Name = 24941249
REMARK  6 active torsions:
REMARK  status: ('A' for Active; 'I' for Inactive)
REMARK    1  A    between atoms: N_1  and  C_13
REMARK    2  A    between atoms: N_2  and  C_26
REMARK    3  A    between atoms: C_14  and  C_19
REMARK    4  A    between atoms: C_19  and  C_20
REMARK    5  A    between atoms: C_20  and  C_23
REMARK    6  A    between atoms: C_26  and  C_28
REMARK                            x       y       z     vdW  Elec       q    Type
REMARK                         _______ _______ _______ _____ _____    ______ ____
ROOT
ATOM      1  N   UNL     1      37.071 -22.854 -15.535  0.00  0.00    -0.230 N 
ATOM      2  N   UNL     1      32.263 -23.341 -14.813  0.00  0.00    -0.316 N 
ATOM      3  N   UNL     1      38.153 -23.450 -15.004  0.00  0.00    -0.169 NA
ATOM      4  N   UNL     1      33.905 -24.610 -13.648  0.00  0.00    -0.229 NA
ATOM      5  C   UNL     1      35.881 -23.304 -15.033  0.00  0.00    +0.088 A 
ATOM      6  C   UNL     1      36.221 -24.273 -14.097  0.00  0.00    +0.052 A 
ATOM      7  C   UNL     1      37.631 -24.313 -14.129  0.00  0.00    +0.082 A 
ATOM      8  C   UNL     1      34.565 -22.953 -15.311  0.00  0.00    +0.053 C 
ATOM      9  C   UNL     1      33.627 -23.657 -14.571  0.00  0.00    +0.130 C 
ATOM     10  C   UNL     1      35.202 -24.925 -13.404  0.00  0.00    +0.103 C 
ATOM     11  C   UNL     1      38.525 -25.169 -13.333  0.00  0.00    +0.054 C 
ATOM     12  H   UNL     1      32.049 -22.650 -15.481  0.00  0.00    +0.148 HD
ENDROOT
BRANCH   1  13
ATOM     13  C   UNL     1      37.237 -21.871 -16.512  0.00  0.00    +0.082 C 
ATOM     14  C   UNL     1      36.764 -21.017 -18.722  0.00  0.00    -0.020 C 
ATOM     15  C   UNL     1      36.599 -21.999 -17.746  0.00  0.00    +0.015 C 
ATOM     16  C   UNL     1      38.040 -20.761 -16.254  0.00  0.00    +0.019 C 
ATOM     17  C   UNL     1      37.567 -19.906 -18.464  0.00  0.00    -0.004 C 
ATOM     18  C   UNL     1      38.206 -19.777 -17.230  0.00  0.00    +0.001 C 
BRANCH  14  19
ATOM     19  C   UNL     1      36.083 -21.154 -20.041  0.00  0.00    +0.036 C 
BRANCH  19  20
ATOM     20  C   UNL     1      34.918 -20.170 -20.198  0.00  0.00    +0.089 C 
BRANCH  20  23
ATOM     21  O   UNL     1      35.142 -19.231 -22.424  0.00  0.00    -0.275 OA
ATOM     22  N   UNL     1      35.542 -17.882 -20.605  0.00  0.00    -0.329 N 
ATOM     23  C   UNL     1      35.203 -19.075 -21.208  0.00  0.00    +0.220 C 
ATOM     24  H   UNL     1      35.750 -17.095 -21.156  0.00  0.00    +0.145 HD
ATOM     25  H   UNL     1      35.575 -17.820 -19.623  0.00  0.00    +0.145 HD
ENDBRANCH  20  23
ENDBRANCH  19  20
ENDBRANCH  14  19
ENDBRANCH   1  13
BRANCH   2  26
ATOM     26  C   UNL     1      31.193 -23.986 -14.128  0.00  0.00    +0.093 C 
ATOM     27  C   UNL     1      31.181 -23.535 -12.668  0.00  0.00    +0.026 C 
BRANCH  26  28
ATOM     28  C   UNL     1      29.883 -23.723 -14.839  0.00  0.00    -0.005 C 
ATOM     29  C   UNL     1      29.388 -24.652 -15.754  0.00  0.00    -0.003 C 
ATOM     30  C   UNL     1      29.171 -22.553 -14.578  0.00  0.00    -0.003 C 
ATOM     31  C   UNL     1      28.181 -24.409 -16.409  0.00  0.00    -0.000 C 
ATOM     32  C   UNL     1      27.964 -22.310 -15.234  0.00  0.00    -0.000 C 
ATOM     33  C   UNL     1      27.468 -23.239 -16.149  0.00  0.00    -0.000 C 
ENDBRANCH  26  28
ENDBRANCH   2  26
TORSDOF 6
ENDMDL
MODEL 8
REMARK VINA RESULT:      -9.7      2.382      7.414
REMARK  Name = 24941249
REMARK  6 active torsions:
REMARK  status: ('A' for Active; 'I' for Inactive)
REMARK    1  A    between atoms: N_1  and  C_13
REMARK    2  A    between atoms: N_2  and  C_26
REMARK    3  A    between atoms: C_14  and  C_19
REMARK    4  A    between atoms: C_19  and  C_20
REMARK    5  A    between atoms: C_20  and  C_23
REMARK    6  A    between atoms: C_26  and  C_28
REMARK                            x       y       z     vdW  Elec       q    Type
REMARK                         _______ _______ _______ _____ _____    ______ ____
ROOT
ATOM      1  N   UNL     1      32.847 -22.618 -17.058  0.00  0.00    -0.230 N 
ATOM      2  N   UNL     1      36.875 -23.900 -14.606  0.00  0.00    -0.316 N 
ATOM      3  N   UNL     1      31.533 -22.808 -16.846  0.00  0.00    -0.169 NA
ATOM      4  N   UNL     1      34.670 -24.436 -13.890  0.00  0.00    -0.229 NA
ATOM      5  C   UNL     1      33.654 -23.158 -16.095  0.00  0.00    +0.088 A 
ATOM      6  C   UNL     1      32.790 -23.748 -15.182  0.00  0.00    +0.052 A 
ATOM      7  C   UNL     1      31.503 -23.496 -15.703  0.00  0.00    +0.082 A 
ATOM      8  C   UNL     1      35.036 -23.181 -15.948  0.00  0.00    +0.053 C 
ATOM      9  C   UNL     1      35.470 -23.845 -14.810  0.00  0.00    +0.130 C 
ATOM     10  C   UNL     1      33.326 -24.393 -14.067  0.00  0.00    +0.103 C 
ATOM     11  C   UNL     1      30.206 -23.900 -15.133  0.00  0.00    +0.054 C 
ATOM     12  H   UNL     1      37.466 -23.475 -15.269  0.00  0.00    +0.148 HD
ENDROOT
BRANCH   1  13
ATOM     13  C   UNL     1      33.267 -21.916 -18.189  0.00  0.00    +0.082 C 
ATOM     14  C   UNL     1      35.042 -21.168 -19.648  0.00  0.00    -0.020 C 
ATOM     15  C   UNL     1      34.622 -21.869 -18.517  0.00  0.00    +0.015 C 
ATOM     16  C   UNL     1      32.332 -21.264 -18.992  0.00  0.00    +0.019 C 
ATOM     17  C   UNL     1      34.107 -20.515 -20.451  0.00  0.00    -0.004 C 
ATOM     18  C   UNL     1      32.752 -20.563 -20.124  0.00  0.00    +0.001 C 
BRANCH  14  19
ATOM     19  C   UNL     1      36.491 -21.116 -19.998  0.00  0.00    +0.036 C 
BRANCH  19  20
ATOM     20  C   UNL     1      37.138 -19.786 -19.593  0.00  0.00    +0.089 C 
BRANCH  20  23
ATOM     21  O   UNL     1      37.949 -18.716 -21.614  0.00  0.00    -0.275 OA
ATOM     22  N   UNL     1      36.067 -17.877 -20.592  0.00  0.00    -0.329 N 
ATOM     23  C   UNL     1      37.120 -18.759 -20.710  0.00  0.00    +0.220 C 
ATOM     24  H   UNL     1      35.948 -17.163 -21.258  0.00  0.00    +0.145 HD
ATOM     25  H   UNL     1      35.435 -17.963 -19.842  0.00  0.00    +0.145 HD
ENDBRANCH  20  23
ENDBRANCH  19  20
ENDBRANCH  14  19
ENDBRANCH   1  13
BRANCH   2  26
ATOM     26  C   UNL     1      37.462 -24.547 -13.481  0.00  0.00    +0.093 C 
ATOM     27  C   UNL     1      36.365 -25.200 -12.641  0.00  0.00    +0.026 C 
BRANCH  26  28
ATOM     28  C   UNL     1      38.521 -25.528 -13.935  0.00  0.00    -0.005 C 
ATOM     29  C   UNL     1      38.194 -26.539 -14.839  0.00  0.00    -0.003 C 
ATOM     30  C   UNL     1      39.824 -25.421 -13.450  0.00  0.00    -0.003 C 
ATOM     31  C   UNL     1      39.170 -27.443 -15.258  0.00  0.00    -0.000 C 
ATOM     32  C   UNL     1      40.801 -26.325 -13.869  0.00  0.00    -0.000 C 
ATOM     33  C   UNL     1      40.474 -27.336 -14.773  0.00  0.00    -0.000 C 
ENDBRANCH  26  28
ENDBRANCH   2  26
TORSDOF 6
ENDMDL
MODEL 9
REMARK VINA RESULT:      -9.5      9.583     14.113
REMARK  Name = 24941249
REMARK  6 active torsions:
REMARK  status: ('A' for Active; 'I' for Inactive)
REMARK    1  A    between atoms: N_1  and  C_13
REMARK    2  A    between atoms: N_2  and  C_26
REMARK    3  A    between atoms: C_14  and  C_19
REMARK    4  A    between atoms: C_19  and  C_20
REMARK    5  A    between atoms: C_20  and  C_23
REMARK    6  A    between atoms: C_26  and  C_28
REMARK                            x       y       z     vdW  Elec       q    Type
REMARK                         _______ _______ _______ _____ _____    ______ ____
ROOT
ATOM      1  N   UNL     1      33.806 -13.193 -23.605  0.00  0.00    -0.230 N 
ATOM      2  N   UNL     1      32.561  -9.019 -21.391  0.00  0.00    -0.316 N 
ATOM      3  N   UNL     1      33.885 -13.571 -24.893  0.00  0.00    -0.169 NA
ATOM      4  N   UNL     1      32.577  -9.302 -23.753  0.00  0.00    -0.229 NA
ATOM      5  C   UNL     1      33.404 -11.898 -23.425  0.00  0.00    +0.088 A 
ATOM      6  C   UNL     1      33.206 -11.394 -24.705  0.00  0.00    +0.052 A 
ATOM      7  C   UNL     1      33.519 -12.473 -25.559  0.00  0.00    +0.082 A 
ATOM      8  C   UNL     1      33.201 -11.140 -22.278  0.00  0.00    +0.053 C 
ATOM      9  C   UNL     1      32.784  -9.841 -22.527  0.00  0.00    +0.130 C 
ATOM     10  C   UNL     1      32.786 -10.073 -24.850  0.00  0.00    +0.103 C 
ATOM     11  C   UNL     1      33.481 -12.496 -27.031  0.00  0.00    +0.054 C 
ATOM     12  H   UNL     1      32.707  -9.400 -20.495  0.00  0.00    +0.148 HD
ENDROOT
BRANCH   1  13
ATOM     13  C   UNL     1      34.125 -14.106 -22.599  0.00  0.00    +0.082 C 
ATOM     14  C   UNL     1      34.970 -16.268 -21.926  0.00  0.00    -0.020 C 
ATOM     15  C   UNL     1      34.650 -15.355 -22.932  0.00  0.00    +0.015 C 
ATOM     16  C   UNL     1      33.921 -13.769 -21.261  0.00  0.00    +0.019 C 
ATOM     17  C   UNL     1      34.765 -15.931 -20.588  0.00  0.00    -0.004 C 
ATOM     18  C   UNL     1      34.241 -14.681 -20.255  0.00  0.00    +0.001 C 
BRANCH  14  19
ATOM     19  C   UNL     1      35.529 -17.603 -22.281  0.00  0.00    +0.036 C 
BRANCH  19  20
ATOM     20  C   UNL     1      35.739 -18.491 -21.049  0.00  0.00    +0.089 C 
BRANCH  20  23
ATOM     21  O   UNL     1      37.612 -18.837 -19.547  0.00  0.00    -0.275 OA
ATOM     22  N   UNL     1      38.023 -18.603 -21.798  0.00  0.00    -0.329 N 
ATOM     23  C   UNL     1      37.203 -18.664 -20.691  0.00  0.00    +0.220 C 
ATOM     24  H   UNL     1      38.996 -18.702 -21.694  0.00  0.00    +0.145 HD
ATOM     25  H   UNL     1      37.634 -18.461 -22.690  0.00  0.00    +0.145 HD
ENDBRANCH  20  23
ENDBRANCH  19  20
ENDBRANCH  14  19
ENDBRANCH   1  13
BRANCH   2  26
ATOM     26  C   UNL     1      32.133  -7.664 -21.497  0.00  0.00    +0.093 C 
ATOM     27  C   UNL     1      32.140  -7.020 -20.111  0.00  0.00    +0.026 C 
BRANCH  26  28
ATOM     28  C   UNL     1      32.990  -6.922 -22.498  0.00  0.00    -0.005 C 
ATOM     29  C   UNL     1      32.402  -6.028 -23.394  0.00  0.00    -0.003 C 
ATOM     30  C   UNL     1      34.369  -7.130 -22.526  0.00  0.00    -0.003 C 
ATOM     31  C   UNL     1      33.193  -5.344 -24.317  0.00  0.00    -0.000 C 
ATOM     32  C   UNL     1      35.160  -6.446 -23.449  0.00  0.00    -0.000 C 
ATOM     33  C   UNL     1      34.572  -5.553 -24.345  0.00  0.00    -0.000 C 
ENDBRANCH  26  28
ENDBRANCH   2  26
TORSDOF 6
ENDMDL
