MODEL 1
REMARK VINA RESULT:     -12.4      0.000      0.000
REMARK  Name = 9800765
REMARK  5 active torsions:
REMARK  status: ('A' for Active; 'I' for Inactive)
REMARK    1  A    between atoms: C_3  and  C_17
REMARK    2  A    between atoms: C_5  and  N_8
REMARK    3  A    between atoms: N_8  and  C_14
REMARK    4  A    between atoms: C_17  and  C_20
REMARK    5  A    between atoms: C_23  and  C_26
REMARK                            x       y       z     vdW  Elec       q    Type
REMARK                         _______ _______ _______ _____ _____    ______ ____
ROOT
ATOM      1  O   UNL     1      36.467 -22.786 -15.299  0.00  0.00    -0.337 OA
ATOM      2  N   UNL     1      35.759 -22.793 -16.494  0.00  0.00    -0.079 NA
ATOM      3  C   UNL     1      34.513 -23.134 -16.156  0.00  0.00    +0.106 C 
ATOM      4  C   UNL     1      34.376 -23.353 -14.775  0.00  0.00    +0.076 C 
ATOM      5  C   UNL     1      35.629 -23.120 -14.291  0.00  0.00    +0.252 C 
ENDROOT
BRANCH   3   6
ATOM      6  C   UNL     1      33.474 -23.240 -17.193  0.00  0.00    +0.066 C 
ATOM      7  C   UNL     1      32.029 -23.163 -16.641  0.00  0.00    +0.011 C 
BRANCH   6   9
ATOM      8  F   UNL     1      36.695 -20.900 -19.981  0.00  0.00    -0.204 F 
ATOM      9  C   UNL     1      33.802 -22.210 -18.279  0.00  0.00    -0.015 C 
ATOM     10  C   UNL     1      35.117 -22.028 -18.634  0.00  0.00    +0.026 C 
ATOM     11  C   UNL     1      32.768 -21.508 -18.853  0.00  0.00    -0.004 C 
ATOM     12  C   UNL     1      34.391 -20.361 -20.225  0.00  0.00    +0.027 C 
ATOM     13  C   UNL     1      35.416 -21.090 -19.623  0.00  0.00    +0.140 C 
ATOM     14  C   UNL     1      33.067 -20.570 -19.840  0.00  0.00    +0.002 C 
BRANCH  12  15
ATOM     15  C   UNL     1      34.697 -19.388 -21.252  0.00  0.00    +0.002 C 
ATOM     16  C   UNL     1      34.295 -19.616 -22.569  0.00  0.00    +0.000 C 
ATOM     17  C   UNL     1      35.391 -18.223 -20.926  0.00  0.00    +0.000 C 
ATOM     18  C   UNL     1      34.587 -18.678 -23.558  0.00  0.00    +0.000 C 
ATOM     19  C   UNL     1      35.683 -17.286 -21.916  0.00  0.00    +0.000 C 
ATOM     20  C   UNL     1      35.282 -17.513 -23.233  0.00  0.00    +0.000 C 
ENDBRANCH  12  15
ENDBRANCH   6   9
ENDBRANCH   3   6
BRANCH   5  21
ATOM     21  N   UNL     1      36.084 -23.184 -13.009  0.00  0.00    -0.147 NA
BRANCH  21  29
ATOM     22  O   UNL     1      39.271 -26.656 -14.011  0.00  0.00    -0.350 OA
ATOM     23  N   UNL     1      37.270 -25.148 -12.760  0.00  0.00    -0.277 N 
ATOM     24  N   UNL     1      35.344 -24.993 -11.586  0.00  0.00    -0.373 N 
ATOM     25  C   UNL     1      37.195 -26.607 -12.759  0.00  0.00    +0.125 C 
ATOM     26  C   UNL     1      38.615 -24.599 -12.906  0.00  0.00    +0.125 C 
ATOM     27  C   UNL     1      37.930 -27.150 -13.978  0.00  0.00    +0.164 C 
ATOM     28  C   UNL     1      39.288 -25.231 -14.118  0.00  0.00    +0.164 C 
ATOM     29  C   UNL     1      36.203 -24.371 -12.468  0.00  0.00    +0.182 C 
ATOM     30  H   UNL     1      35.549 -25.897 -11.252  0.00  0.00    +0.158 HD
ATOM     31  H   UNL     1      34.524 -24.535 -11.290  0.00  0.00    +0.158 HD
ENDBRANCH  21  29
ENDBRANCH   5  21
TORSDOF 5
ENDMDL
MODEL 2
REMARK VINA RESULT:     -12.1      3.930      7.104
REMARK  Name = 9800765
REMARK  5 active torsions:
REMARK  status: ('A' for Active; 'I' for Inactive)
REMARK    1  A    between atoms: C_3  and  C_17
REMARK    2  A    between atoms: C_5  and  N_8
REMARK    3  A    between atoms: N_8  and  C_14
REMARK    4  A    between atoms: C_17  and  C_20
REMARK    5  A    between atoms: C_23  and  C_26
REMARK                            x       y       z     vdW  Elec       q    Type
REMARK                         _______ _______ _______ _____ _____    ______ ____
ROOT
ATOM      1  O   UNL     1      35.994 -19.402 -20.129  0.00  0.00    -0.337 OA
ATOM      2  N   UNL     1      36.285 -18.680 -21.281  0.00  0.00    -0.079 NA
ATOM      3  C   UNL     1      35.280 -18.949 -22.120  0.00  0.00    +0.106 C 
ATOM      4  C   UNL     1      34.336 -19.825 -21.558  0.00  0.00    +0.076 C 
ATOM      5  C   UNL     1      34.835 -20.073 -20.313  0.00  0.00    +0.252 C 
ENDROOT
BRANCH   3   6
ATOM      6  C   UNL     1      35.261 -18.342 -23.460  0.00  0.00    +0.066 C 
ATOM      7  C   UNL     1      34.509 -19.186 -24.518  0.00  0.00    +0.011 C 
BRANCH   6   9
ATOM      8  F   UNL     1      34.692 -14.308 -20.809  0.00  0.00    -0.204 F 
ATOM      9  C   UNL     1      34.752 -16.905 -23.305  0.00  0.00    -0.015 C 
ATOM     10  C   UNL     1      34.960 -16.260 -22.110  0.00  0.00    +0.026 C 
ATOM     11  C   UNL     1      34.105 -16.319 -24.369  0.00  0.00    -0.004 C 
ATOM     12  C   UNL     1      33.837 -14.328 -23.028  0.00  0.00    +0.027 C 
ATOM     13  C   UNL     1      34.496 -14.952 -21.969  0.00  0.00    +0.140 C 
ATOM     14  C   UNL     1      33.642 -15.011 -24.227  0.00  0.00    +0.002 C 
BRANCH  12  15
ATOM     15  C   UNL     1      33.356 -12.970 -22.887  0.00  0.00    +0.002 C 
ATOM     16  C   UNL     1      33.890 -11.956 -23.682  0.00  0.00    +0.000 C 
ATOM     17  C   UNL     1      32.358 -12.677 -21.958  0.00  0.00    +0.000 C 
ATOM     18  C   UNL     1      33.426 -10.648 -23.548  0.00  0.00    +0.000 C 
ATOM     19  C   UNL     1      31.894 -11.368 -21.825  0.00  0.00    +0.000 C 
ATOM     20  C   UNL     1      32.428 -10.353 -22.618  0.00  0.00    +0.000 C 
ENDBRANCH  12  15
ENDBRANCH   6   9
ENDBRANCH   3   6
BRANCH   5  21
ATOM     21  N   UNL     1      34.329 -20.860 -19.322  0.00  0.00    -0.147 NA
BRANCH  21  29
ATOM     22  O   UNL     1      33.500 -23.709 -15.526  0.00  0.00    -0.350 OA
ATOM     23  N   UNL     1      34.717 -22.486 -17.733  0.00  0.00    -0.277 N 
ATOM     24  N   UNL     1      36.542 -21.682 -18.799  0.00  0.00    -0.373 N 
ATOM     25  C   UNL     1      35.519 -22.869 -16.574  0.00  0.00    +0.125 C 
ATOM     26  C   UNL     1      33.483 -23.247 -17.907  0.00  0.00    +0.125 C 
ATOM     27  C   UNL     1      34.640 -22.870 -15.329  0.00  0.00    +0.164 C 
ATOM     28  C   UNL     1      32.692 -23.231 -16.605  0.00  0.00    +0.164 C 
ATOM     29  C   UNL     1      35.170 -21.622 -18.669  0.00  0.00    +0.182 C 
ATOM     30  H   UNL     1      37.063 -22.304 -18.241  0.00  0.00    +0.158 HD
ATOM     31  H   UNL     1      37.001 -21.102 -19.449  0.00  0.00    +0.158 HD
ENDBRANCH  21  29
ENDBRANCH   5  21
TORSDOF 5
ENDMDL
MODEL 3
REMARK VINA RESULT:     -11.9      1.744      2.158
REMARK  Name = 9800765
REMARK  5 active torsions:
REMARK  status: ('A' for Active; 'I' for Inactive)
REMARK    1  A    between atoms: C_3  and  C_17
REMARK    2  A    between atoms: C_5  and  N_8
REMARK    3  A    between atoms: N_8  and  C_14
REMARK    4  A    between atoms: C_17  and  C_20
REMARK    5  A    between atoms: C_23  and  C_26
REMARK                            x       y       z     vdW  Elec       q    Type
REMARK                         _______ _______ _______ _____ _____    ______ ____
ROOT
ATOM      1  O   UNL     1      34.286 -23.908 -13.621  0.00  0.00    -0.337 OA
ATOM      2  N   UNL     1      33.157 -23.555 -14.350  0.00  0.00    -0.079 NA
ATOM      3  C   UNL     1      33.520 -23.677 -15.630  0.00  0.00    +0.106 C 
ATOM      4  C   UNL     1      34.853 -24.101 -15.768  0.00  0.00    +0.076 C 
ATOM      5  C   UNL     1      35.280 -24.229 -14.480  0.00  0.00    +0.252 C 
ENDROOT
BRANCH   3   6
ATOM      6  C   UNL     1      32.553 -23.378 -16.699  0.00  0.00    +0.066 C 
ATOM      7  C   UNL     1      31.207 -22.812 -16.183  0.00  0.00    +0.011 C 
BRANCH   6   9
ATOM      8  F   UNL     1      32.426 -20.234 -20.403  0.00  0.00    -0.204 F 
ATOM      9  C   UNL     1      33.267 -22.498 -17.729  0.00  0.00    -0.015 C 
ATOM     10  C   UNL     1      32.505 -21.761 -18.604  0.00  0.00    +0.026 C 
ATOM     11  C   UNL     1      34.643 -22.481 -17.740  0.00  0.00    -0.004 C 
ATOM     12  C   UNL     1      34.549 -20.920 -19.579  0.00  0.00    +0.027 C 
ATOM     13  C   UNL     1      33.155 -20.960 -19.542  0.00  0.00    +0.140 C 
ATOM     14  C   UNL     1      35.292 -21.681 -18.678  0.00  0.00    +0.002 C 
BRANCH  12  15
ATOM     15  C   UNL     1      35.228 -20.089 -20.550  0.00  0.00    +0.002 C 
ATOM     16  C   UNL     1      34.616 -19.804 -21.772  0.00  0.00    +0.000 C 
ATOM     17  C   UNL     1      36.491 -19.573 -20.265  0.00  0.00    +0.000 C 
ATOM     18  C   UNL     1      35.269 -19.002 -22.708  0.00  0.00    +0.000 C 
ATOM     19  C   UNL     1      37.144 -18.771 -21.202  0.00  0.00    +0.000 C 
ATOM     20  C   UNL     1      36.534 -18.486 -22.424  0.00  0.00    +0.000 C 
ENDBRANCH  12  15
ENDBRANCH   6   9
ENDBRANCH   3   6
BRANCH   5  21
ATOM     21  N   UNL     1      36.500 -24.614 -14.010  0.00  0.00    -0.147 NA
BRANCH  21  29
ATOM     22  O   UNL     1      40.968 -26.389 -14.323  0.00  0.00    -0.350 OA
ATOM     23  N   UNL     1      38.181 -26.189 -14.130  0.00  0.00    -0.277 N 
ATOM     24  N   UNL     1      36.100 -26.915 -14.635  0.00  0.00    -0.373 N 
ATOM     25  C   UNL     1      38.784 -27.247 -14.937  0.00  0.00    +0.125 C 
ATOM     26  C   UNL     1      39.027 -25.673 -13.057  0.00  0.00    +0.125 C 
ATOM     27  C   UNL     1      40.152 -26.788 -15.427  0.00  0.00    +0.164 C 
ATOM     28  C   UNL     1      40.384 -25.284 -13.630  0.00  0.00    +0.164 C 
ATOM     29  C   UNL     1      36.880 -25.844 -14.250  0.00  0.00    +0.182 C 
ATOM     30  H   UNL     1      36.513 -27.796 -14.787  0.00  0.00    +0.158 HD
ATOM     31  H   UNL     1      35.130 -26.799 -14.760  0.00  0.00    +0.158 HD
ENDBRANCH  21  29
ENDBRANCH   5  21
TORSDOF 5
ENDMDL
MODEL 4
REMARK VINA RESULT:     -11.2      1.482      2.151
REMARK  Name = 9800765
REMARK  5 active torsions:
REMARK  status: ('A' for Active; 'I' for Inactive)
REMARK    1  A    between atoms: C_3  and  C_17
REMARK    2  A    between atoms: C_5  and  N_8
REMARK    3  A    between atoms: N_8  and  C_14
REMARK    4  A    between atoms: C_17  and  C_20
REMARK    5  A    between atoms: C_23  and  C_26
REMARK                            x       y       z     vdW  Elec       q    Type
REMARK                         _______ _______ _______ _____ _____    ______ ____
ROOT
ATOM      1  O   UNL     1      33.990 -23.444 -13.554  0.00  0.00    -0.337 OA
ATOM      2  N   UNL     1      32.917 -23.174 -14.393  0.00  0.00    -0.079 NA
ATOM      3  C   UNL     1      33.342 -23.505 -15.616  0.00  0.00    +0.106 C 
ATOM      4  C   UNL     1      34.663 -23.985 -15.609  0.00  0.00    +0.076 C 
ATOM      5  C   UNL     1      35.015 -23.925 -14.293  0.00  0.00    +0.252 C 
ENDROOT
BRANCH   3   6
ATOM      6  C   UNL     1      32.446 -23.346 -16.773  0.00  0.00    +0.066 C 
ATOM      7  C   UNL     1      31.022 -22.868 -16.399  0.00  0.00    +0.011 C 
BRANCH   6   9
ATOM      8  F   UNL     1      36.533 -21.841 -18.931  0.00  0.00    -0.204 F 
ATOM      9  C   UNL     1      33.171 -22.466 -17.796  0.00  0.00    -0.015 C 
ATOM     10  C   UNL     1      34.539 -22.561 -17.893  0.00  0.00    +0.026 C 
ATOM     11  C   UNL     1      32.425 -21.614 -18.577  0.00  0.00    -0.004 C 
ATOM     12  C   UNL     1      34.471 -20.886 -19.632  0.00  0.00    +0.027 C 
ATOM     13  C   UNL     1      35.199 -21.760 -18.825  0.00  0.00    +0.140 C 
ATOM     14  C   UNL     1      33.084 -20.813 -19.508  0.00  0.00    +0.002 C 
BRANCH  12  15
ATOM     15  C   UNL     1      35.151 -20.054 -20.601  0.00  0.00    +0.002 C 
ATOM     16  C   UNL     1      36.427 -19.560 -20.322  0.00  0.00    +0.000 C 
ATOM     17  C   UNL     1      34.533 -19.746 -21.812  0.00  0.00    +0.000 C 
ATOM     18  C   UNL     1      37.083 -18.759 -21.256  0.00  0.00    +0.000 C 
ATOM     19  C   UNL     1      35.191 -18.944 -22.746  0.00  0.00    +0.000 C 
ATOM     20  C   UNL     1      36.465 -18.450 -22.468  0.00  0.00    +0.000 C 
ENDBRANCH  12  15
ENDBRANCH   6   9
ENDBRANCH   3   6
BRANCH   5  21
ATOM     21  N   UNL     1      36.192 -24.269 -13.698  0.00  0.00    -0.147 NA
BRANCH  21  29
ATOM     22  O   UNL     1      40.074 -27.035 -14.399  0.00  0.00    -0.350 OA
ATOM     23  N   UNL     1      38.212 -24.951 -14.580  0.00  0.00    -0.277 N 
ATOM     24  N   UNL     1      37.701 -22.764 -14.840  0.00  0.00    -0.373 N 
ATOM     25  C   UNL     1      39.641 -24.665 -14.676  0.00  0.00    +0.125 C 
ATOM     26  C   UNL     1      37.828 -26.309 -14.954  0.00  0.00    +0.125 C 
ATOM     27  C   UNL     1      40.421 -25.734 -13.920  0.00  0.00    +0.164 C 
ATOM     28  C   UNL     1      38.687 -27.306 -14.186  0.00  0.00    +0.164 C 
ATOM     29  C   UNL     1      37.298 -23.985 -14.339  0.00  0.00    +0.182 C 
ATOM     30  H   UNL     1      38.565 -22.683 -15.306  0.00  0.00    +0.158 HD
ATOM     31  H   UNL     1      37.125 -21.972 -14.732  0.00  0.00    +0.158 HD
ENDBRANCH  21  29
ENDBRANCH   5  21
TORSDOF 5
ENDMDL
MODEL 5
REMARK VINA RESULT:     -11.2      5.788     11.029
REMARK  Name = 9800765
REMARK  5 active torsions:
REMARK  status: ('A' for Active; 'I' for Inactive)
REMARK    1  A    between atoms: C_3  and  C_17
REMARK    2  A    between atoms: C_5  and  N_8
REMARK    3  A    between atoms: N_8  and  C_14
REMARK    4  A    between atoms: C_17  and  C_20
REMARK    5  A    between atoms: C_23  and  C_26
REMARK                            x       y       z     vdW  Elec       q    Type
REMARK                         _______ _______ _______ _____ _____    ______ ____
ROOT
ATOM      1  O   UNL     1      34.929 -15.699 -20.137  0.00  0.00    -0.337 OA
ATOM      2  N   UNL     1      35.345 -17.024 -20.187  0.00  0.00    -0.079 NA
ATOM      3  C   UNL     1      35.399 -17.321 -21.488  0.00  0.00    +0.106 C 
ATOM      4  C   UNL     1      35.032 -16.234 -22.299  0.00  0.00    +0.076 C 
ATOM      5  C   UNL     1      34.749 -15.249 -21.399  0.00  0.00    +0.252 C 
ENDROOT
BRANCH   3   6
ATOM      6  C   UNL     1      35.811 -18.667 -21.917  0.00  0.00    +0.066 C 
ATOM      7  C   UNL     1      37.280 -18.746 -22.402  0.00  0.00    +0.011 C 
BRANCH   6   9
ATOM      8  F   UNL     1      32.514 -21.061 -19.267  0.00  0.00    -0.204 F 
ATOM      9  C   UNL     1      35.455 -19.638 -20.787  0.00  0.00    -0.015 C 
ATOM     10  C   UNL     1      34.129 -19.905 -20.545  0.00  0.00    +0.026 C 
ATOM     11  C   UNL     1      36.476 -20.203 -20.059  0.00  0.00    -0.004 C 
ATOM     12  C   UNL     1      34.816 -21.380 -18.759  0.00  0.00    +0.027 C 
ATOM     13  C   UNL     1      33.804 -20.790 -19.516  0.00  0.00    +0.140 C 
ATOM     14  C   UNL     1      36.152 -21.087 -19.031  0.00  0.00    +0.002 C 
BRANCH  12  15
ATOM     15  C   UNL     1      34.484 -22.299 -17.692  0.00  0.00    +0.002 C 
ATOM     16  C   UNL     1      35.419 -22.573 -16.693  0.00  0.00    +0.000 C 
ATOM     17  C   UNL     1      33.231 -22.909 -17.660  0.00  0.00    +0.000 C 
ATOM     18  C   UNL     1      35.100 -23.457 -15.663  0.00  0.00    +0.000 C 
ATOM     19  C   UNL     1      32.912 -23.794 -16.630  0.00  0.00    +0.000 C 
ATOM     20  C   UNL     1      33.847 -24.069 -15.631  0.00  0.00    +0.000 C 
ENDBRANCH  12  15
ENDBRANCH   6   9
ENDBRANCH   3   6
BRANCH   5  21
ATOM     21  N   UNL     1      34.339 -13.969 -21.622  0.00  0.00    -0.147 NA
BRANCH  21  29
ATOM     22  O   UNL     1      31.809  -9.956 -22.470  0.00  0.00    -0.350 OA
ATOM     23  N   UNL     1      32.538 -12.526 -21.627  0.00  0.00    -0.277 N 
ATOM     24  N   UNL     1      32.446 -14.228 -20.141  0.00  0.00    -0.373 N 
ATOM     25  C   UNL     1      31.646 -11.712 -20.805  0.00  0.00    +0.125 C 
ATOM     26  C   UNL     1      32.540 -12.195 -23.049  0.00  0.00    +0.125 C 
ATOM     27  C   UNL     1      31.919 -10.237 -21.073  0.00  0.00    +0.164 C 
ATOM     28  C   UNL     1      32.774 -10.699 -23.218  0.00  0.00    +0.164 C 
ATOM     29  C   UNL     1      33.174 -13.615 -21.140  0.00  0.00    +0.182 C 
ATOM     30  H   UNL     1      31.575 -13.857 -19.867  0.00  0.00    +0.158 HD
ATOM     31  H   UNL     1      32.797 -15.035 -19.699  0.00  0.00    +0.158 HD
ENDBRANCH  21  29
ENDBRANCH   5  21
TORSDOF 5
ENDMDL
MODEL 6
REMARK VINA RESULT:     -11.1     11.368     15.489
REMARK  Name = 9800765
REMARK  5 active torsions:
REMARK  status: ('A' for Active; 'I' for Inactive)
REMARK    1  A    between atoms: C_3  and  C_17
REMARK    2  A    between atoms: C_5  and  N_8
REMARK    3  A    between atoms: N_8  and  C_14
REMARK    4  A    between atoms: C_17  and  C_20
REMARK    5  A    between atoms: C_23  and  C_26
REMARK                            x       y       z     vdW  Elec       q    Type
REMARK                         _______ _______ _______ _____ _____    ______ ____
ROOT
ATOM      1  O   UNL     1      31.856 -11.014 -19.952  0.00  0.00    -0.337 OA
ATOM      2  N   UNL     1      31.921  -9.718 -19.455  0.00  0.00    -0.079 NA
ATOM      3  C   UNL     1      31.906  -8.933 -20.536  0.00  0.00    +0.106 C 
ATOM      4  C   UNL     1      31.833  -9.670 -21.730  0.00  0.00    +0.076 C 
ATOM      5  C   UNL     1      31.805 -10.964 -21.302  0.00  0.00    +0.252 C 
ENDROOT
BRANCH   3   6
ATOM      6  C   UNL     1      31.962  -7.470 -20.382  0.00  0.00    +0.066 C 
ATOM      7  C   UNL     1      32.739  -7.004 -19.126  0.00  0.00    +0.011 C 
BRANCH   6   9
ATOM      8  F   UNL     1      31.195  -5.021 -24.510  0.00  0.00    -0.204 F 
ATOM      9  C   UNL     1      32.471  -6.889 -21.705  0.00  0.00    -0.015 C 
ATOM     10  C   UNL     1      31.585  -6.213 -22.509  0.00  0.00    +0.026 C 
ATOM     11  C   UNL     1      33.794  -7.067 -22.035  0.00  0.00    -0.004 C 
ATOM     12  C   UNL     1      33.383  -5.846 -24.078  0.00  0.00    +0.027 C 
ATOM     13  C   UNL     1      32.047  -5.683 -23.713  0.00  0.00    +0.140 C 
ATOM     14  C   UNL     1      34.257  -6.538 -23.239  0.00  0.00    +0.002 C 
BRANCH  12  15
ATOM     15  C   UNL     1      33.869  -5.297 -25.326  0.00  0.00    +0.002 C 
ATOM     16  C   UNL     1      35.241  -5.145 -25.533  0.00  0.00    +0.000 C 
ATOM     17  C   UNL     1      32.968  -4.922 -26.322  0.00  0.00    +0.000 C 
ATOM     18  C   UNL     1      35.710  -4.618 -26.736  0.00  0.00    +0.000 C 
ATOM     19  C   UNL     1      33.437  -4.394 -27.524  0.00  0.00    +0.000 C 
ATOM     20  C   UNL     1      34.808  -4.241 -27.732  0.00  0.00    +0.000 C 
ENDBRANCH  12  15
ENDBRANCH   6   9
ENDBRANCH   3   6
BRANCH   5  21
ATOM     21  N   UNL     1      31.736 -12.113 -22.031  0.00  0.00    -0.147 NA
BRANCH  21  29
ATOM     22  O   UNL     1      33.935 -14.623 -25.508  0.00  0.00    -0.350 OA
ATOM     23  N   UNL     1      33.334 -13.434 -23.044  0.00  0.00    -0.277 N 
ATOM     24  N   UNL     1      33.310 -13.458 -20.783  0.00  0.00    -0.373 N 
ATOM     25  C   UNL     1      33.951 -14.758 -23.086  0.00  0.00    +0.125 C 
ATOM     26  C   UNL     1      33.582 -12.600 -24.217  0.00  0.00    +0.125 C 
ATOM     27  C   UNL     1      33.578 -15.445 -24.395  0.00  0.00    +0.164 C 
ATOM     28  C   UNL     1      33.225 -13.382 -25.475  0.00  0.00    +0.164 C 
ATOM     29  C   UNL     1      32.736 -12.953 -21.931  0.00  0.00    +0.182 C 
ATOM     30  H   UNL     1      34.063 -14.090 -20.845  0.00  0.00    +0.158 HD
ATOM     31  H   UNL     1      32.968 -13.187 -19.900  0.00  0.00    +0.158 HD
ENDBRANCH  21  29
ENDBRANCH   5  21
TORSDOF 5
ENDMDL
MODEL 7
REMARK VINA RESULT:     -11.0     10.642     14.630
REMARK  Name = 9800765
REMARK  5 active torsions:
REMARK  status: ('A' for Active; 'I' for Inactive)
REMARK    1  A    between atoms: C_3  and  C_17
REMARK    2  A    between atoms: C_5  and  N_8
REMARK    3  A    between atoms: N_8  and  C_14
REMARK    4  A    between atoms: C_17  and  C_20
REMARK    5  A    between atoms: C_23  and  C_26
REMARK                            x       y       z     vdW  Elec       q    Type
REMARK                         _______ _______ _______ _____ _____    ______ ____
ROOT
ATOM      1  O   UNL     1      32.659 -11.802 -22.903  0.00  0.00    -0.337 OA
ATOM      2  N   UNL     1      32.451 -10.439 -22.739  0.00  0.00    -0.079 NA
ATOM      3  C   UNL     1      32.007 -10.305 -21.486  0.00  0.00    +0.106 C 
ATOM      4  C   UNL     1      31.916 -11.538 -20.818  0.00  0.00    +0.076 C 
ATOM      5  C   UNL     1      32.336 -12.437 -21.754  0.00  0.00    +0.252 C 
ENDROOT
BRANCH   3   6
ATOM      6  C   UNL     1      31.680  -8.969 -20.961  0.00  0.00    +0.066 C 
ATOM      7  C   UNL     1      32.123  -8.749 -19.494  0.00  0.00    +0.011 C 
BRANCH   6   9
ATOM      8  F   UNL     1      31.152  -6.238 -24.947  0.00  0.00    -0.204 F 
ATOM      9  C   UNL     1      32.224  -7.940 -21.958  0.00  0.00    -0.015 C 
ATOM     10  C   UNL     1      31.425  -7.559 -23.009  0.00  0.00    +0.026 C 
ATOM     11  C   UNL     1      33.489  -7.439 -21.761  0.00  0.00    -0.004 C 
ATOM     12  C   UNL     1      33.199  -6.093 -23.745  0.00  0.00    +0.027 C 
ATOM     13  C   UNL     1      31.919  -6.621 -23.916  0.00  0.00    +0.140 C 
ATOM     14  C   UNL     1      33.984  -6.503 -22.667  0.00  0.00    +0.002 C 
BRANCH  12  15
ATOM     15  C   UNL     1      33.716  -5.120 -24.682  0.00  0.00    +0.002 C 
ATOM     16  C   UNL     1      34.856  -5.412 -25.432  0.00  0.00    +0.000 C 
ATOM     17  C   UNL     1      33.075  -3.891 -24.837  0.00  0.00    +0.000 C 
ATOM     18  C   UNL     1      35.354  -4.474 -26.336  0.00  0.00    +0.000 C 
ATOM     19  C   UNL     1      33.573  -2.954 -25.742  0.00  0.00    +0.000 C 
ATOM     20  C   UNL     1      34.714  -3.244 -26.491  0.00  0.00    +0.000 C 
ENDBRANCH  12  15
ENDBRANCH   6   9
ENDBRANCH   3   6
BRANCH   5  21
ATOM     21  N   UNL     1      32.454 -13.791 -21.657  0.00  0.00    -0.147 NA
BRANCH  21  29
ATOM     22  O   UNL     1      34.714 -16.677 -24.785  0.00  0.00    -0.350 OA
ATOM     23  N   UNL     1      34.190 -14.943 -22.649  0.00  0.00    -0.277 N 
ATOM     24  N   UNL     1      34.542 -14.246 -20.527  0.00  0.00    -0.373 N 
ATOM     25  C   UNL     1      35.163 -16.022 -22.494  0.00  0.00    +0.125 C 
ATOM     26  C   UNL     1      33.979 -14.495 -24.023  0.00  0.00    +0.125 C 
ATOM     27  C   UNL     1      34.808 -17.160 -23.443  0.00  0.00    +0.164 C 
ATOM     28  C   UNL     1      33.677 -15.700 -24.905  0.00  0.00    +0.164 C 
ATOM     29  C   UNL     1      33.663 -14.289 -21.589  0.00  0.00    +0.182 C 
ATOM     30  H   UNL     1      35.431 -14.664 -20.605  0.00  0.00    +0.158 HD
ATOM     31  H   UNL     1      34.282 -13.797 -19.690  0.00  0.00    +0.158 HD
ENDBRANCH  21  29
ENDBRANCH   5  21
TORSDOF 5
ENDMDL
MODEL 8
REMARK VINA RESULT:     -11.0      4.407      9.507
REMARK  Name = 9800765
REMARK  5 active torsions:
REMARK  status: ('A' for Active; 'I' for Inactive)
REMARK    1  A    between atoms: C_3  and  C_17
REMARK    2  A    between atoms: C_5  and  N_8
REMARK    3  A    between atoms: N_8  and  C_14
REMARK    4  A    between atoms: C_17  and  C_20
REMARK    5  A    between atoms: C_23  and  C_26
REMARK                            x       y       z     vdW  Elec       q    Type
REMARK                         _______ _______ _______ _____ _____    ______ ____
ROOT
ATOM      1  O   UNL     1      36.214 -19.424 -20.392  0.00  0.00    -0.337 OA
ATOM      2  N   UNL     1      36.847 -20.167 -19.403  0.00  0.00    -0.079 NA
ATOM      3  C   UNL     1      35.933 -21.056 -19.002  0.00  0.00    +0.106 C 
ATOM      4  C   UNL     1      34.718 -20.921 -19.694  0.00  0.00    +0.076 C 
ATOM      5  C   UNL     1      34.953 -19.886 -20.550  0.00  0.00    +0.252 C 
ENDROOT
BRANCH   3   6
ATOM      6  C   UNL     1      36.266 -22.024 -17.945  0.00  0.00    +0.066 C 
ATOM      7  C   UNL     1      37.332 -21.515 -16.944  0.00  0.00    +0.011 C 
BRANCH   6   9
ATOM      8  F   UNL     1      33.745 -23.624 -14.110  0.00  0.00    -0.204 F 
ATOM      9  C   UNL     1      34.950 -22.477 -17.306  0.00  0.00    -0.015 C 
ATOM     10  C   UNL     1      34.955 -22.848 -15.983  0.00  0.00    +0.026 C 
ATOM     11  C   UNL     1      33.814 -22.495 -18.082  0.00  0.00    -0.004 C 
ATOM     12  C   UNL     1      32.587 -23.290 -16.160  0.00  0.00    +0.027 C 
ATOM     13  C   UNL     1      33.756 -23.259 -15.400  0.00  0.00    +0.140 C 
ATOM     14  C   UNL     1      32.616 -22.907 -17.501  0.00  0.00    +0.002 C 
BRANCH  12  15
ATOM     15  C   UNL     1      31.341 -23.715 -15.560  0.00  0.00    +0.002 C 
ATOM     16  C   UNL     1      30.171 -22.991 -15.798  0.00  0.00    +0.000 C 
ATOM     17  C   UNL     1      31.308 -24.847 -14.747  0.00  0.00    +0.000 C 
ATOM     18  C   UNL     1      28.970 -23.401 -15.221  0.00  0.00    +0.000 C 
ATOM     19  C   UNL     1      30.105 -25.256 -14.170  0.00  0.00    +0.000 C 
ATOM     20  C   UNL     1      28.935 -24.533 -14.407  0.00  0.00    +0.000 C 
ENDBRANCH  12  15
ENDBRANCH   6   9
ENDBRANCH   3   6
BRANCH   5  21
ATOM     21  N   UNL     1      34.121 -19.319 -21.467  0.00  0.00    -0.147 NA
BRANCH  21  29
ATOM     22  O   UNL     1      34.656 -14.967 -23.464  0.00  0.00    -0.350 OA
ATOM     23  N   UNL     1      34.855 -17.713 -22.953  0.00  0.00    -0.277 N 
ATOM     24  N   UNL     1      34.994 -19.858 -23.656  0.00  0.00    -0.373 N 
ATOM     25  C   UNL     1      34.791 -17.228 -24.329  0.00  0.00    +0.125 C 
ATOM     26  C   UNL     1      35.367 -16.750 -21.982  0.00  0.00    +0.125 C 
ATOM     27  C   UNL     1      34.047 -15.899 -24.361  0.00  0.00    +0.164 C 
ATOM     28  C   UNL     1      34.598 -15.441 -22.117  0.00  0.00    +0.164 C 
ATOM     29  C   UNL     1      34.629 -19.007 -22.633  0.00  0.00    +0.182 C 
ATOM     30  H   UNL     1      35.367 -19.492 -24.491  0.00  0.00    +0.158 HD
ATOM     31  H   UNL     1      34.881 -20.830 -23.553  0.00  0.00    +0.158 HD
ENDBRANCH  21  29
ENDBRANCH   5  21
TORSDOF 5
ENDMDL
MODEL 9
REMARK VINA RESULT:     -11.0     10.147     15.327
REMARK  Name = 9800765
REMARK  5 active torsions:
REMARK  status: ('A' for Active; 'I' for Inactive)
REMARK    1  A    between atoms: C_3  and  C_17
REMARK    2  A    between atoms: C_5  and  N_8
REMARK    3  A    between atoms: N_8  and  C_14
REMARK    4  A    between atoms: C_17  and  C_20
REMARK    5  A    between atoms: C_23  and  C_26
REMARK                            x       y       z     vdW  Elec       q    Type
REMARK                         _______ _______ _______ _____ _____    ______ ____
ROOT
ATOM      1  O   UNL     1      35.077  -9.409 -23.780  0.00  0.00    -0.337 OA
ATOM      2  N   UNL     1      34.893 -10.525 -24.586  0.00  0.00    -0.079 NA
ATOM      3  C   UNL     1      33.598 -10.830 -24.464  0.00  0.00    +0.106 C 
ATOM      4  C   UNL     1      32.921  -9.949 -23.603  0.00  0.00    +0.076 C 
ATOM      5  C   UNL     1      33.897  -9.083 -23.207  0.00  0.00    +0.252 C 
ENDROOT
BRANCH   3   6
ATOM      6  C   UNL     1      33.042 -11.980 -25.196  0.00  0.00    +0.066 C 
ATOM      7  C   UNL     1      33.304 -11.936 -26.721  0.00  0.00    +0.011 C 
BRANCH   6   9
ATOM      8  F   UNL     1      34.598 -14.295 -21.215  0.00  0.00    -0.204 F 
ATOM      9  C   UNL     1      33.535 -13.250 -24.495  0.00  0.00    -0.015 C 
ATOM     10  C   UNL     1      33.844 -13.185 -23.158  0.00  0.00    +0.026 C 
ATOM     11  C   UNL     1      33.650 -14.406 -25.233  0.00  0.00    -0.004 C 
ATOM     12  C   UNL     1      34.420 -15.529 -23.239  0.00  0.00    +0.027 C 
ATOM     13  C   UNL     1      34.292 -14.342 -22.520  0.00  0.00    +0.140 C 
ATOM     14  C   UNL     1      34.099 -15.561 -24.596  0.00  0.00    +0.002 C 
BRANCH  12  15
ATOM     15  C   UNL     1      34.884 -16.732 -22.582  0.00  0.00    +0.002 C 
ATOM     16  C   UNL     1      35.304 -16.681 -21.252  0.00  0.00    +0.000 C 
ATOM     17  C   UNL     1      34.910 -17.941 -23.276  0.00  0.00    +0.000 C 
ATOM     18  C   UNL     1      35.749 -17.840 -20.617  0.00  0.00    +0.000 C 
ATOM     19  C   UNL     1      35.357 -19.100 -22.640  0.00  0.00    +0.000 C 
ATOM     20  C   UNL     1      35.777 -19.050 -21.311  0.00  0.00    +0.000 C 
ENDBRANCH  12  15
ENDBRANCH   6   9
ENDBRANCH   3   6
BRANCH   5  21
ATOM     21  N   UNL     1      33.811  -8.015 -22.364  0.00  0.00    -0.147 NA
BRANCH  21  29
ATOM     22  O   UNL     1      30.681  -4.357 -22.541  0.00  0.00    -0.350 OA
ATOM     23  N   UNL     1      33.036  -5.866 -22.685  0.00  0.00    -0.277 N 
ATOM     24  N   UNL     1      35.018  -6.363 -23.652  0.00  0.00    -0.373 N 
ATOM     25  C   UNL     1      32.782  -4.811 -23.663  0.00  0.00    +0.125 C 
ATOM     26  C   UNL     1      32.352  -5.698 -21.405  0.00  0.00    +0.125 C 
ATOM     27  C   UNL     1      31.279  -4.615 -23.814  0.00  0.00    +0.164 C 
ATOM     28  C   UNL     1      30.867  -5.463 -21.655  0.00  0.00    +0.164 C 
ATOM     29  C   UNL     1      33.970  -6.823 -22.882  0.00  0.00    +0.182 C 
ATOM     30  H   UNL     1      35.016  -5.436 -23.984  0.00  0.00    +0.158 HD
ATOM     31  H   UNL     1      35.769  -6.962 -23.872  0.00  0.00    +0.158 HD
ENDBRANCH  21  29
ENDBRANCH   5  21
TORSDOF 5
ENDMDL
