MODEL 1
REMARK VINA RESULT:     -11.3      0.000      0.000
REMARK  Name = 448942
REMARK  8 active torsions:
REMARK  status: ('A' for Active; 'I' for Inactive)
REMARK    1  A    between atoms: C_2  and  C_20
REMARK    2  A    between atoms: C_3  and  C_6
REMARK    3  A    between atoms: C_7  and  C_13
REMARK    4  A    between atoms: N_19  and  C_22
REMARK    5  A    between atoms: C_22  and  C_23
REMARK    6  A    between atoms: C_22  and  C_29
REMARK    7  A    between atoms: C_29  and  C_31
REMARK    8  A    between atoms: C_31  and  O_32
REMARK                            x       y       z     vdW  Elec       q    Type
REMARK                         _______ _______ _______ _____ _____    ______ ____
ROOT
ATOM      1  S   UNL     1      32.122 -23.894 -15.498  0.00  0.00    -0.082 S 
ATOM      2  C   UNL     1      33.810 -23.861 -15.375  0.00  0.00    +0.083 C 
ATOM      3  C   UNL     1      33.483 -22.588 -17.242  0.00  0.00    +0.007 C 
ATOM      4  C   UNL     1      34.432 -23.149 -16.339  0.00  0.00    +0.012 C 
ATOM      5  C   UNL     1      32.190 -22.916 -16.902  0.00  0.00    +0.036 C 
ENDROOT
BRANCH   3   6
ATOM      6  C   UNL     1      33.758 -21.771 -18.393  0.00  0.00    +0.001 C 
ATOM      7  C   UNL     1      34.290 -20.185 -20.624  0.00  0.00    +0.000 C 
ATOM      8  C   UNL     1      35.075 -21.554 -18.794  0.00  0.00    +0.000 C 
ATOM      9  C   UNL     1      32.706 -21.196 -19.105  0.00  0.00    +0.000 C 
ATOM     10  C   UNL     1      35.342 -20.761 -19.910  0.00  0.00    +0.000 C 
ATOM     11  C   UNL     1      32.973 -20.402 -20.221  0.00  0.00    +0.000 C 
BRANCH   7  13
ATOM     12  N   UNL     1      35.101 -17.767 -24.013  0.00  0.00    -0.242 NA
ATOM     13  C   UNL     1      34.567 -19.362 -21.780  0.00  0.00    +0.003 C 
ATOM     14  C   UNL     1      35.497 -18.332 -21.696  0.00  0.00    +0.021 C 
ATOM     15  C   UNL     1      33.903 -19.595 -22.980  0.00  0.00    +0.021 C 
ATOM     16  C   UNL     1      35.726 -17.570 -22.830  0.00  0.00    +0.099 C 
ATOM     17  C   UNL     1      34.203 -18.777 -24.056  0.00  0.00    +0.099 C 
ENDBRANCH   7  13
ENDBRANCH   3   6
BRANCH   2  20
ATOM     18  O   UNL     1      33.776 -25.284 -13.482  0.00  0.00    -0.270 OA
ATOM     19  N   UNL     1      35.806 -24.421 -14.123  0.00  0.00    -0.298 N 
ATOM     20  C   UNL     1      34.431 -24.590 -14.261  0.00  0.00    +0.252 C 
ATOM     21  H   UNL     1      36.284 -23.856 -14.771  0.00  0.00    +0.150 HD
BRANCH  19  22
ATOM     22  C   UNL     1      36.554 -25.049 -13.055  0.00  0.00    +0.105 C 
BRANCH  22  23
ATOM     23  C   UNL     1      37.848 -25.627 -13.595  0.00  0.00    -0.004 C 
ATOM     24  C   UNL     1      39.049 -25.200 -13.060  0.00  0.00    -0.003 C 
ATOM     25  C   UNL     1      37.795 -26.566 -14.607  0.00  0.00    -0.003 C 
ATOM     26  C   UNL     1      40.240 -25.731 -13.556  0.00  0.00    -0.000 C 
ATOM     27  C   UNL     1      38.985 -27.097 -15.104  0.00  0.00    -0.000 C 
ATOM     28  C   UNL     1      40.208 -26.678 -14.578  0.00  0.00    -0.000 C 
ENDBRANCH  22  23
BRANCH  22  29
ATOM     29  C   UNL     1      36.758 -24.060 -11.895  0.00  0.00    +0.133 C 
BRANCH  29  31
ATOM     30  O   UNL     1      36.393 -24.214  -9.488  0.00  0.00    -0.250 OA
ATOM     31  C   UNL     1      36.028 -24.460 -10.630  0.00  0.00    +0.316 C 
BRANCH  31  32
ATOM     32  O   UNL     1      34.900 -25.167 -10.909  0.00  0.00    -0.480 OA
ATOM     33  H   UNL     1      34.250 -24.804 -11.476  0.00  0.00    +0.295 HD
ENDBRANCH  31  32
ENDBRANCH  29  31
ENDBRANCH  22  29
ENDBRANCH  19  22
ENDBRANCH   2  20
TORSDOF 8
ENDMDL
MODEL 2
REMARK VINA RESULT:     -10.7      2.667      4.354
REMARK  Name = 448942
REMARK  8 active torsions:
REMARK  status: ('A' for Active; 'I' for Inactive)
REMARK    1  A    between atoms: C_2  and  C_20
REMARK    2  A    between atoms: C_3  and  C_6
REMARK    3  A    between atoms: C_7  and  C_13
REMARK    4  A    between atoms: N_19  and  C_22
REMARK    5  A    between atoms: C_22  and  C_23
REMARK    6  A    between atoms: C_22  and  C_29
REMARK    7  A    between atoms: C_29  and  C_31
REMARK    8  A    between atoms: C_31  and  O_32
REMARK                            x       y       z     vdW  Elec       q    Type
REMARK                         _______ _______ _______ _____ _____    ______ ____
ROOT
ATOM      1  S   UNL     1      37.295 -22.633 -16.227  0.00  0.00    -0.082 S 
ATOM      2  C   UNL     1      35.615 -22.838 -16.255  0.00  0.00    +0.083 C 
ATOM      3  C   UNL     1      35.926 -21.525 -18.097  0.00  0.00    +0.007 C 
ATOM      4  C   UNL     1      34.987 -22.216 -17.277  0.00  0.00    +0.012 C 
ATOM      5  C   UNL     1      37.216 -21.667 -17.639  0.00  0.00    +0.036 C 
ENDROOT
BRANCH   3   6
ATOM      6  C   UNL     1      35.642 -20.749 -19.275  0.00  0.00    +0.001 C 
ATOM      7  C   UNL     1      35.091 -19.245 -21.557  0.00  0.00    +0.000 C 
ATOM      8  C   UNL     1      36.648 -19.986 -19.864  0.00  0.00    +0.000 C 
ATOM      9  C   UNL     1      34.360 -20.762 -19.824  0.00  0.00    +0.000 C 
ATOM     10  C   UNL     1      36.373 -19.233 -21.006  0.00  0.00    +0.000 C 
ATOM     11  C   UNL     1      34.085 -20.009 -20.965  0.00  0.00    +0.000 C 
BRANCH   7  13
ATOM     12  N   UNL     1      34.251 -16.951 -25.024  0.00  0.00    -0.242 NA
ATOM     13  C   UNL     1      34.805 -18.463 -22.739  0.00  0.00    +0.003 C 
ATOM     14  C   UNL     1      35.305 -17.172 -22.859  0.00  0.00    +0.021 C 
ATOM     15  C   UNL     1      34.028 -18.999 -23.760  0.00  0.00    +0.021 C 
ATOM     16  C   UNL     1      35.003 -16.463 -24.011  0.00  0.00    +0.099 C 
ATOM     17  C   UNL     1      33.782 -18.209 -24.871  0.00  0.00    +0.099 C 
ENDBRANCH   7  13
ENDBRANCH   3   6
BRANCH   2  20
ATOM     18  O   UNL     1      35.101 -24.881 -15.172  0.00  0.00    -0.270 OA
ATOM     19  N   UNL     1      34.284 -22.949 -14.235  0.00  0.00    -0.298 N 
ATOM     20  C   UNL     1      35.005 -23.652 -15.196  0.00  0.00    +0.252 C 
ATOM     21  H   UNL     1      34.237 -21.968 -14.298  0.00  0.00    +0.150 HD
BRANCH  19  22
ATOM     22  C   UNL     1      33.601 -23.615 -13.147  0.00  0.00    +0.105 C 
BRANCH  22  23
ATOM     23  C   UNL     1      32.192 -23.988 -13.566  0.00  0.00    -0.004 C 
ATOM     24  C   UNL     1      31.452 -23.088 -14.310  0.00  0.00    -0.003 C 
ATOM     25  C   UNL     1      31.682 -25.218 -13.193  0.00  0.00    -0.003 C 
ATOM     26  C   UNL     1      30.156 -23.430 -14.695  0.00  0.00    -0.000 C 
ATOM     27  C   UNL     1      30.387 -25.560 -13.577  0.00  0.00    -0.000 C 
ATOM     28  C   UNL     1      29.623 -24.665 -14.328  0.00  0.00    -0.000 C 
ENDBRANCH  22  23
BRANCH  22  29
ATOM     29  C   UNL     1      34.433 -24.811 -12.650  0.00  0.00    +0.133 C 
BRANCH  29  31
ATOM     30  O   UNL     1      35.373 -25.129 -10.422  0.00  0.00    -0.250 OA
ATOM     31  C   UNL     1      35.305 -24.480 -11.457  0.00  0.00    +0.316 C 
BRANCH  31  32
ATOM     32  O   UNL     1      36.007 -23.334 -11.657  0.00  0.00    -0.480 OA
ATOM     33  H   UNL     1      36.463 -22.934 -10.944  0.00  0.00    +0.295 HD
ENDBRANCH  31  32
ENDBRANCH  29  31
ENDBRANCH  22  29
ENDBRANCH  19  22
ENDBRANCH   2  20
TORSDOF 8
ENDMDL
MODEL 3
REMARK VINA RESULT:     -10.4      2.408      3.588
REMARK  Name = 448942
REMARK  8 active torsions:
REMARK  status: ('A' for Active; 'I' for Inactive)
REMARK    1  A    between atoms: C_2  and  C_20
REMARK    2  A    between atoms: C_3  and  C_6
REMARK    3  A    between atoms: C_7  and  C_13
REMARK    4  A    between atoms: N_19  and  C_22
REMARK    5  A    between atoms: C_22  and  C_23
REMARK    6  A    between atoms: C_22  and  C_29
REMARK    7  A    between atoms: C_29  and  C_31
REMARK    8  A    between atoms: C_31  and  O_32
REMARK                            x       y       z     vdW  Elec       q    Type
REMARK                         _______ _______ _______ _____ _____    ______ ____
ROOT
ATOM      1  S   UNL     1      34.867 -23.527 -16.547  0.00  0.00    -0.082 S 
ATOM      2  C   UNL     1      36.308 -22.648 -16.418  0.00  0.00    +0.083 C 
ATOM      3  C   UNL     1      35.388 -21.704 -18.282  0.00  0.00    +0.007 C 
ATOM      4  C   UNL     1      36.489 -21.714 -17.377  0.00  0.00    +0.012 C 
ATOM      5  C   UNL     1      34.436 -22.641 -17.948  0.00  0.00    +0.036 C 
ENDROOT
BRANCH   3   6
ATOM      6  C   UNL     1      35.216 -20.854 -19.429  0.00  0.00    +0.001 C 
ATOM      7  C   UNL     1      34.881 -19.205 -21.652  0.00  0.00    +0.000 C 
ATOM      8  C   UNL     1      36.312 -20.184 -19.969  0.00  0.00    +0.000 C 
ATOM      9  C   UNL     1      33.952 -20.701 -19.998  0.00  0.00    +0.000 C 
ATOM     10  C   UNL     1      36.146 -19.359 -21.081  0.00  0.00    +0.000 C 
ATOM     11  C   UNL     1      33.786 -19.876 -21.110  0.00  0.00    +0.000 C 
BRANCH   7  13
ATOM     12  N   UNL     1      34.374 -16.694 -25.032  0.00  0.00    -0.242 NA
ATOM     13  C   UNL     1      34.708 -18.348 -22.804  0.00  0.00    +0.003 C 
ATOM     14  C   UNL     1      34.052 -18.824 -23.934  0.00  0.00    +0.021 C 
ATOM     15  C   UNL     1      35.197 -17.046 -22.787  0.00  0.00    +0.021 C 
ATOM     16  C   UNL     1      33.912 -17.965 -25.012  0.00  0.00    +0.099 C 
ATOM     17  C   UNL     1      35.006 -16.267 -23.916  0.00  0.00    +0.099 C 
ENDBRANCH   7  13
ENDBRANCH   3   6
BRANCH   2  20
ATOM     18  O   UNL     1      37.870 -22.107 -14.720  0.00  0.00    -0.270 OA
ATOM     19  N   UNL     1      37.296 -24.318 -14.966  0.00  0.00    -0.298 N 
ATOM     20  C   UNL     1      37.210 -22.970 -15.303  0.00  0.00    +0.252 C 
ATOM     21  H   UNL     1      36.748 -24.968 -15.463  0.00  0.00    +0.150 HD
BRANCH  19  22
ATOM     22  C   UNL     1      38.164 -24.793 -13.911  0.00  0.00    +0.105 C 
BRANCH  22  23
ATOM     23  C   UNL     1      37.481 -24.643 -12.566  0.00  0.00    -0.004 C 
ATOM     24  C   UNL     1      38.153 -24.008 -11.538  0.00  0.00    -0.003 C 
ATOM     25  C   UNL     1      36.204 -25.145 -12.400  0.00  0.00    -0.003 C 
ATOM     26  C   UNL     1      37.525 -23.870 -10.300  0.00  0.00    -0.000 C 
ATOM     27  C   UNL     1      35.576 -25.008 -11.163  0.00  0.00    -0.000 C 
ATOM     28  C   UNL     1      36.237 -24.371 -10.112  0.00  0.00    -0.000 C 
ENDBRANCH  22  23
BRANCH  22  29
ATOM     29  C   UNL     1      38.628 -26.229 -14.210  0.00  0.00    +0.133 C 
BRANCH  29  31
ATOM     30  O   UNL     1      40.967 -26.889 -14.015  0.00  0.00    -0.250 OA
ATOM     31  C   UNL     1      40.080 -26.316 -14.631  0.00  0.00    +0.316 C 
BRANCH  31  32
ATOM     32  O   UNL     1      40.301 -25.644 -15.792  0.00  0.00    -0.480 OA
ATOM     33  H   UNL     1      39.744 -25.789 -16.530  0.00  0.00    +0.295 HD
ENDBRANCH  31  32
ENDBRANCH  29  31
ENDBRANCH  22  29
ENDBRANCH  19  22
ENDBRANCH   2  20
TORSDOF 8
ENDMDL
MODEL 4
REMARK VINA RESULT:     -10.0     11.207     17.327
REMARK  Name = 448942
REMARK  8 active torsions:
REMARK  status: ('A' for Active; 'I' for Inactive)
REMARK    1  A    between atoms: C_2  and  C_20
REMARK    2  A    between atoms: C_3  and  C_6
REMARK    3  A    between atoms: C_7  and  C_13
REMARK    4  A    between atoms: N_19  and  C_22
REMARK    5  A    between atoms: C_22  and  C_23
REMARK    6  A    between atoms: C_22  and  C_29
REMARK    7  A    between atoms: C_29  and  C_31
REMARK    8  A    between atoms: C_31  and  O_32
REMARK                            x       y       z     vdW  Elec       q    Type
REMARK                         _______ _______ _______ _____ _____    ______ ____
ROOT
ATOM      1  S   UNL     1      31.855  -9.026 -22.490  0.00  0.00    -0.082 S 
ATOM      2  C   UNL     1      33.452  -8.876 -23.032  0.00  0.00    +0.083 C 
ATOM      3  C   UNL     1      33.228 -11.147 -22.963  0.00  0.00    +0.007 C 
ATOM      4  C   UNL     1      34.087 -10.047 -23.251  0.00  0.00    +0.012 C 
ATOM      5  C   UNL     1      31.985 -10.734 -22.538  0.00  0.00    +0.036 C 
ENDROOT
BRANCH   3   6
ATOM      6  C   UNL     1      33.542 -12.546 -23.073  0.00  0.00    +0.001 C 
ATOM      7  C   UNL     1      34.151 -15.258 -23.285  0.00  0.00    +0.000 C 
ATOM      8  C   UNL     1      33.378 -13.202 -24.291  0.00  0.00    +0.000 C 
ATOM      9  C   UNL     1      34.010 -13.243 -21.959  0.00  0.00    +0.000 C 
ATOM     10  C   UNL     1      33.682 -14.559 -24.398  0.00  0.00    +0.000 C 
ATOM     11  C   UNL     1      34.314 -14.600 -22.066  0.00  0.00    +0.000 C 
BRANCH   7  13
ATOM     12  N   UNL     1      35.070 -19.386 -23.607  0.00  0.00    -0.242 NA
ATOM     13  C   UNL     1      34.465 -16.665 -23.395  0.00  0.00    +0.003 C 
ATOM     14  C   UNL     1      33.818 -17.452 -24.341  0.00  0.00    +0.021 C 
ATOM     15  C   UNL     1      35.414 -17.238 -22.555  0.00  0.00    +0.021 C 
ATOM     16  C   UNL     1      34.153 -18.795 -24.407  0.00  0.00    +0.099 C 
ATOM     17  C   UNL     1      35.677 -18.590 -22.700  0.00  0.00    +0.099 C 
ENDBRANCH   7  13
ENDBRANCH   3   6
BRANCH   2  20
ATOM     18  O   UNL     1      35.175  -7.250 -23.009  0.00  0.00    -0.270 OA
ATOM     19  N   UNL     1      33.068  -6.552 -23.598  0.00  0.00    -0.298 N 
ATOM     20  C   UNL     1      33.990  -7.521 -23.212  0.00  0.00    +0.252 C 
ATOM     21  H   UNL     1      32.132  -6.818 -23.748  0.00  0.00    +0.150 HD
BRANCH  19  22
ATOM     22  C   UNL     1      33.441  -5.167 -23.786  0.00  0.00    +0.105 C 
BRANCH  22  23
ATOM     23  C   UNL     1      33.800  -4.914 -25.237  0.00  0.00    -0.004 C 
ATOM     24  C   UNL     1      35.130  -4.941 -25.615  0.00  0.00    -0.003 C 
ATOM     25  C   UNL     1      32.789  -4.664 -26.146  0.00  0.00    -0.003 C 
ATOM     26  C   UNL     1      35.460  -4.709 -26.950  0.00  0.00    -0.000 C 
ATOM     27  C   UNL     1      33.119  -4.431 -27.481  0.00  0.00    -0.000 C 
ATOM     28  C   UNL     1      34.455  -4.453 -27.883  0.00  0.00    -0.000 C 
ENDBRANCH  22  23
BRANCH  22  29
ATOM     29  C   UNL     1      32.333  -4.241 -23.255  0.00  0.00    +0.133 C 
BRANCH  29  31
ATOM     30  O   UNL     1      30.398  -5.252 -22.167  0.00  0.00    -0.250 OA
ATOM     31  C   UNL     1      31.549  -4.841 -22.107  0.00  0.00    +0.316 C 
BRANCH  31  32
ATOM     32  O   UNL     1      32.277  -4.849 -20.959  0.00  0.00    -0.480 OA
ATOM     33  H   UNL     1      32.167  -4.164 -20.330  0.00  0.00    +0.295 HD
ENDBRANCH  31  32
ENDBRANCH  29  31
ENDBRANCH  22  29
ENDBRANCH  19  22
ENDBRANCH   2  20
TORSDOF 8
ENDMDL
MODEL 5
REMARK VINA RESULT:      -9.9      9.733     15.616
REMARK  Name = 448942
REMARK  8 active torsions:
REMARK  status: ('A' for Active; 'I' for Inactive)
REMARK    1  A    between atoms: C_2  and  C_20
REMARK    2  A    between atoms: C_3  and  C_6
REMARK    3  A    between atoms: C_7  and  C_13
REMARK    4  A    between atoms: N_19  and  C_22
REMARK    5  A    between atoms: C_22  and  C_23
REMARK    6  A    between atoms: C_22  and  C_29
REMARK    7  A    between atoms: C_29  and  C_31
REMARK    8  A    between atoms: C_31  and  O_32
REMARK                            x       y       z     vdW  Elec       q    Type
REMARK                         _______ _______ _______ _____ _____    ______ ____
ROOT
ATOM      1  S   UNL     1      33.395 -11.204 -24.973  0.00  0.00    -0.082 S 
ATOM      2  C   UNL     1      33.291 -10.823 -23.326  0.00  0.00    +0.083 C 
ATOM      3  C   UNL     1      33.944 -13.009 -23.228  0.00  0.00    +0.007 C 
ATOM      4  C   UNL     1      33.599 -11.839 -22.491  0.00  0.00    +0.012 C 
ATOM      5  C   UNL     1      33.874 -12.802 -24.588  0.00  0.00    +0.036 C 
ENDROOT
BRANCH   3   6
ATOM      6  C   UNL     1      34.329 -14.288 -22.695  0.00  0.00    +0.001 C 
ATOM      7  C   UNL     1      35.076 -16.768 -21.663  0.00  0.00    +0.000 C 
ATOM      8  C   UNL     1      34.365 -14.485 -21.316  0.00  0.00    +0.000 C 
ATOM      9  C   UNL     1      34.666 -15.328 -23.560  0.00  0.00    +0.000 C 
ATOM     10  C   UNL     1      34.739 -15.725 -20.799  0.00  0.00    +0.000 C 
ATOM     11  C   UNL     1      35.040 -16.569 -23.043  0.00  0.00    +0.000 C 
BRANCH   7  13
ATOM     12  N   UNL     1      36.219 -20.539 -20.094  0.00  0.00    -0.242 NA
ATOM     13  C   UNL     1      35.465 -18.053 -21.127  0.00  0.00    +0.003 C 
ATOM     14  C   UNL     1      36.793 -18.298 -20.798  0.00  0.00    +0.021 C 
ATOM     15  C   UNL     1      34.513 -19.050 -20.941  0.00  0.00    +0.021 C 
ATOM     16  C   UNL     1      37.116 -19.546 -20.289  0.00  0.00    +0.099 C 
ATOM     17  C   UNL     1      34.937 -20.263 -20.426  0.00  0.00    +0.099 C 
ENDBRANCH   7  13
ENDBRANCH   3   6
BRANCH   2  20
ATOM     18  O   UNL     1      31.733  -9.051 -23.113  0.00  0.00    -0.270 OA
ATOM     19  N   UNL     1      33.898  -8.643 -22.463  0.00  0.00    -0.298 N 
ATOM     20  C   UNL     1      32.887  -9.459 -22.962  0.00  0.00    +0.252 C 
ATOM     21  H   UNL     1      34.804  -9.015 -22.361  0.00  0.00    +0.150 HD
BRANCH  19  22
ATOM     22  C   UNL     1      33.661  -7.265 -22.089  0.00  0.00    +0.105 C 
BRANCH  22  23
ATOM     23  C   UNL     1      33.644  -6.386 -23.324  0.00  0.00    -0.004 C 
ATOM     24  C   UNL     1      34.816  -6.207 -24.037  0.00  0.00    -0.003 C 
ATOM     25  C   UNL     1      32.460  -5.784 -23.706  0.00  0.00    -0.003 C 
ATOM     26  C   UNL     1      34.801  -5.397 -25.173  0.00  0.00    -0.000 C 
ATOM     27  C   UNL     1      32.445  -4.975 -24.842  0.00  0.00    -0.000 C 
ATOM     28  C   UNL     1      33.616  -4.780 -25.575  0.00  0.00    -0.000 C 
ENDBRANCH  22  23
BRANCH  22  29
ATOM     29  C   UNL     1      32.384  -7.157 -21.239  0.00  0.00    +0.133 C 
BRANCH  29  31
ATOM     30  O   UNL     1      31.977  -8.754 -19.441  0.00  0.00    -0.250 OA
ATOM     31  C   UNL     1      32.534  -7.746 -19.852  0.00  0.00    +0.316 C 
BRANCH  31  32
ATOM     32  O   UNL     1      33.364  -6.993 -19.080  0.00  0.00    -0.480 OA
ATOM     33  H   UNL     1      33.751  -7.363 -18.312  0.00  0.00    +0.295 HD
ENDBRANCH  31  32
ENDBRANCH  29  31
ENDBRANCH  22  29
ENDBRANCH  19  22
ENDBRANCH   2  20
TORSDOF 8
ENDMDL
MODEL 6
REMARK VINA RESULT:      -9.7      3.196      5.222
REMARK  Name = 448942
REMARK  8 active torsions:
REMARK  status: ('A' for Active; 'I' for Inactive)
REMARK    1  A    between atoms: C_2  and  C_20
REMARK    2  A    between atoms: C_3  and  C_6
REMARK    3  A    between atoms: C_7  and  C_13
REMARK    4  A    between atoms: N_19  and  C_22
REMARK    5  A    between atoms: C_22  and  C_23
REMARK    6  A    between atoms: C_22  and  C_29
REMARK    7  A    between atoms: C_29  and  C_31
REMARK    8  A    between atoms: C_31  and  O_32
REMARK                            x       y       z     vdW  Elec       q    Type
REMARK                         _______ _______ _______ _____ _____    ______ ____
ROOT
ATOM      1  S   UNL     1      36.921 -21.226 -19.496  0.00  0.00    -0.082 S 
ATOM      2  C   UNL     1      35.237 -21.300 -19.338  0.00  0.00    +0.083 C 
ATOM      3  C   UNL     1      35.476 -19.397 -20.577  0.00  0.00    +0.007 C 
ATOM      4  C   UNL     1      34.568 -20.293 -19.941  0.00  0.00    +0.012 C 
ATOM      5  C   UNL     1      36.786 -19.785 -20.412  0.00  0.00    +0.036 C 
ENDROOT
BRANCH   3   6
ATOM      6  C   UNL     1      35.145 -18.209 -21.317  0.00  0.00    +0.001 C 
ATOM      7  C   UNL     1      34.504 -15.908 -22.755  0.00  0.00    +0.000 C 
ATOM      8  C   UNL     1      35.039 -16.986 -20.659  0.00  0.00    +0.000 C 
ATOM      9  C   UNL     1      34.932 -18.285 -22.693  0.00  0.00    +0.000 C 
ATOM     10  C   UNL     1      34.717 -15.834 -21.377  0.00  0.00    +0.000 C 
ATOM     11  C   UNL     1      34.611 -17.133 -23.412  0.00  0.00    +0.000 C 
BRANCH   7  13
ATOM     12  N   UNL     1      33.521 -12.406 -24.937  0.00  0.00    -0.242 NA
ATOM     13  C   UNL     1      34.170 -14.714 -23.499  0.00  0.00    +0.003 C 
ATOM     14  C   UNL     1      34.281 -13.464 -22.900  0.00  0.00    +0.021 C 
ATOM     15  C   UNL     1      33.735 -14.811 -24.817  0.00  0.00    +0.021 C 
ATOM     16  C   UNL     1      33.947 -12.351 -23.655  0.00  0.00    +0.099 C 
ATOM     17  C   UNL     1      33.426 -13.638 -25.485  0.00  0.00    +0.099 C 
ENDBRANCH   7  13
ENDBRANCH   3   6
BRANCH   2  20
ATOM     18  O   UNL     1      34.010 -23.315 -19.120  0.00  0.00    -0.270 OA
ATOM     19  N   UNL     1      34.893 -22.400 -17.208  0.00  0.00    -0.298 N 
ATOM     20  C   UNL     1      34.668 -22.423 -18.581  0.00  0.00    +0.252 C 
ATOM     21  H   UNL     1      35.425 -21.665 -16.824  0.00  0.00    +0.150 HD
BRANCH  19  22
ATOM     22  C   UNL     1      34.370 -23.420 -16.325  0.00  0.00    +0.105 C 
BRANCH  22  23
ATOM     23  C   UNL     1      35.468 -23.939 -15.418  0.00  0.00    -0.004 C 
ATOM     24  C   UNL     1      36.678 -23.272 -15.379  0.00  0.00    -0.003 C 
ATOM     25  C   UNL     1      35.233 -25.067 -14.654  0.00  0.00    -0.003 C 
ATOM     26  C   UNL     1      37.690 -23.749 -14.545  0.00  0.00    -0.000 C 
ATOM     27  C   UNL     1      36.244 -25.545 -13.821  0.00  0.00    -0.000 C 
ATOM     28  C   UNL     1      37.473 -24.886 -13.767  0.00  0.00    -0.000 C 
ENDBRANCH  22  23
BRANCH  22  29
ATOM     29  C   UNL     1      33.143 -22.887 -15.564  0.00  0.00    +0.133 C 
BRANCH  29  31
ATOM     30  O   UNL     1      31.024 -24.061 -15.838  0.00  0.00    -0.250 OA
ATOM     31  C   UNL     1      31.828 -23.228 -16.232  0.00  0.00    +0.316 C 
BRANCH  31  32
ATOM     32  O   UNL     1      31.643 -22.502 -17.367  0.00  0.00    -0.480 OA
ATOM     33  H   UNL     1      31.171 -22.871 -18.086  0.00  0.00    +0.295 HD
ENDBRANCH  31  32
ENDBRANCH  29  31
ENDBRANCH  22  29
ENDBRANCH  19  22
ENDBRANCH   2  20
TORSDOF 8
ENDMDL
MODEL 7
REMARK VINA RESULT:      -9.6      2.817      3.836
REMARK  Name = 448942
REMARK  8 active torsions:
REMARK  status: ('A' for Active; 'I' for Inactive)
REMARK    1  A    between atoms: C_2  and  C_20
REMARK    2  A    between atoms: C_3  and  C_6
REMARK    3  A    between atoms: C_7  and  C_13
REMARK    4  A    between atoms: N_19  and  C_22
REMARK    5  A    between atoms: C_22  and  C_23
REMARK    6  A    between atoms: C_22  and  C_29
REMARK    7  A    between atoms: C_29  and  C_31
REMARK    8  A    between atoms: C_31  and  O_32
REMARK                            x       y       z     vdW  Elec       q    Type
REMARK                         _______ _______ _______ _____ _____    ______ ____
ROOT
ATOM      1  S   UNL     1      37.748 -22.186 -16.183  0.00  0.00    -0.082 S 
ATOM      2  C   UNL     1      36.164 -22.765 -16.325  0.00  0.00    +0.083 C 
ATOM      3  C   UNL     1      36.275 -21.356 -18.118  0.00  0.00    +0.007 C 
ATOM      4  C   UNL     1      35.472 -22.269 -17.373  0.00  0.00    +0.012 C 
ATOM      5  C   UNL     1      37.534 -21.218 -17.580  0.00  0.00    +0.036 C 
ENDROOT
BRANCH   3   6
ATOM      6  C   UNL     1      35.892 -20.627 -19.297  0.00  0.00    +0.001 C 
ATOM      7  C   UNL     1      35.151 -19.213 -21.583  0.00  0.00    +0.000 C 
ATOM      8  C   UNL     1      34.604 -20.763 -19.812  0.00  0.00    +0.000 C 
ATOM      9  C   UNL     1      36.811 -19.785 -19.922  0.00  0.00    +0.000 C 
ATOM     10  C   UNL     1      34.233 -20.056 -20.955  0.00  0.00    +0.000 C 
ATOM     11  C   UNL     1      36.440 -19.078 -21.066  0.00  0.00    +0.000 C 
BRANCH   7  13
ATOM     12  N   UNL     1      34.026 -17.068 -25.065  0.00  0.00    -0.242 NA
ATOM     13  C   UNL     1      34.767 -18.481 -22.769  0.00  0.00    +0.003 C 
ATOM     14  C   UNL     1      33.901 -19.055 -23.693  0.00  0.00    +0.021 C 
ATOM     15  C   UNL     1      35.264 -17.201 -22.992  0.00  0.00    +0.021 C 
ATOM     16  C   UNL     1      33.564 -18.314 -24.814  0.00  0.00    +0.099 C 
ATOM     17  C   UNL     1      34.866 -16.543 -24.145  0.00  0.00    +0.099 C 
ENDBRANCH   7  13
ENDBRANCH   3   6
BRANCH   2  20
ATOM     18  O   UNL     1      35.945 -24.935 -15.400  0.00  0.00    -0.270 OA
ATOM     19  N   UNL     1      34.922 -23.203 -14.292  0.00  0.00    -0.298 N 
ATOM     20  C   UNL     1      35.695 -23.731 -15.322  0.00  0.00    +0.252 C 
ATOM     21  H   UNL     1      34.749 -22.234 -14.274  0.00  0.00    +0.150 HD
BRANCH  19  22
ATOM     22  C   UNL     1      34.362 -24.033 -13.247  0.00  0.00    +0.105 C 
BRANCH  22  23
ATOM     23  C   UNL     1      35.269 -24.025 -12.032  0.00  0.00    -0.004 C 
ATOM     24  C   UNL     1      36.445 -23.299 -12.077  0.00  0.00    -0.003 C 
ATOM     25  C   UNL     1      34.898 -24.742 -10.910  0.00  0.00    -0.003 C 
ATOM     26  C   UNL     1      37.280 -23.291 -10.959  0.00  0.00    -0.000 C 
ATOM     27  C   UNL     1      35.732 -24.734  -9.793  0.00  0.00    -0.000 C 
ATOM     28  C   UNL     1      36.924 -24.009  -9.818  0.00  0.00    -0.000 C 
ENDBRANCH  22  23
BRANCH  22  29
ATOM     29  C   UNL     1      32.917 -23.602 -12.941  0.00  0.00    +0.133 C 
BRANCH  29  31
ATOM     30  O   UNL     1      31.043 -23.891 -14.475  0.00  0.00    -0.250 OA
ATOM     31  C   UNL     1      31.880 -24.377 -13.726  0.00  0.00    +0.316 C 
BRANCH  31  32
ATOM     32  O   UNL     1      31.966 -25.711 -13.481  0.00  0.00    -0.480 OA
ATOM     33  H   UNL     1      32.365 -26.017 -12.691  0.00  0.00    +0.295 HD
ENDBRANCH  31  32
ENDBRANCH  29  31
ENDBRANCH  22  29
ENDBRANCH  19  22
ENDBRANCH   2  20
TORSDOF 8
ENDMDL
MODEL 8
REMARK VINA RESULT:      -9.5      8.407     12.223
REMARK  Name = 448942
REMARK  8 active torsions:
REMARK  status: ('A' for Active; 'I' for Inactive)
REMARK    1  A    between atoms: C_2  and  C_20
REMARK    2  A    between atoms: C_3  and  C_6
REMARK    3  A    between atoms: C_7  and  C_13
REMARK    4  A    between atoms: N_19  and  C_22
REMARK    5  A    between atoms: C_22  and  C_23
REMARK    6  A    between atoms: C_22  and  C_29
REMARK    7  A    between atoms: C_29  and  C_31
REMARK    8  A    between atoms: C_31  and  O_32
REMARK                            x       y       z     vdW  Elec       q    Type
REMARK                         _______ _______ _______ _____ _____    ______ ____
ROOT
ATOM      1  S   UNL     1      33.464 -14.808 -20.612  0.00  0.00    -0.082 S 
ATOM      2  C   UNL     1      34.192 -14.629 -22.130  0.00  0.00    +0.083 C 
ATOM      3  C   UNL     1      33.228 -12.576 -21.863  0.00  0.00    +0.007 C 
ATOM      4  C   UNL     1      34.010 -13.420 -22.705  0.00  0.00    +0.012 C 
ATOM      5  C   UNL     1      32.864 -13.205 -20.694  0.00  0.00    +0.036 C 
ENDROOT
BRANCH   3   6
ATOM      6  C   UNL     1      32.824 -11.221 -22.129  0.00  0.00    +0.001 C 
ATOM      7  C   UNL     1      32.041  -8.595 -22.641  0.00  0.00    +0.000 C 
ATOM      8  C   UNL     1      33.266 -10.577 -23.283  0.00  0.00    +0.000 C 
ATOM      9  C   UNL     1      31.992 -10.556 -21.229  0.00  0.00    +0.000 C 
ATOM     10  C   UNL     1      32.875  -9.263 -23.539  0.00  0.00    +0.000 C 
ATOM     11  C   UNL     1      31.601  -9.241 -21.486  0.00  0.00    +0.000 C 
BRANCH   7  13
ATOM     12  N   UNL     1      30.858  -4.597 -23.420  0.00  0.00    -0.242 NA
ATOM     13  C   UNL     1      31.637  -7.232 -22.906  0.00  0.00    +0.003 C 
ATOM     14  C   UNL     1      31.603  -6.756 -24.212  0.00  0.00    +0.021 C 
ATOM     15  C   UNL     1      31.281  -6.392 -21.857  0.00  0.00    +0.021 C 
ATOM     16  C   UNL     1      31.210  -5.443 -24.414  0.00  0.00    +0.099 C 
ATOM     17  C   UNL     1      30.903  -5.095 -22.164  0.00  0.00    +0.099 C 
ENDBRANCH   7  13
ENDBRANCH   3   6
BRANCH   2  20
ATOM     18  O   UNL     1      35.855 -15.636 -23.483  0.00  0.00    -0.270 OA
ATOM     19  N   UNL     1      34.520 -17.026 -22.235  0.00  0.00    -0.298 N 
ATOM     20  C   UNL     1      34.937 -15.773 -22.672  0.00  0.00    +0.252 C 
ATOM     21  H   UNL     1      33.781 -17.083 -21.586  0.00  0.00    +0.150 HD
BRANCH  19  22
ATOM     22  C   UNL     1      35.136 -18.249 -22.704  0.00  0.00    +0.105 C 
BRANCH  22  23
ATOM     23  C   UNL     1      35.615 -19.076 -21.527  0.00  0.00    -0.004 C 
ATOM     24  C   UNL     1      34.756 -20.000 -20.961  0.00  0.00    -0.003 C 
ATOM     25  C   UNL     1      36.898 -18.887 -21.048  0.00  0.00    -0.003 C 
ATOM     26  C   UNL     1      35.196 -20.762 -19.879  0.00  0.00    -0.000 C 
ATOM     27  C   UNL     1      37.338 -19.647 -19.966  0.00  0.00    -0.000 C 
ATOM     28  C   UNL     1      36.486 -20.584 -19.380  0.00  0.00    -0.000 C 
ENDBRANCH  22  23
BRANCH  22  29
ATOM     29  C   UNL     1      34.175 -19.004 -23.638  0.00  0.00    +0.133 C 
BRANCH  29  31
ATOM     30  O   UNL     1      32.433 -18.215 -25.151  0.00  0.00    -0.250 OA
ATOM     31  C   UNL     1      33.573 -18.128 -24.716  0.00  0.00    +0.316 C 
BRANCH  31  32
ATOM     32  O   UNL     1      34.474 -17.222 -25.181  0.00  0.00    -0.480 OA
ATOM     33  H   UNL     1      35.221 -17.512 -25.664  0.00  0.00    +0.295 HD
ENDBRANCH  31  32
ENDBRANCH  29  31
ENDBRANCH  22  29
ENDBRANCH  19  22
ENDBRANCH   2  20
TORSDOF 8
ENDMDL
MODEL 9
REMARK VINA RESULT:      -9.2     10.255     16.259
REMARK  Name = 448942
REMARK  8 active torsions:
REMARK  status: ('A' for Active; 'I' for Inactive)
REMARK    1  A    between atoms: C_2  and  C_20
REMARK    2  A    between atoms: C_3  and  C_6
REMARK    3  A    between atoms: C_7  and  C_13
REMARK    4  A    between atoms: N_19  and  C_22
REMARK    5  A    between atoms: C_22  and  C_23
REMARK    6  A    between atoms: C_22  and  C_29
REMARK    7  A    between atoms: C_29  and  C_31
REMARK    8  A    between atoms: C_31  and  O_32
REMARK                            x       y       z     vdW  Elec       q    Type
REMARK                         _______ _______ _______ _____ _____    ______ ____
ROOT
ATOM      1  S   UNL     1      33.345 -11.076 -24.708  0.00  0.00    -0.082 S 
ATOM      2  C   UNL     1      33.196 -10.768 -23.051  0.00  0.00    +0.083 C 
ATOM      3  C   UNL     1      33.890 -12.943 -23.028  0.00  0.00    +0.007 C 
ATOM      4  C   UNL     1      33.505 -11.812 -22.251  0.00  0.00    +0.012 C 
ATOM      5  C   UNL     1      33.847 -12.681 -24.379  0.00  0.00    +0.036 C 
ENDROOT
BRANCH   3   6
ATOM      6  C   UNL     1      34.287 -14.236 -22.540  0.00  0.00    +0.001 C 
ATOM      7  C   UNL     1      35.059 -16.743 -21.595  0.00  0.00    +0.000 C 
ATOM      8  C   UNL     1      34.347 -14.474 -21.169  0.00  0.00    +0.000 C 
ATOM      9  C   UNL     1      34.613 -15.249 -23.441  0.00  0.00    +0.000 C 
ATOM     10  C   UNL     1      34.733 -15.728 -20.695  0.00  0.00    +0.000 C 
ATOM     11  C   UNL     1      35.000 -16.503 -22.968  0.00  0.00    +0.000 C 
BRANCH   7  13
ATOM     12  N   UNL     1      36.236 -20.554 -20.154  0.00  0.00    -0.242 NA
ATOM     13  C   UNL     1      35.461 -18.042 -21.105  0.00  0.00    +0.003 C 
ATOM     14  C   UNL     1      34.517 -19.051 -20.949  0.00  0.00    +0.021 C 
ATOM     15  C   UNL     1      36.792 -18.288 -20.785  0.00  0.00    +0.021 C 
ATOM     16  C   UNL     1      34.952 -20.279 -20.474  0.00  0.00    +0.099 C 
ATOM     17  C   UNL     1      37.125 -19.548 -20.318  0.00  0.00    +0.099 C 
ENDBRANCH   7  13
ENDBRANCH   3   6
BRANCH   2  20
ATOM     18  O   UNL     1      32.011  -9.246 -21.675  0.00  0.00    -0.270 OA
ATOM     19  N   UNL     1      33.212  -8.375 -23.428  0.00  0.00    -0.298 N 
ATOM     20  C   UNL     1      32.757  -9.428 -22.639  0.00  0.00    +0.252 C 
ATOM     21  H   UNL     1      33.807  -8.572 -24.188  0.00  0.00    +0.150 HD
BRANCH  19  22
ATOM     22  C   UNL     1      32.840  -7.002 -23.167  0.00  0.00    +0.105 C 
BRANCH  22  23
ATOM     23  C   UNL     1      33.366  -6.100 -24.267  0.00  0.00    -0.004 C 
ATOM     24  C   UNL     1      32.466  -5.420 -25.066  0.00  0.00    -0.003 C 
ATOM     25  C   UNL     1      34.732  -5.981 -24.443  0.00  0.00    -0.003 C 
ATOM     26  C   UNL     1      32.950  -4.591 -26.078  0.00  0.00    -0.000 C 
ATOM     27  C   UNL     1      35.216  -5.152 -25.455  0.00  0.00    -0.000 C 
ATOM     28  C   UNL     1      34.325  -4.458 -26.273  0.00  0.00    -0.000 C 
ENDBRANCH  22  23
BRANCH  22  29
ATOM     29  C   UNL     1      31.320  -6.894 -22.957  0.00  0.00    +0.133 C 
BRANCH  29  31
ATOM     30  O   UNL     1      30.137  -5.099 -21.805  0.00  0.00    -0.250 OA
ATOM     31  C   UNL     1      30.937  -6.024 -21.778  0.00  0.00    +0.316 C 
BRANCH  31  32
ATOM     32  O   UNL     1      31.619  -6.379 -20.656  0.00  0.00    -0.480 OA
ATOM     33  H   UNL     1      32.554  -6.423 -20.672  0.00  0.00    +0.295 HD
ENDBRANCH  31  32
ENDBRANCH  29  31
ENDBRANCH  22  29
ENDBRANCH  19  22
ENDBRANCH   2  20
TORSDOF 8
ENDMDL
