MODEL 1
REMARK VINA RESULT:     -11.2      0.000      0.000
REMARK  Name = 4413
REMARK  6 active torsions:
REMARK  status: ('A' for Active; 'I' for Inactive)
REMARK    1  A    between atoms: O_1  and  C_9
REMARK    2  A    between atoms: O_1  and  C_19
REMARK    3  A    between atoms: C_6  and  C_14
REMARK    4  A    between atoms: C_19  and  C_20
REMARK    5  A    between atoms: C_23  and  N_26
REMARK    6  A    between atoms: N_26  and  C_29
REMARK                            x       y       z     vdW  Elec       q    Type
REMARK                         _______ _______ _______ _____ _____    ______ ____
ROOT
ATOM      1  O   UNL     1      32.550 -22.863 -17.649  0.00  0.00    -0.421 OA
ENDROOT
BRANCH   1   9
ATOM      2  C   UNL     1      33.835 -23.867 -13.812  0.00  0.00    +0.000 C 
ATOM      3  C   UNL     1      34.756 -23.349 -14.754  0.00  0.00    +0.003 C 
ATOM      4  C   UNL     1      34.284 -24.200 -12.523  0.00  0.00    +0.003 C 
ATOM      5  C   UNL     1      34.306 -23.016 -16.041  0.00  0.00    +0.038 C 
ATOM      6  C   UNL     1      35.622 -24.025 -12.169  0.00  0.00    +0.031 C 
ATOM      7  C   UNL     1      36.098 -23.179 -14.379  0.00  0.00    +0.000 C 
ATOM      8  C   UNL     1      32.492 -24.038 -14.187  0.00  0.00    +0.003 C 
ATOM      9  C   UNL     1      32.968 -23.192 -16.397  0.00  0.00    +0.149 C 
ATOM     10  C   UNL     1      36.528 -23.515 -13.094  0.00  0.00    +0.003 C 
ATOM     11  C   UNL     1      32.064 -23.701 -15.471  0.00  0.00    +0.038 C 
BRANCH   6  14
ATOM     12  N   UNL     1      37.276 -23.893 -10.321  0.00  0.00    -0.343 N 
ATOM     13  N   UNL     1      35.332 -25.167 -10.074  0.00  0.00    -0.285 NA
ATOM     14  C   UNL     1      36.071 -24.375 -10.831  0.00  0.00    +0.117 C 
ATOM     15  H   UNL     1      37.560 -24.143  -9.412  0.00  0.00    +0.144 HD
ATOM     16  H   UNL     1      37.842 -23.304 -10.870  0.00  0.00    +0.144 HD
ATOM     17  H   UNL     1      35.634 -25.405  -9.168  0.00  0.00    +0.188 HD
ENDBRANCH   6  14
ENDBRANCH   1   9
BRANCH   1  19
ATOM     18  O   UNL     1      33.782 -24.309 -18.997  0.00  0.00    -0.244 OA
ATOM     19  C   UNL     1      33.457 -23.179 -18.662  0.00  0.00    +0.346 C 
BRANCH  19  20
ATOM     20  C   UNL     1      33.989 -21.955 -19.311  0.00  0.00    +0.076 C 
ATOM     21  C   UNL     1      33.103 -21.041 -19.841  0.00  0.00    +0.008 C 
ATOM     22  C   UNL     1      35.356 -21.768 -19.361  0.00  0.00    +0.008 C 
ATOM     23  C   UNL     1      34.980 -19.676 -20.512  0.00  0.00    +0.084 C 
ATOM     24  C   UNL     1      33.604 -19.890 -20.448  0.00  0.00    +0.019 C 
ATOM     25  C   UNL     1      35.857 -20.616 -19.969  0.00  0.00    +0.019 C 
BRANCH  23  26
ATOM     26  N   UNL     1      35.482 -18.523 -21.122  0.00  0.00    -0.214 NA
BRANCH  26  29
ATOM     27  N   UNL     1      35.620 -17.185 -23.031  0.00  0.00    -0.370 N 
ATOM     28  N   UNL     1      34.981 -19.355 -23.328  0.00  0.00    -0.370 N 
ATOM     29  C   UNL     1      35.361 -18.390 -22.421  0.00  0.00    +0.193 C 
ATOM     30  H   UNL     1      35.902 -16.411 -22.493  0.00  0.00    +0.159 HD
ATOM     31  H   UNL     1      35.526 -17.097 -24.008  0.00  0.00    +0.159 HD
ATOM     32  H   UNL     1      34.768 -20.264 -23.018  0.00  0.00    +0.159 HD
ATOM     33  H   UNL     1      34.926 -19.136 -24.287  0.00  0.00    +0.159 HD
ENDBRANCH  26  29
ENDBRANCH  23  26
ENDBRANCH  19  20
ENDBRANCH   1  19
TORSDOF 6
ENDMDL
MODEL 2
REMARK VINA RESULT:     -11.2      4.558      7.368
REMARK  Name = 4413
REMARK  6 active torsions:
REMARK  status: ('A' for Active; 'I' for Inactive)
REMARK    1  A    between atoms: O_1  and  C_9
REMARK    2  A    between atoms: O_1  and  C_19
REMARK    3  A    between atoms: C_6  and  C_14
REMARK    4  A    between atoms: C_19  and  C_20
REMARK    5  A    between atoms: C_23  and  N_26
REMARK    6  A    between atoms: N_26  and  C_29
REMARK                            x       y       z     vdW  Elec       q    Type
REMARK                         _______ _______ _______ _____ _____    ______ ____
ROOT
ATOM      1  O   UNL     1      36.023 -17.781 -22.816  0.00  0.00    -0.421 OA
ENDROOT
BRANCH   1   9
ATOM      2  C   UNL     1      35.569 -20.580 -19.759  0.00  0.00    +0.000 C 
ATOM      3  C   UNL     1      34.437 -20.128 -20.479  0.00  0.00    +0.003 C 
ATOM      4  C   UNL     1      35.399 -21.523 -18.733  0.00  0.00    +0.003 C 
ATOM      5  C   UNL     1      34.607 -19.185 -21.505  0.00  0.00    +0.038 C 
ATOM      6  C   UNL     1      34.132 -22.014 -18.420  0.00  0.00    +0.031 C 
ATOM      7  C   UNL     1      33.169 -20.633 -20.151  0.00  0.00    +0.000 C 
ATOM      8  C   UNL     1      36.838 -20.074 -20.087  0.00  0.00    +0.003 C 
ATOM      9  C   UNL     1      35.875 -18.693 -21.818  0.00  0.00    +0.149 C 
ATOM     10  C   UNL     1      33.018 -21.570 -19.128  0.00  0.00    +0.003 C 
ATOM     11  C   UNL     1      36.988 -19.138 -21.110  0.00  0.00    +0.038 C 
BRANCH   6  14
ATOM     12  N   UNL     1      32.765 -23.659 -17.157  0.00  0.00    -0.343 N 
ATOM     13  N   UNL     1      34.985 -23.255 -16.548  0.00  0.00    -0.285 NA
ATOM     14  C   UNL     1      33.972 -22.990 -17.354  0.00  0.00    +0.117 C 
ATOM     15  H   UNL     1      32.680 -24.316 -16.430  0.00  0.00    +0.144 HD
ATOM     16  H   UNL     1      31.998 -23.473 -17.746  0.00  0.00    +0.144 HD
ATOM     17  H   UNL     1      34.879 -23.916 -15.826  0.00  0.00    +0.188 HD
ENDBRANCH   6  14
ENDBRANCH   1   9
BRANCH   1  19
ATOM     18  O   UNL     1      34.235 -18.396 -24.179  0.00  0.00    -0.244 OA
ATOM     19  C   UNL     1      34.864 -17.550 -23.561  0.00  0.00    +0.346 C 
BRANCH  19  20
ATOM     20  C   UNL     1      34.465 -16.120 -23.506  0.00  0.00    +0.076 C 
ATOM     21  C   UNL     1      33.801 -15.571 -24.583  0.00  0.00    +0.008 C 
ATOM     22  C   UNL     1      34.771 -15.386 -22.379  0.00  0.00    +0.008 C 
ATOM     23  C   UNL     1      33.720 -13.466 -23.403  0.00  0.00    +0.084 C 
ATOM     24  C   UNL     1      33.425 -14.230 -24.531  0.00  0.00    +0.019 C 
ATOM     25  C   UNL     1      34.394 -14.043 -22.326  0.00  0.00    +0.019 C 
BRANCH  23  26
ATOM     26  N   UNL     1      33.345 -12.120 -23.350  0.00  0.00    -0.214 NA
BRANCH  26  29
ATOM     27  N   UNL     1      34.771 -10.313 -23.750  0.00  0.00    -0.370 N 
ATOM     28  N   UNL     1      33.699 -11.210 -25.554  0.00  0.00    -0.370 N 
ATOM     29  C   UNL     1      33.893 -11.276 -24.192  0.00  0.00    +0.193 C 
ATOM     30  H   UNL     1      34.996 -10.254 -22.794  0.00  0.00    +0.159 HD
ATOM     31  H   UNL     1      35.176  -9.685 -24.391  0.00  0.00    +0.159 HD
ATOM     32  H   UNL     1      33.092 -11.846 -25.995  0.00  0.00    +0.159 HD
ATOM     33  H   UNL     1      34.169 -10.528 -26.087  0.00  0.00    +0.159 HD
ENDBRANCH  26  29
ENDBRANCH  23  26
ENDBRANCH  19  20
ENDBRANCH   1  19
TORSDOF 6
ENDMDL
MODEL 3
REMARK VINA RESULT:     -10.9      3.319      5.418
REMARK  Name = 4413
REMARK  6 active torsions:
REMARK  status: ('A' for Active; 'I' for Inactive)
REMARK    1  A    between atoms: O_1  and  C_9
REMARK    2  A    between atoms: O_1  and  C_19
REMARK    3  A    between atoms: C_6  and  C_14
REMARK    4  A    between atoms: C_19  and  C_20
REMARK    5  A    between atoms: C_23  and  N_26
REMARK    6  A    between atoms: N_26  and  C_29
REMARK                            x       y       z     vdW  Elec       q    Type
REMARK                         _______ _______ _______ _____ _____    ______ ____
ROOT
ATOM      1  O   UNL     1      35.695 -20.011 -21.240  0.00  0.00    -0.421 OA
ENDROOT
BRANCH   1   9
ATOM      2  C   UNL     1      33.201 -21.793 -18.413  0.00  0.00    +0.000 C 
ATOM      3  C   UNL     1      34.606 -21.917 -18.295  0.00  0.00    +0.003 C 
ATOM      4  C   UNL     1      32.375 -22.399 -17.452  0.00  0.00    +0.003 C 
ATOM      5  C   UNL     1      35.431 -21.310 -19.256  0.00  0.00    +0.038 C 
ATOM      6  C   UNL     1      32.927 -23.116 -16.390  0.00  0.00    +0.031 C 
ATOM      7  C   UNL     1      35.144 -22.641 -17.219  0.00  0.00    +0.000 C 
ATOM      8  C   UNL     1      32.663 -21.068 -19.490  0.00  0.00    +0.003 C 
ATOM      9  C   UNL     1      34.880 -20.593 -20.319  0.00  0.00    +0.149 C 
ATOM     10  C   UNL     1      34.308 -23.237 -16.273  0.00  0.00    +0.003 C 
ATOM     11  C   UNL     1      33.499 -20.473 -20.434  0.00  0.00    +0.038 C 
BRANCH   6  14
ATOM     12  N   UNL     1      30.695 -23.909 -15.643  0.00  0.00    -0.343 N 
ATOM     13  N   UNL     1      32.559 -24.150 -14.253  0.00  0.00    -0.285 NA
ATOM     14  C   UNL     1      32.058 -23.738 -15.404  0.00  0.00    +0.117 C 
ATOM     15  H   UNL     1      30.126 -24.334 -14.961  0.00  0.00    +0.144 HD
ATOM     16  H   UNL     1      30.303 -23.606 -16.493  0.00  0.00    +0.144 HD
ATOM     17  H   UNL     1      31.972 -24.572 -13.583  0.00  0.00    +0.188 HD
ENDBRANCH   6  14
ENDBRANCH   1   9
BRANCH   1  19
ATOM     18  O   UNL     1      36.521 -18.176 -20.065  0.00  0.00    -0.244 OA
ATOM     19  C   UNL     1      35.930 -18.652 -21.024  0.00  0.00    +0.346 C 
BRANCH  19  20
ATOM     20  C   UNL     1      35.375 -17.827 -22.127  0.00  0.00    +0.076 C 
ATOM     21  C   UNL     1      34.925 -18.456 -23.269  0.00  0.00    +0.008 C 
ATOM     22  C   UNL     1      35.325 -16.456 -21.973  0.00  0.00    +0.008 C 
ATOM     23  C   UNL     1      34.339 -16.293 -24.173  0.00  0.00    +0.084 C 
ATOM     24  C   UNL     1      34.401 -17.680 -24.303  0.00  0.00    +0.019 C 
ATOM     25  C   UNL     1      34.802 -15.681 -23.008  0.00  0.00    +0.019 C 
BRANCH  23  26
ATOM     26  N   UNL     1      33.816 -15.516 -25.210  0.00  0.00    -0.214 NA
BRANCH  26  29
ATOM     27  N   UNL     1      33.425 -13.312 -25.880  0.00  0.00    -0.370 N 
ATOM     28  N   UNL     1      32.819 -13.875 -23.753  0.00  0.00    -0.370 N 
ATOM     29  C   UNL     1      33.371 -14.312 -24.937  0.00  0.00    +0.193 C 
ATOM     30  H   UNL     1      33.799 -13.496 -26.772  0.00  0.00    +0.159 HD
ATOM     31  H   UNL     1      33.087 -12.412 -25.663  0.00  0.00    +0.159 HD
ATOM     32  H   UNL     1      32.723 -14.496 -22.996  0.00  0.00    +0.159 HD
ATOM     33  H   UNL     1      32.517 -12.941 -23.665  0.00  0.00    +0.159 HD
ENDBRANCH  26  29
ENDBRANCH  23  26
ENDBRANCH  19  20
ENDBRANCH   1  19
TORSDOF 6
ENDMDL
MODEL 4
REMARK VINA RESULT:     -10.9      4.354     10.775
REMARK  Name = 4413
REMARK  6 active torsions:
REMARK  status: ('A' for Active; 'I' for Inactive)
REMARK    1  A    between atoms: O_1  and  C_9
REMARK    2  A    between atoms: O_1  and  C_19
REMARK    3  A    between atoms: C_6  and  C_14
REMARK    4  A    between atoms: C_19  and  C_20
REMARK    5  A    between atoms: C_23  and  N_26
REMARK    6  A    between atoms: N_26  and  C_29
REMARK                            x       y       z     vdW  Elec       q    Type
REMARK                         _______ _______ _______ _____ _____    ______ ____
ROOT
ATOM      1  O   UNL     1      35.496 -19.126 -22.256  0.00  0.00    -0.421 OA
ENDROOT
BRANCH   1   9
ATOM      2  C   UNL     1      34.282 -15.401 -23.683  0.00  0.00    +0.000 C 
ATOM      3  C   UNL     1      34.634 -15.556 -22.321  0.00  0.00    +0.003 C 
ATOM      4  C   UNL     1      33.875 -14.140 -24.148  0.00  0.00    +0.003 C 
ATOM      5  C   UNL     1      35.041 -16.818 -21.857  0.00  0.00    +0.038 C 
ATOM      6  C   UNL     1      33.818 -13.047 -23.283  0.00  0.00    +0.031 C 
ATOM      7  C   UNL     1      34.571 -14.446 -21.465  0.00  0.00    +0.000 C 
ATOM      8  C   UNL     1      34.345 -16.513 -24.540  0.00  0.00    +0.003 C 
ATOM      9  C   UNL     1      35.098 -17.911 -22.722  0.00  0.00    +0.149 C 
ATOM     10  C   UNL     1      34.165 -13.200 -21.943  0.00  0.00    +0.003 C 
ATOM     11  C   UNL     1      34.751 -17.758 -24.061  0.00  0.00    +0.038 C 
BRANCH   6  14
ATOM     12  N   UNL     1      32.804 -10.806 -22.937  0.00  0.00    -0.343 N 
ATOM     13  N   UNL     1      33.565 -11.443 -25.054  0.00  0.00    -0.285 NA
ATOM     14  C   UNL     1      33.395 -11.748 -23.780  0.00  0.00    +0.117 C 
ATOM     15  H   UNL     1      32.526  -9.933 -23.296  0.00  0.00    +0.144 HD
ATOM     16  H   UNL     1      32.667 -11.016 -21.986  0.00  0.00    +0.144 HD
ATOM     17  H   UNL     1      33.279 -10.563 -25.392  0.00  0.00    +0.188 HD
ENDBRANCH   6  14
ENDBRANCH   1   9
BRANCH   1  19
ATOM     18  O   UNL     1      36.620 -18.332 -20.376  0.00  0.00    -0.244 OA
ATOM     19  C   UNL     1      35.867 -19.133 -20.910  0.00  0.00    +0.346 C 
BRANCH  19  20
ATOM     20  C   UNL     1      35.218 -20.250 -20.177  0.00  0.00    +0.076 C 
ATOM     21  C   UNL     1      33.844 -20.367 -20.221  0.00  0.00    +0.008 C 
ATOM     22  C   UNL     1      36.010 -21.137 -19.477  0.00  0.00    +0.008 C 
ATOM     23  C   UNL     1      34.012 -22.328 -18.820  0.00  0.00    +0.084 C 
ATOM     24  C   UNL     1      33.235 -21.417 -19.535  0.00  0.00    +0.019 C 
ATOM     25  C   UNL     1      35.400 -22.188 -18.791  0.00  0.00    +0.019 C 
BRANCH  23  26
ATOM     26  N   UNL     1      33.402 -23.380 -18.131  0.00  0.00    -0.214 NA
BRANCH  26  29
ATOM     27  N   UNL     1      31.592 -22.752 -16.794  0.00  0.00    -0.370 N 
ATOM     28  N   UNL     1      33.545 -23.257 -15.727  0.00  0.00    -0.370 N 
ATOM     29  C   UNL     1      32.900 -23.150 -16.940  0.00  0.00    +0.193 C 
ATOM     30  H   UNL     1      31.020 -22.638 -17.588  0.00  0.00    +0.159 HD
ATOM     31  H   UNL     1      31.226 -22.583 -15.896  0.00  0.00    +0.159 HD
ATOM     32  H   UNL     1      34.488 -23.535 -15.695  0.00  0.00    +0.159 HD
ATOM     33  H   UNL     1      33.061 -23.057 -14.893  0.00  0.00    +0.159 HD
ENDBRANCH  26  29
ENDBRANCH  23  26
ENDBRANCH  19  20
ENDBRANCH   1  19
TORSDOF 6
ENDMDL
MODEL 5
REMARK VINA RESULT:     -10.9      2.890      4.952
REMARK  Name = 4413
REMARK  6 active torsions:
REMARK  status: ('A' for Active; 'I' for Inactive)
REMARK    1  A    between atoms: O_1  and  C_9
REMARK    2  A    between atoms: O_1  and  C_19
REMARK    3  A    between atoms: C_6  and  C_14
REMARK    4  A    between atoms: C_19  and  C_20
REMARK    5  A    between atoms: C_23  and  N_26
REMARK    6  A    between atoms: N_26  and  C_29
REMARK                            x       y       z     vdW  Elec       q    Type
REMARK                         _______ _______ _______ _____ _____    ______ ____
ROOT
ATOM      1  O   UNL     1      35.254 -20.238 -21.090  0.00  0.00    -0.421 OA
ENDROOT
BRANCH   1   9
ATOM      2  C   UNL     1      35.288 -22.263 -17.445  0.00  0.00    +0.000 C 
ATOM      3  C   UNL     1      34.068 -22.076 -18.139  0.00  0.00    +0.003 C 
ATOM      4  C   UNL     1      35.282 -22.947 -16.219  0.00  0.00    +0.003 C 
ATOM      5  C   UNL     1      34.075 -21.391 -19.365  0.00  0.00    +0.038 C 
ATOM      6  C   UNL     1      34.092 -23.441 -15.685  0.00  0.00    +0.031 C 
ATOM      7  C   UNL     1      32.880 -22.579 -17.587  0.00  0.00    +0.000 C 
ATOM      8  C   UNL     1      36.477 -21.759 -17.998  0.00  0.00    +0.003 C 
ATOM      9  C   UNL     1      35.265 -20.898 -19.900  0.00  0.00    +0.149 C 
ATOM     10  C   UNL     1      32.892 -23.257 -16.367  0.00  0.00    +0.003 C 
ATOM     11  C   UNL     1      36.464 -21.082 -19.217  0.00  0.00    +0.038 C 
BRANCH   6  14
ATOM     12  N   UNL     1      34.872 -25.295 -14.228  0.00  0.00    -0.343 N 
ATOM     13  N   UNL     1      33.370 -23.702 -13.408  0.00  0.00    -0.285 NA
ATOM     14  C   UNL     1      34.103 -24.147 -14.414  0.00  0.00    +0.117 C 
ATOM     15  H   UNL     1      34.864 -25.756 -13.359  0.00  0.00    +0.144 HD
ATOM     16  H   UNL     1      35.422 -25.643 -14.966  0.00  0.00    +0.144 HD
ATOM     17  H   UNL     1      33.376 -24.179 -12.546  0.00  0.00    +0.188 HD
ENDBRANCH   6  14
ENDBRANCH   1   9
BRANCH   1  19
ATOM     18  O   UNL     1      36.684 -18.603 -20.247  0.00  0.00    -0.244 OA
ATOM     19  C   UNL     1      35.842 -18.973 -21.053  0.00  0.00    +0.346 C 
BRANCH  19  20
ATOM     20  C   UNL     1      35.324 -18.105 -22.141  0.00  0.00    +0.076 C 
ATOM     21  C   UNL     1      34.730 -18.694 -23.238  0.00  0.00    +0.008 C 
ATOM     22  C   UNL     1      35.452 -16.737 -22.020  0.00  0.00    +0.008 C 
ATOM     23  C   UNL     1      34.357 -16.493 -24.161  0.00  0.00    +0.084 C 
ATOM     24  C   UNL     1      34.241 -17.878 -24.259  0.00  0.00    +0.019 C 
ATOM     25  C   UNL     1      34.963 -15.921 -23.041  0.00  0.00    +0.019 C 
BRANCH  23  26
ATOM     26  N   UNL     1      33.869 -15.675 -25.184  0.00  0.00    -0.214 NA
BRANCH  26  29
ATOM     27  N   UNL     1      33.454 -13.462 -25.807  0.00  0.00    -0.370 N 
ATOM     28  N   UNL     1      32.894 -14.064 -23.678  0.00  0.00    -0.370 N 
ATOM     29  C   UNL     1      33.424 -14.478 -24.881  0.00  0.00    +0.193 C 
ATOM     30  H   UNL     1      33.810 -13.629 -26.710  0.00  0.00    +0.159 HD
ATOM     31  H   UNL     1      33.117 -12.568 -25.568  0.00  0.00    +0.159 HD
ATOM     32  H   UNL     1      32.818 -14.699 -22.930  0.00  0.00    +0.159 HD
ATOM     33  H   UNL     1      32.591 -13.133 -23.568  0.00  0.00    +0.159 HD
ENDBRANCH  26  29
ENDBRANCH  23  26
ENDBRANCH  19  20
ENDBRANCH   1  19
TORSDOF 6
ENDMDL
MODEL 6
REMARK VINA RESULT:     -10.7      1.817      9.629
REMARK  Name = 4413
REMARK  6 active torsions:
REMARK  status: ('A' for Active; 'I' for Inactive)
REMARK    1  A    between atoms: O_1  and  C_9
REMARK    2  A    between atoms: O_1  and  C_19
REMARK    3  A    between atoms: C_6  and  C_14
REMARK    4  A    between atoms: C_19  and  C_20
REMARK    5  A    between atoms: C_23  and  N_26
REMARK    6  A    between atoms: N_26  and  C_29
REMARK                            x       y       z     vdW  Elec       q    Type
REMARK                         _______ _______ _______ _____ _____    ______ ____
ROOT
ATOM      1  O   UNL     1      35.770 -22.547 -17.746  0.00  0.00    -0.421 OA
ENDROOT
BRANCH   1   9
ATOM      2  C   UNL     1      34.697 -19.917 -20.799  0.00  0.00    +0.000 C 
ATOM      3  C   UNL     1      36.057 -20.055 -20.429  0.00  0.00    +0.003 C 
ATOM      4  C   UNL     1      34.352 -19.027 -21.829  0.00  0.00    +0.003 C 
ATOM      5  C   UNL     1      36.400 -20.946 -19.399  0.00  0.00    +0.038 C 
ATOM      6  C   UNL     1      35.334 -18.285 -22.486  0.00  0.00    +0.031 C 
ATOM      7  C   UNL     1      37.031 -19.301 -21.102  0.00  0.00    +0.000 C 
ATOM      8  C   UNL     1      33.722 -20.672 -20.126  0.00  0.00    +0.003 C 
ATOM      9  C   UNL     1      35.419 -21.688 -18.741  0.00  0.00    +0.149 C 
ATOM     10  C   UNL     1      36.671 -18.421 -22.123  0.00  0.00    +0.003 C 
ATOM     11  C   UNL     1      34.083 -21.551 -19.105  0.00  0.00    +0.038 C 
BRANCH   6  14
ATOM     12  N   UNL     1      35.380 -16.038 -23.543  0.00  0.00    -0.343 N 
ATOM     13  N   UNL     1      34.207 -17.791 -24.550  0.00  0.00    -0.285 NA
ATOM     14  C   UNL     1      34.961 -17.368 -23.551  0.00  0.00    +0.117 C 
ATOM     15  H   UNL     1      35.116 -15.435 -24.275  0.00  0.00    +0.144 HD
ATOM     16  H   UNL     1      35.940 -15.703 -22.806  0.00  0.00    +0.144 HD
ATOM     17  H   UNL     1      33.953 -17.171 -25.272  0.00  0.00    +0.188 HD
ENDBRANCH   6  14
ENDBRANCH   1   9
BRANCH   1  19
ATOM     18  O   UNL     1      37.222 -20.948 -16.872  0.00  0.00    -0.244 OA
ATOM     19  C   UNL     1      36.586 -21.985 -16.762  0.00  0.00    +0.346 C 
BRANCH  19  20
ATOM     20  C   UNL     1      36.585 -22.809 -15.526  0.00  0.00    +0.076 C 
ATOM     21  C   UNL     1      37.757 -23.418 -15.129  0.00  0.00    +0.008 C 
ATOM     22  C   UNL     1      35.411 -22.939 -14.813  0.00  0.00    +0.008 C 
ATOM     23  C   UNL     1      36.583 -24.336 -13.228  0.00  0.00    +0.084 C 
ATOM     24  C   UNL     1      37.756 -24.190 -13.967  0.00  0.00    +0.019 C 
ATOM     25  C   UNL     1      35.410 -23.711 -13.651  0.00  0.00    +0.019 C 
BRANCH  23  26
ATOM     26  N   UNL     1      36.581 -25.111 -12.065  0.00  0.00    -0.214 NA
BRANCH  26  29
ATOM     27  N   UNL     1      37.435 -23.573 -10.528  0.00  0.00    -0.370 N 
ATOM     28  N   UNL     1      35.539 -24.694  -9.931  0.00  0.00    -0.370 N 
ATOM     29  C   UNL     1      36.499 -24.508 -10.902  0.00  0.00    +0.193 C 
ATOM     30  H   UNL     1      38.176 -23.347 -11.135  0.00  0.00    +0.159 HD
ATOM     31  H   UNL     1      37.363 -23.127  -9.652  0.00  0.00    +0.159 HD
ATOM     32  H   UNL     1      34.811 -25.339 -10.077  0.00  0.00    +0.159 HD
ATOM     33  H   UNL     1      35.581 -24.180  -9.092  0.00  0.00    +0.159 HD
ENDBRANCH  26  29
ENDBRANCH  23  26
ENDBRANCH  19  20
ENDBRANCH   1  19
TORSDOF 6
ENDMDL
MODEL 7
REMARK VINA RESULT:     -10.7      2.226      8.557
REMARK  Name = 4413
REMARK  6 active torsions:
REMARK  status: ('A' for Active; 'I' for Inactive)
REMARK    1  A    between atoms: O_1  and  C_9
REMARK    2  A    between atoms: O_1  and  C_19
REMARK    3  A    between atoms: C_6  and  C_14
REMARK    4  A    between atoms: C_19  and  C_20
REMARK    5  A    between atoms: C_23  and  N_26
REMARK    6  A    between atoms: N_26  and  C_29
REMARK                            x       y       z     vdW  Elec       q    Type
REMARK                         _______ _______ _______ _____ _____    ______ ____
ROOT
ATOM      1  O   UNL     1      33.922 -23.812 -16.848  0.00  0.00    -0.421 OA
ENDROOT
BRANCH   1   9
ATOM      2  C   UNL     1      34.050 -20.811 -19.740  0.00  0.00    +0.000 C 
ATOM      3  C   UNL     1      35.253 -21.321 -19.196  0.00  0.00    +0.003 C 
ATOM      4  C   UNL     1      34.110 -19.801 -20.714  0.00  0.00    +0.003 C 
ATOM      5  C   UNL     1      35.192 -22.331 -18.223  0.00  0.00    +0.038 C 
ATOM      6  C   UNL     1      35.339 -19.300 -21.145  0.00  0.00    +0.031 C 
ATOM      7  C   UNL     1      36.481 -20.806 -19.641  0.00  0.00    +0.000 C 
ATOM      8  C   UNL     1      32.821 -21.326 -19.294  0.00  0.00    +0.003 C 
ATOM      9  C   UNL     1      33.963 -22.832 -17.791  0.00  0.00    +0.149 C 
ATOM     10  C   UNL     1      36.523 -19.802 -20.610  0.00  0.00    +0.003 C 
ATOM     11  C   UNL     1      32.781 -22.330 -18.326  0.00  0.00    +0.038 C 
BRANCH   6  14
ATOM     12  N   UNL     1      34.672 -18.365 -23.346  0.00  0.00    -0.343 N 
ATOM     13  N   UNL     1      36.116 -17.173 -21.946  0.00  0.00    -0.285 NA
ATOM     14  C   UNL     1      35.385 -18.254 -22.153  0.00  0.00    +0.117 C 
ATOM     15  H   UNL     1      34.718 -17.643 -24.014  0.00  0.00    +0.144 HD
ATOM     16  H   UNL     1      34.124 -19.163 -23.520  0.00  0.00    +0.144 HD
ATOM     17  H   UNL     1      36.148 -16.463 -22.628  0.00  0.00    +0.188 HD
ENDBRANCH   6  14
ENDBRANCH   1   9
BRANCH   1  19
ATOM     18  O   UNL     1      33.186 -22.727 -14.922  0.00  0.00    -0.244 OA
ATOM     19  C   UNL     1      34.039 -23.353 -15.535  0.00  0.00    +0.346 C 
BRANCH  19  20
ATOM     20  C   UNL     1      35.348 -23.731 -14.946  0.00  0.00    +0.076 C 
ATOM     21  C   UNL     1      35.559 -25.043 -14.575  0.00  0.00    +0.008 C 
ATOM     22  C   UNL     1      36.314 -22.758 -14.790  0.00  0.00    +0.008 C 
ATOM     23  C   UNL     1      37.784 -24.434 -13.856  0.00  0.00    +0.084 C 
ATOM     24  C   UNL     1      36.790 -25.398 -14.024  0.00  0.00    +0.019 C 
ATOM     25  C   UNL     1      37.546 -23.114 -14.238  0.00  0.00    +0.019 C 
BRANCH  23  26
ATOM     26  N   UNL     1      39.017 -24.789 -13.302  0.00  0.00    -0.214 NA
BRANCH  26  29
ATOM     27  N   UNL     1      40.070 -25.349 -15.312  0.00  0.00    -0.370 N 
ATOM     28  N   UNL     1      40.469 -26.702 -13.518  0.00  0.00    -0.370 N 
ATOM     29  C   UNL     1      39.811 -25.583 -13.981  0.00  0.00    +0.193 C 
ATOM     30  H   UNL     1      39.659 -24.578 -15.765  0.00  0.00    +0.159 HD
ATOM     31  H   UNL     1      40.667 -25.952 -15.811  0.00  0.00    +0.159 HD
ATOM     32  H   UNL     1      40.367 -26.978 -12.579  0.00  0.00    +0.159 HD
ATOM     33  H   UNL     1      41.043 -27.223 -14.126  0.00  0.00    +0.159 HD
ENDBRANCH  26  29
ENDBRANCH  23  26
ENDBRANCH  19  20
ENDBRANCH   1  19
TORSDOF 6
ENDMDL
MODEL 8
REMARK VINA RESULT:     -10.4      8.262     12.625
REMARK  Name = 4413
REMARK  6 active torsions:
REMARK  status: ('A' for Active; 'I' for Inactive)
REMARK    1  A    between atoms: O_1  and  C_9
REMARK    2  A    between atoms: O_1  and  C_19
REMARK    3  A    between atoms: C_6  and  C_14
REMARK    4  A    between atoms: C_19  and  C_20
REMARK    5  A    between atoms: C_23  and  N_26
REMARK    6  A    between atoms: N_26  and  C_29
REMARK                            x       y       z     vdW  Elec       q    Type
REMARK                         _______ _______ _______ _____ _____    ______ ____
ROOT
ATOM      1  O   UNL     1      32.940 -12.032 -24.475  0.00  0.00    -0.421 OA
ENDROOT
BRANCH   1   9
ATOM      2  C   UNL     1      34.603 -15.279 -22.456  0.00  0.00    +0.000 C 
ATOM      3  C   UNL     1      34.196 -15.417 -23.805  0.00  0.00    +0.003 C 
ATOM      4  C   UNL     1      35.161 -16.382 -21.790  0.00  0.00    +0.003 C 
ATOM      5  C   UNL     1      33.638 -14.314 -24.470  0.00  0.00    +0.038 C 
ATOM      6  C   UNL     1      35.317 -17.604 -22.445  0.00  0.00    +0.031 C 
ATOM      7  C   UNL     1      34.361 -16.654 -24.448  0.00  0.00    +0.000 C 
ATOM      8  C   UNL     1      34.437 -14.041 -21.812  0.00  0.00    +0.003 C 
ATOM      9  C   UNL     1      33.481 -13.091 -23.815  0.00  0.00    +0.149 C 
ATOM     10  C   UNL     1      34.918 -17.740 -23.771  0.00  0.00    +0.003 C 
ATOM     11  C   UNL     1      33.881 -12.956 -22.489  0.00  0.00    +0.038 C 
BRANCH   6  14
ATOM     12  N   UNL     1      37.267 -18.813 -21.493  0.00  0.00    -0.343 N 
ATOM     13  N   UNL     1      35.120 -19.722 -21.327  0.00  0.00    -0.285 NA
ATOM     14  C   UNL     1      35.897 -18.737 -21.741  0.00  0.00    +0.117 C 
ATOM     15  H   UNL     1      37.637 -19.589 -21.015  0.00  0.00    +0.144 HD
ATOM     16  H   UNL     1      37.863 -18.091 -21.796  0.00  0.00    +0.144 HD
ATOM     17  H   UNL     1      35.510 -20.490 -20.850  0.00  0.00    +0.188 HD
ENDBRANCH   6  14
ENDBRANCH   1   9
BRANCH   1  19
ATOM     18  O   UNL     1      34.681 -11.149 -25.747  0.00  0.00    -0.244 OA
ATOM     19  C   UNL     1      33.862 -11.051 -24.845  0.00  0.00    +0.346 C 
BRANCH  19  20
ATOM     20  C   UNL     1      33.724  -9.837 -24.001  0.00  0.00    +0.076 C 
ATOM     21  C   UNL     1      34.798  -8.978 -23.887  0.00  0.00    +0.008 C 
ATOM     22  C   UNL     1      32.525  -9.604 -23.359  0.00  0.00    +0.008 C 
ATOM     23  C   UNL     1      33.466  -7.578 -22.437  0.00  0.00    +0.084 C 
ATOM     24  C   UNL     1      34.667  -7.837 -23.096  0.00  0.00    +0.019 C 
ATOM     25  C   UNL     1      32.394  -8.462 -22.568  0.00  0.00    +0.019 C 
BRANCH  23  26
ATOM     26  N   UNL     1      33.335  -6.435 -21.643  0.00  0.00    -0.214 NA
BRANCH  26  29
ATOM     27  N   UNL     1      31.623  -5.760 -20.204  0.00  0.00    -0.370 N 
ATOM     28  N   UNL     1      33.054  -7.362 -19.436  0.00  0.00    -0.370 N 
ATOM     29  C   UNL     1      32.724  -6.534 -20.486  0.00  0.00    +0.193 C 
ATOM     30  H   UNL     1      31.284  -5.124 -20.875  0.00  0.00    +0.159 HD
ATOM     31  H   UNL     1      31.172  -5.843 -19.332  0.00  0.00    +0.159 HD
ATOM     32  H   UNL     1      33.825  -7.969 -19.511  0.00  0.00    +0.159 HD
ATOM     33  H   UNL     1      32.517  -7.349 -18.610  0.00  0.00    +0.159 HD
ENDBRANCH  26  29
ENDBRANCH  23  26
ENDBRANCH  19  20
ENDBRANCH   1  19
TORSDOF 6
ENDMDL
MODEL 9
REMARK VINA RESULT:     -10.4      5.376      8.363
REMARK  Name = 4413
REMARK  6 active torsions:
REMARK  status: ('A' for Active; 'I' for Inactive)
REMARK    1  A    between atoms: O_1  and  C_9
REMARK    2  A    between atoms: O_1  and  C_19
REMARK    3  A    between atoms: C_6  and  C_14
REMARK    4  A    between atoms: C_19  and  C_20
REMARK    5  A    between atoms: C_23  and  N_26
REMARK    6  A    between atoms: N_26  and  C_29
REMARK                            x       y       z     vdW  Elec       q    Type
REMARK                         _______ _______ _______ _____ _____    ______ ____
ROOT
ATOM      1  O   UNL     1      36.434 -23.830 -12.476  0.00  0.00    -0.421 OA
ENDROOT
BRANCH   1   9
ATOM      2  C   UNL     1      33.018 -23.455 -14.836  0.00  0.00    +0.000 C 
ATOM      3  C   UNL     1      32.903 -23.859 -13.484  0.00  0.00    +0.003 C 
ATOM      4  C   UNL     1      31.857 -23.334 -15.618  0.00  0.00    +0.003 C 
ATOM      5  C   UNL     1      34.064 -23.980 -12.704  0.00  0.00    +0.038 C 
ATOM      6  C   UNL     1      30.602 -23.606 -15.074  0.00  0.00    +0.031 C 
ATOM      7  C   UNL     1      31.632 -24.128 -12.954  0.00  0.00    +0.000 C 
ATOM      8  C   UNL     1      34.290 -23.186 -15.367  0.00  0.00    +0.003 C 
ATOM      9  C   UNL     1      35.320 -23.708 -13.247  0.00  0.00    +0.149 C 
ATOM     10  C   UNL     1      30.488 -24.002 -13.744  0.00  0.00    +0.003 C 
ATOM     11  C   UNL     1      35.432 -23.312 -14.576  0.00  0.00    +0.038 C 
BRANCH   6  14
ATOM     12  N   UNL     1      28.554 -24.556 -16.110  0.00  0.00    -0.343 N 
ATOM     13  N   UNL     1      29.122 -22.315 -16.460  0.00  0.00    -0.285 NA
ATOM     14  C   UNL     1      29.409 -23.475 -15.896  0.00  0.00    +0.117 C 
ATOM     15  H   UNL     1      27.752 -24.444 -16.670  0.00  0.00    +0.144 HD
ATOM     16  H   UNL     1      28.752 -25.428 -15.701  0.00  0.00    +0.144 HD
ATOM     17  H   UNL     1      28.315 -22.225 -17.017  0.00  0.00    +0.188 HD
ENDBRANCH   6  14
ENDBRANCH   1   9
BRANCH   1  19
ATOM     18  O   UNL     1      36.328 -25.806 -11.247  0.00  0.00    -0.244 OA
ATOM     19  C   UNL     1      36.783 -25.147 -12.170  0.00  0.00    +0.346 C 
BRANCH  19  20
ATOM     20  C   UNL     1      37.788 -25.674 -13.127  0.00  0.00    +0.076 C 
ATOM     21  C   UNL     1      39.115 -25.339 -12.954  0.00  0.00    +0.008 C 
ATOM     22  C   UNL     1      37.363 -26.486 -14.159  0.00  0.00    +0.008 C 
ATOM     23  C   UNL     1      39.656 -26.659 -14.903  0.00  0.00    +0.084 C 
ATOM     24  C   UNL     1      40.059 -25.836 -13.852  0.00  0.00    +0.019 C 
ATOM     25  C   UNL     1      38.308 -26.984 -15.057  0.00  0.00    +0.019 C 
BRANCH  23  26
ATOM     26  N   UNL     1      40.602 -27.157 -15.804  0.00  0.00    -0.214 NA
BRANCH  26  29
ATOM     27  N   UNL     1      41.320 -29.267 -15.103  0.00  0.00    -0.370 N 
ATOM     28  N   UNL     1      40.144 -29.165 -17.056  0.00  0.00    -0.370 N 
ATOM     29  C   UNL     1      40.669 -28.453 -16.000  0.00  0.00    +0.193 C 
ATOM     30  H   UNL     1      41.740 -28.879 -14.302  0.00  0.00    +0.159 HD
ATOM     31  H   UNL     1      41.364 -30.238 -15.261  0.00  0.00    +0.159 HD
ATOM     32  H   UNL     1      39.653 -28.698 -17.769  0.00  0.00    +0.159 HD
ATOM     33  H   UNL     1      40.259 -30.143 -17.096  0.00  0.00    +0.159 HD
ENDBRANCH  26  29
ENDBRANCH  23  26
ENDBRANCH  19  20
ENDBRANCH   1  19
TORSDOF 6
ENDMDL
