MODEL 1
REMARK VINA RESULT:     -11.8      0.000      0.000
REMARK  Name = 15985904
REMARK  7 active torsions:
REMARK  status: ('A' for Active; 'I' for Inactive)
REMARK    1  A    between atoms: N_1  and  S_6
REMARK    2  A    between atoms: C_4  and  C_21
REMARK    3  A    between atoms: S_6  and  C_9
REMARK    4  A    between atoms: C_10  and  C_17
REMARK    5  A    between atoms: C_22  and  C_25
REMARK    6  A    between atoms: N_24  and  C_27
REMARK    7  A    between atoms: C_28  and  N_33
REMARK                            x       y       z     vdW  Elec       q    Type
REMARK                         _______ _______ _______ _____ _____    ______ ____
ROOT
ATOM      1  N   UNL     1      35.168 -17.177 -21.923  0.00  0.00    -0.167 N 
ATOM      2  C   UNL     1      34.940 -16.207 -22.809  0.00  0.00    +0.089 C 
ATOM      3  C   UNL     1      35.032 -16.802 -20.652  0.00  0.00    +0.089 C 
ATOM      4  C   UNL     1      34.624 -15.094 -22.061  0.00  0.00    +0.018 C 
ATOM      5  C   UNL     1      34.682 -15.470 -20.696  0.00  0.00    +0.019 C 
ENDROOT
BRANCH   1   6
ATOM      6  S   UNL     1      35.606 -18.785 -22.385  0.00  0.00    +0.080 S 
ATOM      7  O   UNL     1      37.054 -18.718 -22.458  0.00  0.00    -0.149 OA
ATOM      8  O   UNL     1      34.783 -19.104 -23.536  0.00  0.00    -0.149 OA
BRANCH   6   9
ATOM      9  C   UNL     1      35.110 -19.806 -21.058  0.00  0.00    +0.126 C 
ATOM     10  C   UNL     1      34.318 -21.436 -18.937  0.00  0.00    +0.003 C 
ATOM     11  C   UNL     1      33.755 -20.045 -20.831  0.00  0.00    +0.020 C 
ATOM     12  C   UNL     1      36.069 -20.382 -20.225  0.00  0.00    +0.020 C 
ATOM     13  C   UNL     1      33.359 -20.859 -19.771  0.00  0.00    +0.001 C 
ATOM     14  C   UNL     1      35.673 -21.196 -19.165  0.00  0.00    +0.001 C 
BRANCH  10  17
ATOM     15  N   UNL     1      33.997 -23.520 -16.061  0.00  0.00    -0.208 N 
ATOM     16  N   UNL     1      32.690 -23.514 -16.375  0.00  0.00    -0.176 NA
ATOM     17  C   UNL     1      33.910 -22.274 -17.846  0.00  0.00    +0.037 C 
ATOM     18  C   UNL     1      34.772 -22.791 -16.912  0.00  0.00    +0.086 C 
ATOM     19  C   UNL     1      32.645 -22.749 -17.468  0.00  0.00    +0.119 C 
ATOM     20  C   UNL     1      34.452 -24.259 -14.907  0.00  0.00    +0.140 C 
ENDBRANCH  10  17
ENDBRANCH   6   9
ENDBRANCH   1   6
BRANCH   4  21
ATOM     21  C   UNL     1      34.305 -13.826 -22.591  0.00  0.00    +0.006 C 
ATOM     22  C   UNL     1      33.827 -13.523 -23.831  0.00  0.00    +0.058 C 
BRANCH  22  25
ATOM     23  O   UNL     1      33.466 -11.786 -25.415  0.00  0.00    -0.270 OA
ATOM     24  N   UNL     1      33.382 -11.297 -23.120  0.00  0.00    -0.279 N 
ATOM     25  C   UNL     1      33.539 -12.110 -24.235  0.00  0.00    +0.250 C 
ATOM     26  H   UNL     1      33.477 -11.736 -22.243  0.00  0.00    +0.155 HD
BRANCH  24  27
ATOM     27  C   UNL     1      33.102  -9.909 -23.102  0.00  0.00    +0.064 C 
ATOM     28  C   UNL     1      34.053  -8.997 -23.529  0.00  0.00    +0.055 C 
ATOM     29  C   UNL     1      31.859  -9.495 -22.650  0.00  0.00    +0.016 C 
ATOM     30  C   UNL     1      33.754  -7.635 -23.502  0.00  0.00    +0.015 C 
ATOM     31  C   UNL     1      31.560  -8.133 -22.622  0.00  0.00    +0.001 C 
ATOM     32  C   UNL     1      32.508  -7.203 -23.048  0.00  0.00    +0.001 C 
BRANCH  28  33
ATOM     33  N   UNL     1      35.321  -9.411 -23.994  0.00  0.00    -0.356 N 
ATOM     34  H   UNL     1      36.100  -8.816 -23.894  0.00  0.00    +0.142 HD
ATOM     35  H   UNL     1      35.427 -10.293 -24.417  0.00  0.00    +0.142 HD
ENDBRANCH  28  33
ENDBRANCH  24  27
ENDBRANCH  22  25
ENDBRANCH   4  21
TORSDOF 7
ENDMDL
MODEL 2
REMARK VINA RESULT:     -11.3      2.729     12.073
REMARK  Name = 15985904
REMARK  7 active torsions:
REMARK  status: ('A' for Active; 'I' for Inactive)
REMARK    1  A    between atoms: N_1  and  S_6
REMARK    2  A    between atoms: C_4  and  C_21
REMARK    3  A    between atoms: S_6  and  C_9
REMARK    4  A    between atoms: C_10  and  C_17
REMARK    5  A    between atoms: C_22  and  C_25
REMARK    6  A    between atoms: N_24  and  C_27
REMARK    7  A    between atoms: C_28  and  N_33
REMARK                            x       y       z     vdW  Elec       q    Type
REMARK                         _______ _______ _______ _____ _____    ______ ____
ROOT
ATOM      1  N   UNL     1      35.314 -19.793 -20.906  0.00  0.00    -0.167 N 
ATOM      2  C   UNL     1      35.863 -20.528 -19.939  0.00  0.00    +0.089 C 
ATOM      3  C   UNL     1      33.985 -19.868 -20.964  0.00  0.00    +0.089 C 
ATOM      4  C   UNL     1      34.808 -21.141 -19.299  0.00  0.00    +0.018 C 
ATOM      5  C   UNL     1      33.620 -20.723 -19.948  0.00  0.00    +0.019 C 
ENDROOT
BRANCH   1   6
ATOM      6  S   UNL     1      36.247 -18.827 -21.995  0.00  0.00    +0.080 S 
ATOM      7  O   UNL     1      36.094 -19.524 -23.259  0.00  0.00    -0.149 OA
ATOM      8  O   UNL     1      37.538 -18.646 -21.358  0.00  0.00    -0.149 OA
BRANCH   6   9
ATOM      9  C   UNL     1      35.445 -17.278 -22.053  0.00  0.00    +0.126 C 
ATOM     10  C   UNL     1      34.164 -14.801 -22.147  0.00  0.00    +0.003 C 
ATOM     11  C   UNL     1      35.054 -16.740 -23.280  0.00  0.00    +0.020 C 
ATOM     12  C   UNL     1      35.195 -16.576 -20.874  0.00  0.00    +0.020 C 
ATOM     13  C   UNL     1      34.414 -15.502 -23.326  0.00  0.00    +0.001 C 
ATOM     14  C   UNL     1      34.555 -15.338 -20.920  0.00  0.00    +0.001 C 
BRANCH  10  17
ATOM     15  N   UNL     1      32.156 -11.884 -21.715  0.00  0.00    -0.208 N 
ATOM     16  N   UNL     1      32.862 -11.414 -22.758  0.00  0.00    -0.176 NA
ATOM     17  C   UNL     1      33.505 -13.526 -22.195  0.00  0.00    +0.037 C 
ATOM     18  C   UNL     1      32.504 -13.148 -21.338  0.00  0.00    +0.086 C 
ATOM     19  C   UNL     1      33.686 -12.424 -23.045  0.00  0.00    +0.119 C 
ATOM     20  C   UNL     1      31.139 -11.059 -21.108  0.00  0.00    +0.140 C 
ENDBRANCH  10  17
ENDBRANCH   6   9
ENDBRANCH   1   6
BRANCH   4  21
ATOM     21  C   UNL     1      34.926 -22.018 -18.201  0.00  0.00    +0.006 C 
ATOM     22  C   UNL     1      35.854 -22.004 -17.202  0.00  0.00    +0.058 C 
BRANCH  22  25
ATOM     23  O   UNL     1      34.974 -23.891 -16.054  0.00  0.00    -0.270 OA
ATOM     24  N   UNL     1      36.882 -22.811 -15.214  0.00  0.00    -0.279 N 
ATOM     25  C   UNL     1      35.834 -23.019 -16.101  0.00  0.00    +0.250 C 
ATOM     26  H   UNL     1      37.480 -22.054 -15.414  0.00  0.00    +0.155 HD
BRANCH  24  27
ATOM     27  C   UNL     1      37.188 -23.565 -14.055  0.00  0.00    +0.064 C 
ATOM     28  C   UNL     1      38.259 -24.444 -14.053  0.00  0.00    +0.055 C 
ATOM     29  C   UNL     1      36.392 -23.397 -12.933  0.00  0.00    +0.016 C 
ATOM     30  C   UNL     1      38.541 -25.175 -12.900  0.00  0.00    +0.015 C 
ATOM     31  C   UNL     1      36.673 -24.128 -11.780  0.00  0.00    +0.001 C 
ATOM     32  C   UNL     1      37.748 -25.018 -11.763  0.00  0.00    +0.001 C 
BRANCH  28  33
ATOM     33  N   UNL     1      39.077 -24.618 -15.192  0.00  0.00    -0.356 N 
ATOM     34  H   UNL     1      40.050 -24.728 -15.086  0.00  0.00    +0.142 HD
ATOM     35  H   UNL     1      38.674 -24.631 -16.090  0.00  0.00    +0.142 HD
ENDBRANCH  28  33
ENDBRANCH  24  27
ENDBRANCH  22  25
ENDBRANCH   4  21
TORSDOF 7
ENDMDL
MODEL 3
REMARK VINA RESULT:     -11.3      2.537     11.831
REMARK  Name = 15985904
REMARK  7 active torsions:
REMARK  status: ('A' for Active; 'I' for Inactive)
REMARK    1  A    between atoms: N_1  and  S_6
REMARK    2  A    between atoms: C_4  and  C_21
REMARK    3  A    between atoms: S_6  and  C_9
REMARK    4  A    between atoms: C_10  and  C_17
REMARK    5  A    between atoms: C_22  and  C_25
REMARK    6  A    between atoms: N_24  and  C_27
REMARK    7  A    between atoms: C_28  and  N_33
REMARK                            x       y       z     vdW  Elec       q    Type
REMARK                         _______ _______ _______ _____ _____    ______ ____
ROOT
ATOM      1  N   UNL     1      34.805 -19.653 -20.759  0.00  0.00    -0.167 N 
ATOM      2  C   UNL     1      34.940 -20.390 -19.656  0.00  0.00    +0.089 C 
ATOM      3  C   UNL     1      33.607 -19.746 -21.337  0.00  0.00    +0.089 C 
ATOM      4  C   UNL     1      33.729 -21.025 -19.487  0.00  0.00    +0.018 C 
ATOM      5  C   UNL     1      32.886 -20.617 -20.551  0.00  0.00    +0.019 C 
ENDROOT
BRANCH   1   6
ATOM      6  S   UNL     1      36.075 -18.663 -21.387  0.00  0.00    +0.080 S 
ATOM      7  O   UNL     1      36.394 -19.308 -22.649  0.00  0.00    -0.149 OA
ATOM      8  O   UNL     1      37.043 -18.531 -20.314  0.00  0.00    -0.149 OA
BRANCH   6   9
ATOM      9  C   UNL     1      35.355 -17.098 -21.669  0.00  0.00    +0.126 C 
ATOM     10  C   UNL     1      34.203 -14.598 -22.120  0.00  0.00    +0.003 C 
ATOM     11  C   UNL     1      34.998 -16.290 -20.590  0.00  0.00    +0.020 C 
ATOM     12  C   UNL     1      35.136 -16.655 -22.974  0.00  0.00    +0.020 C 
ATOM     13  C   UNL     1      34.422 -15.040 -20.815  0.00  0.00    +0.001 C 
ATOM     14  C   UNL     1      34.560 -15.406 -23.199  0.00  0.00    +0.001 C 
BRANCH  10  17
ATOM     15  N   UNL     1      32.305 -11.577 -22.152  0.00  0.00    -0.208 N 
ATOM     16  N   UNL     1      33.110 -11.247 -23.177  0.00  0.00    -0.176 NA
ATOM     17  C   UNL     1      33.609 -13.311 -22.351  0.00  0.00    +0.037 C 
ATOM     18  C   UNL     1      32.564 -12.806 -21.621  0.00  0.00    +0.086 C 
ATOM     19  C   UNL     1      33.905 -12.313 -23.292  0.00  0.00    +0.119 C 
ATOM     20  C   UNL     1      31.285 -10.654 -21.716  0.00  0.00    +0.140 C 
ENDBRANCH  10  17
ENDBRANCH   6   9
ENDBRANCH   1   6
BRANCH   4  21
ATOM     21  C   UNL     1      33.419 -21.912 -18.435  0.00  0.00    +0.006 C 
ATOM     22  C   UNL     1      34.276 -22.571 -17.604  0.00  0.00    +0.058 C 
BRANCH  22  25
ATOM     23  O   UNL     1      34.488 -24.359 -16.051  0.00  0.00    -0.270 OA
ATOM     24  N   UNL     1      32.460 -23.186 -16.196  0.00  0.00    -0.279 N 
ATOM     25  C   UNL     1      33.774 -23.484 -16.529  0.00  0.00    +0.250 C 
ATOM     26  H   UNL     1      32.042 -22.442 -16.690  0.00  0.00    +0.155 HD
BRANCH  24  27
ATOM     27  C   UNL     1      31.651 -23.830 -15.228  0.00  0.00    +0.064 C 
ATOM     28  C   UNL     1      32.027 -23.835 -13.894  0.00  0.00    +0.055 C 
ATOM     29  C   UNL     1      30.485 -24.446 -15.651  0.00  0.00    +0.016 C 
ATOM     30  C   UNL     1      31.214 -24.476 -12.959  0.00  0.00    +0.015 C 
ATOM     31  C   UNL     1      29.673 -25.087 -14.715  0.00  0.00    +0.001 C 
ATOM     32  C   UNL     1      30.037 -25.102 -13.369  0.00  0.00    +0.001 C 
BRANCH  28  33
ATOM     33  N   UNL     1      33.213 -23.207 -13.455  0.00  0.00    -0.356 N 
ATOM     34  H   UNL     1      33.433 -23.188 -12.495  0.00  0.00    +0.142 HD
ATOM     35  H   UNL     1      33.819 -22.789 -14.107  0.00  0.00    +0.142 HD
ENDBRANCH  28  33
ENDBRANCH  24  27
ENDBRANCH  22  25
ENDBRANCH   4  21
TORSDOF 7
ENDMDL
MODEL 4
REMARK VINA RESULT:     -11.0      5.342      8.557
REMARK  Name = 15985904
REMARK  7 active torsions:
REMARK  status: ('A' for Active; 'I' for Inactive)
REMARK    1  A    between atoms: N_1  and  S_6
REMARK    2  A    between atoms: C_4  and  C_21
REMARK    3  A    between atoms: S_6  and  C_9
REMARK    4  A    between atoms: C_10  and  C_17
REMARK    5  A    between atoms: C_22  and  C_25
REMARK    6  A    between atoms: N_24  and  C_27
REMARK    7  A    between atoms: C_28  and  N_33
REMARK                            x       y       z     vdW  Elec       q    Type
REMARK                         _______ _______ _______ _____ _____    ______ ____
ROOT
ATOM      1  N   UNL     1      36.346 -23.366 -15.325  0.00  0.00    -0.167 N 
ATOM      2  C   UNL     1      35.977 -22.781 -16.464  0.00  0.00    +0.089 C 
ATOM      3  C   UNL     1      37.513 -22.938 -14.842  0.00  0.00    +0.089 C 
ATOM      4  C   UNL     1      36.984 -21.889 -16.763  0.00  0.00    +0.018 C 
ATOM      5  C   UNL     1      37.956 -21.989 -15.736  0.00  0.00    +0.019 C 
ENDROOT
BRANCH   1   6
ATOM      6  S   UNL     1      35.394 -24.576 -14.540  0.00  0.00    +0.080 S 
ATOM      7  O   UNL     1      35.768 -24.428 -13.145  0.00  0.00    -0.149 OA
ATOM      8  O   UNL     1      35.622 -25.803 -15.281  0.00  0.00    -0.149 OA
BRANCH   6   9
ATOM      9  C   UNL     1      33.733 -24.094 -14.778  0.00  0.00    +0.126 C 
ATOM     10  C   UNL     1      31.078 -23.326 -15.160  0.00  0.00    +0.003 C 
ATOM     11  C   UNL     1      32.815 -24.215 -13.735  0.00  0.00    +0.020 C 
ATOM     12  C   UNL     1      33.323 -23.589 -16.012  0.00  0.00    +0.020 C 
ATOM     13  C   UNL     1      31.488 -23.832 -13.926  0.00  0.00    +0.001 C 
ATOM     14  C   UNL     1      31.996 -23.205 -16.203  0.00  0.00    +0.001 C 
BRANCH  10  17
ATOM     15  N   UNL     1      27.801 -22.530 -16.323  0.00  0.00    -0.208 N 
ATOM     16  N   UNL     1      27.583 -22.181 -15.044  0.00  0.00    -0.176 NA
ATOM     17  C   UNL     1      29.711 -22.931 -15.356  0.00  0.00    +0.037 C 
ATOM     18  C   UNL     1      29.063 -22.987 -16.563  0.00  0.00    +0.086 C 
ATOM     19  C   UNL     1      28.757 -22.429 -14.458  0.00  0.00    +0.119 C 
ATOM     20  C   UNL     1      26.738 -22.403 -17.292  0.00  0.00    +0.140 C 
ENDBRANCH  10  17
ENDBRANCH   6   9
ENDBRANCH   1   6
BRANCH   4  21
ATOM     21  C   UNL     1      37.010 -21.045 -17.893  0.00  0.00    +0.006 C 
ATOM     22  C   UNL     1      36.304 -21.164 -19.054  0.00  0.00    +0.058 C 
BRANCH  22  25
ATOM     23  O   UNL     1      37.526 -19.625 -20.393  0.00  0.00    -0.270 OA
ATOM     24  N   UNL     1      35.249 -19.989 -20.833  0.00  0.00    -0.279 N 
ATOM     25  C   UNL     1      36.452 -20.170 -20.163  0.00  0.00    +0.250 C 
ATOM     26  H   UNL     1      34.484 -20.517 -20.506  0.00  0.00    +0.155 HD
BRANCH  24  27
ATOM     27  C   UNL     1      34.998 -19.132 -21.933  0.00  0.00    +0.064 C 
ATOM     28  C   UNL     1      35.142 -17.761 -21.799  0.00  0.00    +0.055 C 
ATOM     29  C   UNL     1      34.608 -19.702 -23.134  0.00  0.00    +0.016 C 
ATOM     30  C   UNL     1      34.889 -16.937 -22.896  0.00  0.00    +0.015 C 
ATOM     31  C   UNL     1      34.355 -18.879 -24.231  0.00  0.00    +0.001 C 
ATOM     32  C   UNL     1      34.495 -17.496 -24.112  0.00  0.00    +0.001 C 
BRANCH  28  33
ATOM     33  N   UNL     1      35.541 -17.173 -20.578  0.00  0.00    -0.356 N 
ATOM     34  H   UNL     1      34.890 -16.666 -20.041  0.00  0.00    +0.142 HD
ATOM     35  H   UNL     1      36.469 -17.270 -20.265  0.00  0.00    +0.142 HD
ENDBRANCH  28  33
ENDBRANCH  24  27
ENDBRANCH  22  25
ENDBRANCH   4  21
TORSDOF 7
ENDMDL
MODEL 5
REMARK VINA RESULT:     -10.7      2.073     11.723
REMARK  Name = 15985904
REMARK  7 active torsions:
REMARK  status: ('A' for Active; 'I' for Inactive)
REMARK    1  A    between atoms: N_1  and  S_6
REMARK    2  A    between atoms: C_4  and  C_21
REMARK    3  A    between atoms: S_6  and  C_9
REMARK    4  A    between atoms: C_10  and  C_17
REMARK    5  A    between atoms: C_22  and  C_25
REMARK    6  A    between atoms: N_24  and  C_27
REMARK    7  A    between atoms: C_28  and  N_33
REMARK                            x       y       z     vdW  Elec       q    Type
REMARK                         _______ _______ _______ _____ _____    ______ ____
ROOT
ATOM      1  N   UNL     1      34.801 -18.041 -22.845  0.00  0.00    -0.167 N 
ATOM      2  C   UNL     1      34.277 -19.137 -22.296  0.00  0.00    +0.089 C 
ATOM      3  C   UNL     1      35.800 -17.501 -22.146  0.00  0.00    +0.089 C 
ATOM      4  C   UNL     1      34.989 -19.343 -21.135  0.00  0.00    +0.018 C 
ATOM      5  C   UNL     1      35.952 -18.308 -21.040  0.00  0.00    +0.019 C 
ENDROOT
BRANCH   1   6
ATOM      6  S   UNL     1      34.234 -17.375 -24.336  0.00  0.00    +0.080 S 
ATOM      7  O   UNL     1      32.951 -18.031 -24.516  0.00  0.00    -0.149 OA
ATOM      8  O   UNL     1      35.325 -17.528 -25.280  0.00  0.00    -0.149 OA
BRANCH   6   9
ATOM      9  C   UNL     1      34.007 -15.671 -24.033  0.00  0.00    +0.126 C 
ATOM     10  C   UNL     1      33.645 -12.947 -23.550  0.00  0.00    +0.003 C 
ATOM     11  C   UNL     1      34.368 -15.127 -22.800  0.00  0.00    +0.020 C 
ATOM     12  C   UNL     1      33.466 -14.852 -25.025  0.00  0.00    +0.020 C 
ATOM     13  C   UNL     1      34.186 -13.766 -22.558  0.00  0.00    +0.001 C 
ATOM     14  C   UNL     1      33.285 -13.490 -24.783  0.00  0.00    +0.001 C 
BRANCH  10  17
ATOM     15  N   UNL     1      32.654  -9.683 -22.505  0.00  0.00    -0.208 N 
ATOM     16  N   UNL     1      33.652  -9.275 -23.308  0.00  0.00    -0.176 NA
ATOM     17  C   UNL     1      33.458 -11.545 -23.300  0.00  0.00    +0.037 C 
ATOM     18  C   UNL     1      32.496 -11.037 -22.465  0.00  0.00    +0.086 C 
ATOM     19  C   UNL     1      34.139 -10.421 -23.791  0.00  0.00    +0.119 C 
ATOM     20  C   UNL     1      31.870  -8.708 -21.785  0.00  0.00    +0.140 C 
ENDBRANCH  10  17
ENDBRANCH   6   9
ENDBRANCH   1   6
BRANCH   4  21
ATOM     21  C   UNL     1      34.772 -20.402 -20.228  0.00  0.00    +0.006 C 
ATOM     22  C   UNL     1      35.693 -21.093 -19.498  0.00  0.00    +0.058 C 
BRANCH  22  25
ATOM     23  O   UNL     1      34.589 -23.128 -18.960  0.00  0.00    -0.270 OA
ATOM     24  N   UNL     1      35.806 -21.998 -17.302  0.00  0.00    -0.279 N 
ATOM     25  C   UNL     1      35.288 -22.199 -18.574  0.00  0.00    +0.250 C 
ATOM     26  H   UNL     1      36.351 -21.187 -17.175  0.00  0.00    +0.155 HD
BRANCH  24  27
ATOM     27  C   UNL     1      35.639 -22.827 -16.165  0.00  0.00    +0.064 C 
ATOM     28  C   UNL     1      36.743 -23.309 -15.481  0.00  0.00    +0.055 C 
ATOM     29  C   UNL     1      34.350 -23.138 -15.763  0.00  0.00    +0.016 C 
ATOM     30  C   UNL     1      36.554 -24.124 -14.365  0.00  0.00    +0.015 C 
ATOM     31  C   UNL     1      34.160 -23.953 -14.647  0.00  0.00    +0.001 C 
ATOM     32  C   UNL     1      35.262 -24.446 -13.948  0.00  0.00    +0.001 C 
BRANCH  28  33
ATOM     33  N   UNL     1      38.060 -22.994 -15.884  0.00  0.00    -0.356 N 
ATOM     34  H   UNL     1      38.799 -23.049 -15.235  0.00  0.00    +0.142 HD
ATOM     35  H   UNL     1      38.240 -22.721 -16.812  0.00  0.00    +0.142 HD
ENDBRANCH  28  33
ENDBRANCH  24  27
ENDBRANCH  22  25
ENDBRANCH   4  21
TORSDOF 7
ENDMDL
MODEL 6
REMARK VINA RESULT:     -10.5      1.960     11.461
REMARK  Name = 15985904
REMARK  7 active torsions:
REMARK  status: ('A' for Active; 'I' for Inactive)
REMARK    1  A    between atoms: N_1  and  S_6
REMARK    2  A    between atoms: C_4  and  C_21
REMARK    3  A    between atoms: S_6  and  C_9
REMARK    4  A    between atoms: C_10  and  C_17
REMARK    5  A    between atoms: C_22  and  C_25
REMARK    6  A    between atoms: N_24  and  C_27
REMARK    7  A    between atoms: C_28  and  N_33
REMARK                            x       y       z     vdW  Elec       q    Type
REMARK                         _______ _______ _______ _____ _____    ______ ____
ROOT
ATOM      1  N   UNL     1      34.781 -18.230 -22.762  0.00  0.00    -0.167 N 
ATOM      2  C   UNL     1      34.236 -19.322 -22.225  0.00  0.00    +0.089 C 
ATOM      3  C   UNL     1      35.761 -17.693 -22.035  0.00  0.00    +0.089 C 
ATOM      4  C   UNL     1      34.912 -19.528 -21.043  0.00  0.00    +0.018 C 
ATOM      5  C   UNL     1      35.877 -18.497 -20.922  0.00  0.00    +0.019 C 
ENDROOT
BRANCH   1   6
ATOM      6  S   UNL     1      34.260 -17.567 -24.271  0.00  0.00    +0.080 S 
ATOM      7  O   UNL     1      32.983 -18.222 -24.489  0.00  0.00    -0.149 OA
ATOM      8  O   UNL     1      35.380 -17.722 -25.180  0.00  0.00    -0.149 OA
BRANCH   6   9
ATOM      9  C   UNL     1      34.027 -15.861 -23.978  0.00  0.00    +0.126 C 
ATOM     10  C   UNL     1      33.656 -13.136 -23.511  0.00  0.00    +0.003 C 
ATOM     11  C   UNL     1      33.502 -15.047 -24.981  0.00  0.00    +0.020 C 
ATOM     12  C   UNL     1      34.367 -15.312 -22.742  0.00  0.00    +0.020 C 
ATOM     13  C   UNL     1      33.316 -13.685 -24.748  0.00  0.00    +0.001 C 
ATOM     14  C   UNL     1      34.181 -13.950 -22.508  0.00  0.00    +0.001 C 
BRANCH  10  17
ATOM     15  N   UNL     1      32.668  -9.869 -22.475  0.00  0.00    -0.208 N 
ATOM     16  N   UNL     1      33.641  -9.462 -23.308  0.00  0.00    -0.176 NA
ATOM     17  C   UNL     1      33.465 -11.733 -23.272  0.00  0.00    +0.037 C 
ATOM     18  C   UNL     1      32.522 -11.224 -22.417  0.00  0.00    +0.086 C 
ATOM     19  C   UNL     1      34.124 -10.609 -23.791  0.00  0.00    +0.119 C 
ATOM     20  C   UNL     1      31.895  -8.892 -21.745  0.00  0.00    +0.140 C 
ENDBRANCH  10  17
ENDBRANCH   6   9
ENDBRANCH   1   6
BRANCH   4  21
ATOM     21  C   UNL     1      34.664 -20.583 -20.140  0.00  0.00    +0.006 C 
ATOM     22  C   UNL     1      33.491 -21.236 -19.904  0.00  0.00    +0.058 C 
BRANCH  22  25
ATOM     23  O   UNL     1      33.947 -23.426 -19.097  0.00  0.00    -0.270 OA
ATOM     24  N   UNL     1      32.648 -21.961 -17.801  0.00  0.00    -0.279 N 
ATOM     25  C   UNL     1      33.401 -22.345 -18.903  0.00  0.00    +0.250 C 
ATOM     26  H   UNL     1      32.284 -21.046 -17.819  0.00  0.00    +0.155 HD
BRANCH  24  27
ATOM     27  C   UNL     1      32.344 -22.737 -16.656  0.00  0.00    +0.064 C 
ATOM     28  C   UNL     1      33.359 -23.216 -15.844  0.00  0.00    +0.055 C 
ATOM     29  C   UNL     1      31.012 -22.998 -16.374  0.00  0.00    +0.016 C 
ATOM     30  C   UNL     1      33.035 -23.977 -14.722  0.00  0.00    +0.015 C 
ATOM     31  C   UNL     1      30.688 -23.759 -15.251  0.00  0.00    +0.001 C 
ATOM     32  C   UNL     1      31.699 -24.250 -14.425  0.00  0.00    +0.001 C 
BRANCH  28  33
ATOM     33  N   UNL     1      34.719 -22.952 -16.124  0.00  0.00    -0.356 N 
ATOM     34  H   UNL     1      35.063 -23.064 -17.040  0.00  0.00    +0.142 HD
ATOM     35  H   UNL     1      35.321 -22.655 -15.405  0.00  0.00    +0.142 HD
ENDBRANCH  28  33
ENDBRANCH  24  27
ENDBRANCH  22  25
ENDBRANCH   4  21
TORSDOF 7
ENDMDL
MODEL 7
REMARK VINA RESULT:     -10.4      1.965     11.549
REMARK  Name = 15985904
REMARK  7 active torsions:
REMARK  status: ('A' for Active; 'I' for Inactive)
REMARK    1  A    between atoms: N_1  and  S_6
REMARK    2  A    between atoms: C_4  and  C_21
REMARK    3  A    between atoms: S_6  and  C_9
REMARK    4  A    between atoms: C_10  and  C_17
REMARK    5  A    between atoms: C_22  and  C_25
REMARK    6  A    between atoms: N_24  and  C_27
REMARK    7  A    between atoms: C_28  and  N_33
REMARK                            x       y       z     vdW  Elec       q    Type
REMARK                         _______ _______ _______ _____ _____    ______ ____
ROOT
ATOM      1  N   UNL     1      34.772 -18.288 -22.765  0.00  0.00    -0.167 N 
ATOM      2  C   UNL     1      34.283 -19.415 -22.247  0.00  0.00    +0.089 C 
ATOM      3  C   UNL     1      35.719 -17.710 -22.025  0.00  0.00    +0.089 C 
ATOM      4  C   UNL     1      34.964 -19.601 -21.063  0.00  0.00    +0.018 C 
ATOM      5  C   UNL     1      35.872 -18.522 -20.923  0.00  0.00    +0.019 C 
ENDROOT
BRANCH   1   6
ATOM      6  S   UNL     1      34.225 -17.632 -24.268  0.00  0.00    +0.080 S 
ATOM      7  O   UNL     1      32.943 -18.286 -24.459  0.00  0.00    -0.149 OA
ATOM      8  O   UNL     1      35.327 -17.794 -25.197  0.00  0.00    -0.149 OA
BRANCH   6   9
ATOM      9  C   UNL     1      33.999 -15.924 -23.980  0.00  0.00    +0.126 C 
ATOM     10  C   UNL     1      33.641 -13.196 -23.521  0.00  0.00    +0.003 C 
ATOM     11  C   UNL     1      33.472 -15.112 -24.983  0.00  0.00    +0.020 C 
ATOM     12  C   UNL     1      34.347 -15.373 -22.747  0.00  0.00    +0.020 C 
ATOM     13  C   UNL     1      33.293 -13.748 -24.754  0.00  0.00    +0.001 C 
ATOM     14  C   UNL     1      34.168 -14.009 -22.518  0.00  0.00    +0.001 C 
BRANCH  10  17
ATOM     15  N   UNL     1      32.676  -9.922 -22.485  0.00  0.00    -0.208 N 
ATOM     16  N   UNL     1      33.636  -9.521 -23.336  0.00  0.00    -0.176 NA
ATOM     17  C   UNL     1      33.456 -11.792 -23.285  0.00  0.00    +0.037 C 
ATOM     18  C   UNL     1      32.528 -11.276 -22.417  0.00  0.00    +0.086 C 
ATOM     19  C   UNL     1      34.109 -10.671 -23.821  0.00  0.00    +0.119 C 
ATOM     20  C   UNL     1      31.917  -8.940 -21.747  0.00  0.00    +0.140 C 
ENDBRANCH  10  17
ENDBRANCH   6   9
ENDBRANCH   1   6
BRANCH   4  21
ATOM     21  C   UNL     1      34.767 -20.681 -20.177  0.00  0.00    +0.006 C 
ATOM     22  C   UNL     1      33.592 -21.249 -19.783  0.00  0.00    +0.058 C 
BRANCH  22  25
ATOM     23  O   UNL     1      33.987 -23.506 -19.146  0.00  0.00    -0.270 OA
ATOM     24  N   UNL     1      33.011 -22.022 -17.610  0.00  0.00    -0.279 N 
ATOM     25  C   UNL     1      33.562 -22.401 -18.827  0.00  0.00    +0.250 C 
ATOM     26  H   UNL     1      32.721 -21.083 -17.535  0.00  0.00    +0.155 HD
BRANCH  24  27
ATOM     27  C   UNL     1      32.817 -22.834 -16.465  0.00  0.00    +0.064 C 
ATOM     28  C   UNL     1      31.536 -23.149 -16.039  0.00  0.00    +0.055 C 
ATOM     29  C   UNL     1      33.935 -23.298 -15.792  0.00  0.00    +0.016 C 
ATOM     30  C   UNL     1      31.370 -23.949 -14.909  0.00  0.00    +0.015 C 
ATOM     31  C   UNL     1      33.769 -24.098 -14.662  0.00  0.00    +0.001 C 
ATOM     32  C   UNL     1      32.487 -24.424 -14.220  0.00  0.00    +0.001 C 
BRANCH  28  33
ATOM     33  N   UNL     1      30.392 -22.681 -16.722  0.00  0.00    -0.356 N 
ATOM     34  H   UNL     1      30.432 -22.512 -17.691  0.00  0.00    +0.142 HD
ATOM     35  H   UNL     1      29.554 -22.525 -16.229  0.00  0.00    +0.142 HD
ENDBRANCH  28  33
ENDBRANCH  24  27
ENDBRANCH  22  25
ENDBRANCH   4  21
TORSDOF 7
ENDMDL
MODEL 8
REMARK VINA RESULT:     -10.2      2.236      3.393
REMARK  Name = 15985904
REMARK  7 active torsions:
REMARK  status: ('A' for Active; 'I' for Inactive)
REMARK    1  A    between atoms: N_1  and  S_6
REMARK    2  A    between atoms: C_4  and  C_21
REMARK    3  A    between atoms: S_6  and  C_9
REMARK    4  A    between atoms: C_10  and  C_17
REMARK    5  A    between atoms: C_22  and  C_25
REMARK    6  A    between atoms: N_24  and  C_27
REMARK    7  A    between atoms: C_28  and  N_33
REMARK                            x       y       z     vdW  Elec       q    Type
REMARK                         _______ _______ _______ _____ _____    ______ ____
ROOT
ATOM      1  N   UNL     1      34.076 -14.773 -23.468  0.00  0.00    -0.167 N 
ATOM      2  C   UNL     1      34.032 -13.580 -24.061  0.00  0.00    +0.089 C 
ATOM      3  C   UNL     1      33.814 -14.747 -22.162  0.00  0.00    +0.089 C 
ATOM      4  C   UNL     1      33.712 -12.685 -23.063  0.00  0.00    +0.018 C 
ATOM      5  C   UNL     1      33.574 -13.424 -21.861  0.00  0.00    +0.019 C 
ENDROOT
BRANCH   1   6
ATOM      6  S   UNL     1      34.444 -16.231 -24.321  0.00  0.00    +0.080 S 
ATOM      7  O   UNL     1      35.692 -15.909 -24.989  0.00  0.00    -0.149 OA
ATOM      8  O   UNL     1      33.239 -16.579 -25.050  0.00  0.00    -0.149 OA
BRANCH   6   9
ATOM      9  C   UNL     1      34.707 -17.442 -23.091  0.00  0.00    +0.126 C 
ATOM     10  C   UNL     1      35.129 -19.377 -21.126  0.00  0.00    +0.003 C 
ATOM     11  C   UNL     1      35.465 -17.135 -21.961  0.00  0.00    +0.020 C 
ATOM     12  C   UNL     1      34.160 -18.716 -23.238  0.00  0.00    +0.020 C 
ATOM     13  C   UNL     1      35.676 -18.102 -20.979  0.00  0.00    +0.001 C 
ATOM     14  C   UNL     1      34.371 -19.684 -22.256  0.00  0.00    +0.001 C 
BRANCH  10  17
ATOM     15  N   UNL     1      34.960 -21.907 -18.617  0.00  0.00    -0.208 N 
ATOM     16  N   UNL     1      36.300 -21.799 -18.616  0.00  0.00    -0.176 NA
ATOM     17  C   UNL     1      35.346 -20.373 -20.115  0.00  0.00    +0.037 C 
ATOM     18  C   UNL     1      34.340 -21.072 -19.500  0.00  0.00    +0.086 C 
ATOM     19  C   UNL     1      36.528 -20.858 -19.535  0.00  0.00    +0.119 C 
ATOM     20  C   UNL     1      34.316 -22.848 -17.732  0.00  0.00    +0.140 C 
ENDBRANCH  10  17
ENDBRANCH   6   9
ENDBRANCH   1   6
BRANCH   4  21
ATOM     21  C   UNL     1      33.558 -11.295 -23.240  0.00  0.00    +0.006 C 
ATOM     22  C   UNL     1      34.469 -10.395 -23.708  0.00  0.00    +0.058 C 
BRANCH  22  25
ATOM     23  O   UNL     1      34.761  -8.208 -24.596  0.00  0.00    -0.270 OA
ATOM     24  N   UNL     1      33.081  -8.596 -23.002  0.00  0.00    -0.279 N 
ATOM     25  C   UNL     1      34.138  -8.940 -23.835  0.00  0.00    +0.250 C 
ATOM     26  H   UNL     1      32.701  -9.323 -22.456  0.00  0.00    +0.155 HD
BRANCH  24  27
ATOM     27  C   UNL     1      32.490  -7.319 -22.848  0.00  0.00    +0.064 C 
ATOM     28  C   UNL     1      32.524  -6.674 -21.622  0.00  0.00    +0.055 C 
ATOM     29  C   UNL     1      31.882  -6.739 -23.950  0.00  0.00    +0.016 C 
ATOM     30  C   UNL     1      31.934  -5.417 -21.494  0.00  0.00    +0.015 C 
ATOM     31  C   UNL     1      31.293  -5.481 -23.823  0.00  0.00    +0.001 C 
ATOM     32  C   UNL     1      31.318  -4.820 -22.595  0.00  0.00    +0.001 C 
BRANCH  28  33
ATOM     33  N   UNL     1      33.143  -7.258 -20.494  0.00  0.00    -0.356 N 
ATOM     34  H   UNL     1      33.553  -6.685 -19.807  0.00  0.00    +0.142 HD
ATOM     35  H   UNL     1      33.164  -8.237 -20.395  0.00  0.00    +0.142 HD
ENDBRANCH  28  33
ENDBRANCH  24  27
ENDBRANCH  22  25
ENDBRANCH   4  21
TORSDOF 7
ENDMDL
MODEL 9
REMARK VINA RESULT:      -9.5      2.452     11.348
REMARK  Name = 15985904
REMARK  7 active torsions:
REMARK  status: ('A' for Active; 'I' for Inactive)
REMARK    1  A    between atoms: N_1  and  S_6
REMARK    2  A    between atoms: C_4  and  C_21
REMARK    3  A    between atoms: S_6  and  C_9
REMARK    4  A    between atoms: C_10  and  C_17
REMARK    5  A    between atoms: C_22  and  C_25
REMARK    6  A    between atoms: N_24  and  C_27
REMARK    7  A    between atoms: C_28  and  N_33
REMARK                            x       y       z     vdW  Elec       q    Type
REMARK                         _______ _______ _______ _____ _____    ______ ____
ROOT
ATOM      1  N   UNL     1      36.360 -19.541 -20.833  0.00  0.00    -0.167 N 
ATOM      2  C   UNL     1      35.430 -20.449 -20.536  0.00  0.00    +0.089 C 
ATOM      3  C   UNL     1      37.279 -19.367 -19.883  0.00  0.00    +0.089 C 
ATOM      4  C   UNL     1      35.760 -20.918 -19.283  0.00  0.00    +0.018 C 
ATOM      5  C   UNL     1      36.930 -20.233 -18.870  0.00  0.00    +0.019 C 
ENDROOT
BRANCH   1   6
ATOM      6  S   UNL     1      36.373 -18.664 -22.322  0.00  0.00    +0.080 S 
ATOM      7  O   UNL     1      35.643 -19.540 -23.221  0.00  0.00    -0.149 OA
ATOM      8  O   UNL     1      37.756 -18.292 -22.552  0.00  0.00    -0.149 OA
BRANCH   6   9
ATOM      9  C   UNL     1      35.459 -17.208 -22.018  0.00  0.00    +0.126 C 
ATOM     10  C   UNL     1      34.000 -14.880 -21.530  0.00  0.00    +0.003 C 
ATOM     11  C   UNL     1      35.031 -16.417 -23.084  0.00  0.00    +0.020 C 
ATOM     12  C   UNL     1      35.156 -16.835 -20.708  0.00  0.00    +0.020 C 
ATOM     13  C   UNL     1      34.302 -15.253 -22.840  0.00  0.00    +0.001 C 
ATOM     14  C   UNL     1      34.427 -15.672 -20.464  0.00  0.00    +0.001 C 
BRANCH  10  17
ATOM     15  N   UNL     1      32.271 -11.760 -21.591  0.00  0.00    -0.208 N 
ATOM     16  N   UNL     1      32.013 -12.037 -20.301  0.00  0.00    -0.176 NA
ATOM     17  C   UNL     1      33.249 -13.682 -21.280  0.00  0.00    +0.037 C 
ATOM     18  C   UNL     1      33.009 -12.717 -22.224  0.00  0.00    +0.086 C 
ATOM     19  C   UNL     1      32.615 -13.215 -20.119  0.00  0.00    +0.119 C 
ATOM     20  C   UNL     1      31.773 -10.538 -22.175  0.00  0.00    +0.140 C 
ENDBRANCH  10  17
ENDBRANCH   6   9
ENDBRANCH   1   6
BRANCH   4  21
ATOM     21  C   UNL     1      35.042 -21.901 -18.571  0.00  0.00    +0.006 C 
ATOM     22  C   UNL     1      33.693 -22.011 -18.407  0.00  0.00    +0.058 C 
BRANCH  22  25
ATOM     23  O   UNL     1      33.273 -24.301 -17.922  0.00  0.00    -0.270 OA
ATOM     24  N   UNL     1      32.345 -22.638 -16.550  0.00  0.00    -0.279 N 
ATOM     25  C   UNL     1      33.090 -23.129 -17.613  0.00  0.00    +0.250 C 
ATOM     26  H   UNL     1      32.310 -21.657 -16.457  0.00  0.00    +0.155 HD
BRANCH  24  27
ATOM     27  C   UNL     1      31.630 -23.387 -15.583  0.00  0.00    +0.064 C 
ATOM     28  C   UNL     1      30.248 -23.465 -15.640  0.00  0.00    +0.055 C 
ATOM     29  C   UNL     1      32.348 -24.032 -14.589  0.00  0.00    +0.016 C 
ATOM     30  C   UNL     1      29.566 -24.209 -14.677  0.00  0.00    +0.015 C 
ATOM     31  C   UNL     1      31.666 -24.775 -13.626  0.00  0.00    +0.001 C 
ATOM     32  C   UNL     1      30.275 -24.863 -13.670  0.00  0.00    +0.001 C 
BRANCH  28  33
ATOM     33  N   UNL     1      29.509 -22.812 -16.651  0.00  0.00    -0.356 N 
ATOM     34  H   UNL     1      29.913 -22.664 -17.537  0.00  0.00    +0.142 HD
ATOM     35  H   UNL     1      28.592 -22.506 -16.472  0.00  0.00    +0.142 HD
ENDBRANCH  28  33
ENDBRANCH  24  27
ENDBRANCH  22  25
ENDBRANCH   4  21
TORSDOF 7
ENDMDL
