MODEL 1
REMARK VINA RESULT:     -12.4      0.000      0.000
REMARK  Name = 657077
REMARK  7 active torsions:
REMARK  status: ('A' for Active; 'I' for Inactive)
REMARK    1  A    between atoms: C_3  and  C_23
REMARK    2  A    between atoms: C_8  and  C_10
REMARK    3  A    between atoms: C_12  and  C_15
REMARK    4  A    between atoms: C_15  and  C_16
REMARK    5  A    between atoms: C_16  and  C_17
REMARK    6  A    between atoms: C_26  and  C_29
REMARK    7  A    between atoms: C_29  and  N_30
REMARK                            x       y       z     vdW  Elec       q    Type
REMARK                         _______ _______ _______ _____ _____    ______ ____
ROOT
ATOM      1  O   UNL     1      33.362 -16.670 -25.045  0.00  0.00    -0.270 OA
ATOM      2  N   UNL     1      34.890 -17.287 -23.386  0.00  0.00    -0.276 N 
ATOM      3  C   UNL     1      35.521 -19.353 -21.460  0.00  0.00    +0.026 C 
ATOM      4  C   UNL     1      35.414 -17.870 -21.053  0.00  0.00    +0.026 C 
ATOM      5  C   UNL     1      34.657 -19.637 -22.703  0.00  0.00    +0.026 C 
ATOM      6  C   UNL     1      35.737 -16.955 -22.234  0.00  0.00    +0.094 C 
ATOM      7  C   UNL     1      34.995 -18.673 -23.841  0.00  0.00    +0.094 C 
ATOM      8  C   UNL     1      34.052 -16.398 -24.064  0.00  0.00    +0.251 C 
ENDROOT
BRANCH   8  10
ATOM      9  N   UNL     1      33.980 -13.497 -21.698  0.00  0.00    -0.242 NA
ATOM     10  C   UNL     1      33.963 -15.019 -23.570  0.00  0.00    +0.072 C 
ATOM     11  C   UNL     1      33.784 -13.960 -24.448  0.00  0.00    +0.003 C 
ATOM     12  C   UNL     1      33.703 -12.663 -23.951  0.00  0.00    -0.003 C 
ATOM     13  C   UNL     1      34.054 -14.743 -22.220  0.00  0.00    +0.103 C 
ATOM     14  C   UNL     1      33.806 -12.487 -22.581  0.00  0.00    +0.095 C 
BRANCH  12  15
ATOM     15  C   UNL     1      33.512 -11.503 -24.862  0.00  0.00    +0.033 C 
BRANCH  15  16
ATOM     16  C   UNL     1      34.588 -10.406 -24.719  0.00  0.00    +0.031 C 
BRANCH  16  17
ATOM     17  C   UNL     1      34.123  -9.223 -23.903  0.00  0.00    -0.022 C 
ATOM     18  C   UNL     1      32.792  -9.138 -23.527  0.00  0.00    -0.004 C 
ATOM     19  C   UNL     1      35.037  -8.244 -23.547  0.00  0.00    -0.004 C 
ATOM     20  C   UNL     1      32.363  -8.045 -22.774  0.00  0.00    -0.000 C 
ATOM     21  C   UNL     1      34.607  -7.151 -22.793  0.00  0.00    -0.000 C 
ATOM     22  C   UNL     1      33.270  -7.052 -22.407  0.00  0.00    -0.000 C 
ENDBRANCH  16  17
ENDBRANCH  15  16
ENDBRANCH  12  15
ENDBRANCH   8  10
BRANCH   3  23
ATOM     23  C   UNL     1      35.188 -20.284 -20.310  0.00  0.00    -0.023 C 
ATOM     24  C   UNL     1      36.190 -20.686 -19.429  0.00  0.00    -0.011 C 
ATOM     25  C   UNL     1      33.880 -20.732 -20.136  0.00  0.00    -0.004 C 
ATOM     26  C   UNL     1      35.883 -21.541 -18.371  0.00  0.00    -0.045 C 
ATOM     27  C   UNL     1      33.573 -21.588 -19.078  0.00  0.00    -0.001 C 
ATOM     28  C   UNL     1      34.575 -21.992 -18.195  0.00  0.00    -0.006 C 
BRANCH  26  29
ATOM     29  C   UNL     1      36.954 -21.973 -17.426  0.00  0.00    -0.059 C 
BRANCH  29  30
ATOM     30  N   UNL     1      37.466 -20.863 -16.620  0.00  0.00    +0.383 N 
ATOM     31  H   UNL     1      37.729 -20.092 -17.233  0.00  0.00    -0.089 HD
ATOM     32  H   UNL     1      38.283 -21.174 -16.094  0.00  0.00    -0.089 HD
ATOM     33  H   UNL     1      36.742 -20.551 -15.973  0.00  0.00    -0.089 HD
ENDBRANCH  29  30
ENDBRANCH  26  29
ENDBRANCH   3  23
TORSDOF 7
ENDMDL
MODEL 2
REMARK VINA RESULT:     -11.7      1.738     10.498
REMARK  Name = 657077
REMARK  7 active torsions:
REMARK  status: ('A' for Active; 'I' for Inactive)
REMARK    1  A    between atoms: C_3  and  C_23
REMARK    2  A    between atoms: C_8  and  C_10
REMARK    3  A    between atoms: C_12  and  C_15
REMARK    4  A    between atoms: C_15  and  C_16
REMARK    5  A    between atoms: C_16  and  C_17
REMARK    6  A    between atoms: C_26  and  C_29
REMARK    7  A    between atoms: C_29  and  N_30
REMARK                            x       y       z     vdW  Elec       q    Type
REMARK                         _______ _______ _______ _____ _____    ______ ____
ROOT
ATOM      1  O   UNL     1      34.681 -15.433 -25.143  0.00  0.00    -0.270 OA
ATOM      2  N   UNL     1      33.481 -13.883 -23.868  0.00  0.00    -0.276 N 
ATOM      3  C   UNL     1      33.016 -11.053 -23.485  0.00  0.00    +0.026 C 
ATOM      4  C   UNL     1      33.403 -11.977 -22.313  0.00  0.00    +0.026 C 
ATOM      5  C   UNL     1      33.546 -11.617 -24.817  0.00  0.00    +0.026 C 
ATOM      6  C   UNL     1      32.954 -13.413 -22.580  0.00  0.00    +0.094 C 
ATOM      7  C   UNL     1      33.099 -13.065 -25.019  0.00  0.00    +0.094 C 
ATOM      8  C   UNL     1      34.261 -15.026 -24.060  0.00  0.00    +0.251 C 
ENDROOT
BRANCH   8  10
ATOM      9  N   UNL     1      35.007 -15.907 -20.499  0.00  0.00    -0.242 NA
ATOM     10  C   UNL     1      34.636 -15.815 -22.881  0.00  0.00    +0.072 C 
ATOM     11  C   UNL     1      34.963 -17.158 -22.999  0.00  0.00    +0.003 C 
ATOM     12  C   UNL     1      35.314 -17.880 -21.863  0.00  0.00    -0.003 C 
ATOM     13  C   UNL     1      34.671 -15.238 -21.626  0.00  0.00    +0.103 C 
ATOM     14  C   UNL     1      35.320 -17.214 -20.648  0.00  0.00    +0.095 C 
BRANCH  12  15
ATOM     15  C   UNL     1      35.670 -19.321 -21.950  0.00  0.00    +0.033 C 
BRANCH  15  16
ATOM     16  C   UNL     1      36.205 -19.920 -20.632  0.00  0.00    +0.031 C 
BRANCH  16  17
ATOM     17  C   UNL     1      35.162 -20.702 -19.870  0.00  0.00    -0.022 C 
ATOM     18  C   UNL     1      35.567 -21.627 -18.920  0.00  0.00    -0.004 C 
ATOM     19  C   UNL     1      33.821 -20.481 -20.135  0.00  0.00    -0.004 C 
ATOM     20  C   UNL     1      34.603 -22.350 -18.217  0.00  0.00    -0.000 C 
ATOM     21  C   UNL     1      32.857 -21.204 -19.430  0.00  0.00    -0.000 C 
ATOM     22  C   UNL     1      33.249 -22.139 -18.472  0.00  0.00    -0.000 C 
ENDBRANCH  16  17
ENDBRANCH  15  16
ENDBRANCH  12  15
ENDBRANCH   8  10
BRANCH   3  23
ATOM     23  C   UNL     1      33.466  -9.623 -23.253  0.00  0.00    -0.023 C 
ATOM     24  C   UNL     1      32.905  -8.877 -22.218  0.00  0.00    -0.011 C 
ATOM     25  C   UNL     1      34.440  -9.059 -24.075  0.00  0.00    -0.004 C 
ATOM     26  C   UNL     1      33.319  -7.563 -22.004  0.00  0.00    -0.045 C 
ATOM     27  C   UNL     1      34.854  -7.744 -23.861  0.00  0.00    -0.001 C 
ATOM     28  C   UNL     1      34.294  -6.996 -22.826  0.00  0.00    -0.006 C 
BRANCH  26  29
ATOM     29  C   UNL     1      32.721  -6.762 -20.896  0.00  0.00    -0.059 C 
BRANCH  29  30
ATOM     30  N   UNL     1      33.115  -7.258 -19.576  0.00  0.00    +0.383 N 
ATOM     31  H   UNL     1      32.341  -7.781 -19.165  0.00  0.00    -0.089 HD
ATOM     32  H   UNL     1      33.351  -6.470 -18.973  0.00  0.00    -0.089 HD
ATOM     33  H   UNL     1      33.926  -7.870 -19.671  0.00  0.00    -0.089 HD
ENDBRANCH  29  30
ENDBRANCH  26  29
ENDBRANCH   3  23
TORSDOF 7
ENDMDL
MODEL 3
REMARK VINA RESULT:     -11.0      4.643      7.924
REMARK  Name = 657077
REMARK  7 active torsions:
REMARK  status: ('A' for Active; 'I' for Inactive)
REMARK    1  A    between atoms: C_3  and  C_23
REMARK    2  A    between atoms: C_8  and  C_10
REMARK    3  A    between atoms: C_12  and  C_15
REMARK    4  A    between atoms: C_15  and  C_16
REMARK    5  A    between atoms: C_16  and  C_17
REMARK    6  A    between atoms: C_26  and  C_29
REMARK    7  A    between atoms: C_29  and  N_30
REMARK                            x       y       z     vdW  Elec       q    Type
REMARK                         _______ _______ _______ _____ _____    ______ ____
ROOT
ATOM      1  O   UNL     1      32.299  -7.602 -19.176  0.00  0.00    -0.270 OA
ATOM      2  N   UNL     1      31.705  -9.312 -20.656  0.00  0.00    -0.276 N 
ATOM      3  C   UNL     1      32.144 -12.104 -21.279  0.00  0.00    +0.026 C 
ATOM      4  C   UNL     1      32.303 -11.001 -22.344  0.00  0.00    +0.026 C 
ATOM      5  C   UNL     1      32.397 -11.535 -19.869  0.00  0.00    +0.026 C 
ATOM      6  C   UNL     1      31.425  -9.794 -22.014  0.00  0.00    +0.094 C 
ATOM      7  C   UNL     1      31.521 -10.311 -19.604  0.00  0.00    +0.094 C 
ATOM      8  C   UNL     1      32.089  -8.013 -20.316  0.00  0.00    +0.251 C 
ENDROOT
BRANCH   8  10
ATOM      9  N   UNL     1      31.396  -5.208 -22.698  0.00  0.00    -0.242 NA
ATOM     10  C   UNL     1      32.278  -7.041 -21.400  0.00  0.00    +0.072 C 
ATOM     11  C   UNL     1      33.454  -7.015 -22.135  0.00  0.00    +0.003 C 
ATOM     12  C   UNL     1      33.604  -6.083 -23.156  0.00  0.00    -0.003 C 
ATOM     13  C   UNL     1      31.288  -6.130 -21.713  0.00  0.00    +0.103 C 
ATOM     14  C   UNL     1      32.555  -5.209 -23.395  0.00  0.00    +0.095 C 
BRANCH  12  15
ATOM     15  C   UNL     1      34.850  -6.024 -23.965  0.00  0.00    +0.033 C 
BRANCH  15  16
ATOM     16  C   UNL     1      34.612  -5.876 -25.482  0.00  0.00    +0.031 C 
BRANCH  16  17
ATOM     17  C   UNL     1      35.124  -4.568 -26.038  0.00  0.00    -0.022 C 
ATOM     18  C   UNL     1      36.416  -4.500 -26.534  0.00  0.00    -0.004 C 
ATOM     19  C   UNL     1      34.292  -3.460 -26.041  0.00  0.00    -0.004 C 
ATOM     20  C   UNL     1      36.889  -3.292 -27.047  0.00  0.00    -0.000 C 
ATOM     21  C   UNL     1      34.764  -2.252 -26.556  0.00  0.00    -0.000 C 
ATOM     22  C   UNL     1      36.064  -2.169 -27.058  0.00  0.00    -0.000 C 
ENDBRANCH  16  17
ENDBRANCH  15  16
ENDBRANCH  12  15
ENDBRANCH   8  10
BRANCH   3  23
ATOM     23  C   UNL     1      33.020 -13.308 -21.572  0.00  0.00    -0.023 C 
ATOM     24  C   UNL     1      33.130 -13.784 -22.877  0.00  0.00    -0.011 C 
ATOM     25  C   UNL     1      33.712 -13.932 -20.537  0.00  0.00    -0.004 C 
ATOM     26  C   UNL     1      33.935 -14.889 -23.148  0.00  0.00    -0.045 C 
ATOM     27  C   UNL     1      34.517 -15.039 -20.807  0.00  0.00    -0.001 C 
ATOM     28  C   UNL     1      34.629 -15.517 -22.113  0.00  0.00    -0.006 C 
BRANCH  26  29
ATOM     29  C   UNL     1      34.057 -15.402 -24.544  0.00  0.00    -0.059 C 
BRANCH  29  30
ATOM     30  N   UNL     1      34.650 -16.740 -24.596  0.00  0.00    +0.383 N 
ATOM     31  H   UNL     1      34.310 -17.229 -25.424  0.00  0.00    -0.089 HD
ATOM     32  H   UNL     1      34.387 -17.261 -23.761  0.00  0.00    -0.089 HD
ATOM     33  H   UNL     1      35.666 -16.659 -24.642  0.00  0.00    -0.089 HD
ENDBRANCH  29  30
ENDBRANCH  26  29
ENDBRANCH   3  23
TORSDOF 7
ENDMDL
MODEL 4
REMARK VINA RESULT:     -10.9      3.652     12.393
REMARK  Name = 657077
REMARK  7 active torsions:
REMARK  status: ('A' for Active; 'I' for Inactive)
REMARK    1  A    between atoms: C_3  and  C_23
REMARK    2  A    between atoms: C_8  and  C_10
REMARK    3  A    between atoms: C_12  and  C_15
REMARK    4  A    between atoms: C_15  and  C_16
REMARK    5  A    between atoms: C_16  and  C_17
REMARK    6  A    between atoms: C_26  and  C_29
REMARK    7  A    between atoms: C_29  and  N_30
REMARK                            x       y       z     vdW  Elec       q    Type
REMARK                         _______ _______ _______ _____ _____    ______ ____
ROOT
ATOM      1  O   UNL     1      31.553 -10.028 -21.900  0.00  0.00    -0.270 OA
ATOM      2  N   UNL     1      33.396  -8.783 -22.621  0.00  0.00    -0.276 N 
ATOM      3  C   UNL     1      34.194  -6.208 -23.673  0.00  0.00    +0.026 C 
ATOM      4  C   UNL     1      34.595  -7.526 -24.364  0.00  0.00    +0.026 C 
ATOM      5  C   UNL     1      32.890  -6.391 -22.873  0.00  0.00    +0.026 C 
ATOM      6  C   UNL     1      34.662  -8.672 -23.356  0.00  0.00    +0.094 C 
ATOM      7  C   UNL     1      32.998  -7.570 -21.906  0.00  0.00    +0.094 C 
ATOM      8  C   UNL     1      32.601  -9.928 -22.537  0.00  0.00    +0.251 C 
ENDROOT
BRANCH   8  10
ATOM      9  N   UNL     1      33.445 -12.185 -25.402  0.00  0.00    -0.242 NA
ATOM     10  C   UNL     1      33.025 -11.121 -23.278  0.00  0.00    +0.072 C 
ATOM     11  C   UNL     1      33.398 -12.278 -22.609  0.00  0.00    +0.003 C 
ATOM     12  C   UNL     1      33.796 -13.394 -23.338  0.00  0.00    -0.003 C 
ATOM     13  C   UNL     1      33.064 -11.121 -24.659  0.00  0.00    +0.103 C 
ATOM     14  C   UNL     1      33.803 -13.296 -24.720  0.00  0.00    +0.095 C 
BRANCH  12  15
ATOM     15  C   UNL     1      34.204 -14.651 -22.656  0.00  0.00    +0.033 C 
BRANCH  15  16
ATOM     16  C   UNL     1      34.908 -15.669 -23.577  0.00  0.00    +0.031 C 
BRANCH  16  17
ATOM     17  C   UNL     1      34.981 -17.055 -22.982  0.00  0.00    -0.022 C 
ATOM     18  C   UNL     1      35.499 -17.220 -21.707  0.00  0.00    -0.004 C 
ATOM     19  C   UNL     1      34.530 -18.136 -23.721  0.00  0.00    -0.004 C 
ATOM     20  C   UNL     1      35.568 -18.500 -21.157  0.00  0.00    -0.000 C 
ATOM     21  C   UNL     1      34.597 -19.416 -23.171  0.00  0.00    -0.000 C 
ATOM     22  C   UNL     1      35.117 -19.598 -21.889  0.00  0.00    -0.000 C 
ENDBRANCH  16  17
ENDBRANCH  15  16
ENDBRANCH  12  15
ENDBRANCH   8  10
BRANCH   3  23
ATOM     23  C   UNL     1      34.102  -5.055 -24.655  0.00  0.00    -0.023 C 
ATOM     24  C   UNL     1      33.005  -4.197 -24.618  0.00  0.00    -0.011 C 
ATOM     25  C   UNL     1      35.115  -4.858 -25.591  0.00  0.00    -0.004 C 
ATOM     26  C   UNL     1      32.921  -3.137 -25.520  0.00  0.00    -0.045 C 
ATOM     27  C   UNL     1      35.031  -3.798 -26.494  0.00  0.00    -0.001 C 
ATOM     28  C   UNL     1      33.934  -2.937 -26.458  0.00  0.00    -0.006 C 
BRANCH  26  29
ATOM     29  C   UNL     1      31.748  -2.215 -25.482  0.00  0.00    -0.059 C 
BRANCH  29  30
ATOM     30  N   UNL     1      30.682  -2.705 -24.605  0.00  0.00    +0.383 N 
ATOM     31  H   UNL     1      31.068  -2.910 -23.683  0.00  0.00    -0.089 HD
ATOM     32  H   UNL     1      30.279  -3.553 -25.002  0.00  0.00    -0.089 HD
ATOM     33  H   UNL     1      29.959  -1.991 -24.519  0.00  0.00    -0.089 HD
ENDBRANCH  29  30
ENDBRANCH  26  29
ENDBRANCH   3  23
TORSDOF 7
ENDMDL
MODEL 5
REMARK VINA RESULT:     -10.9      2.521     10.875
REMARK  Name = 657077
REMARK  7 active torsions:
REMARK  status: ('A' for Active; 'I' for Inactive)
REMARK    1  A    between atoms: C_3  and  C_23
REMARK    2  A    between atoms: C_8  and  C_10
REMARK    3  A    between atoms: C_12  and  C_15
REMARK    4  A    between atoms: C_15  and  C_16
REMARK    5  A    between atoms: C_16  and  C_17
REMARK    6  A    between atoms: C_26  and  C_29
REMARK    7  A    between atoms: C_29  and  N_30
REMARK                            x       y       z     vdW  Elec       q    Type
REMARK                         _______ _______ _______ _____ _____    ______ ____
ROOT
ATOM      1  O   UNL     1      34.589 -13.443 -24.367  0.00  0.00    -0.270 OA
ATOM      2  N   UNL     1      32.937 -12.560 -22.968  0.00  0.00    -0.276 N 
ATOM      3  C   UNL     1      31.857 -10.088 -21.921  0.00  0.00    +0.026 C 
ATOM      4  C   UNL     1      32.260 -11.253 -20.996  0.00  0.00    +0.026 C 
ATOM      5  C   UNL     1      32.667 -10.131 -23.230  0.00  0.00    +0.026 C 
ATOM      6  C   UNL     1      32.155 -12.592 -21.726  0.00  0.00    +0.094 C 
ATOM      7  C   UNL     1      32.556 -11.500 -23.902  0.00  0.00    +0.094 C 
ATOM      8  C   UNL     1      33.952 -13.454 -23.315  0.00  0.00    +0.251 C 
ENDROOT
BRANCH   8  10
ATOM      9  N   UNL     1      34.637 -15.149 -20.048  0.00  0.00    -0.242 NA
ATOM     10  C   UNL     1      34.316 -14.497 -22.348  0.00  0.00    +0.072 C 
ATOM     11  C   UNL     1      34.670 -15.769 -22.773  0.00  0.00    +0.003 C 
ATOM     12  C   UNL     1      35.010 -16.736 -21.834  0.00  0.00    -0.003 C 
ATOM     13  C   UNL     1      34.313 -14.235 -20.991  0.00  0.00    +0.103 C 
ATOM     14  C   UNL     1      34.977 -16.379 -20.495  0.00  0.00    +0.095 C 
BRANCH  12  15
ATOM     15  C   UNL     1      35.394 -18.111 -22.251  0.00  0.00    +0.033 C 
BRANCH  15  16
ATOM     16  C   UNL     1      36.250 -18.869 -21.215  0.00  0.00    +0.031 C 
BRANCH  16  17
ATOM     17  C   UNL     1      35.466 -19.904 -20.443  0.00  0.00    -0.022 C 
ATOM     18  C   UNL     1      36.140 -20.786 -19.613  0.00  0.00    -0.004 C 
ATOM     19  C   UNL     1      34.088 -19.952 -20.579  0.00  0.00    -0.004 C 
ATOM     20  C   UNL     1      35.417 -21.741 -18.900  0.00  0.00    -0.000 C 
ATOM     21  C   UNL     1      33.365 -20.908 -19.864  0.00  0.00    -0.000 C 
ATOM     22  C   UNL     1      34.029 -21.803 -19.025  0.00  0.00    -0.000 C 
ENDBRANCH  16  17
ENDBRANCH  15  16
ENDBRANCH  12  15
ENDBRANCH   8  10
BRANCH   3  23
ATOM     23  C   UNL     1      31.969  -8.745 -21.225  0.00  0.00    -0.023 C 
ATOM     24  C   UNL     1      31.832  -7.569 -21.960  0.00  0.00    -0.011 C 
ATOM     25  C   UNL     1      32.208  -8.691 -19.853  0.00  0.00    -0.004 C 
ATOM     26  C   UNL     1      31.934  -6.334 -21.321  0.00  0.00    -0.045 C 
ATOM     27  C   UNL     1      32.311  -7.455 -19.214  0.00  0.00    -0.001 C 
ATOM     28  C   UNL     1      32.174  -6.277 -19.947  0.00  0.00    -0.006 C 
BRANCH  26  29
ATOM     29  C   UNL     1      31.786  -5.072 -22.104  0.00  0.00    -0.059 C 
BRANCH  29  30
ATOM     30  N   UNL     1      30.730  -4.208 -21.573  0.00  0.00    +0.383 N 
ATOM     31  H   UNL     1      30.367  -3.617 -22.321  0.00  0.00    -0.089 HD
ATOM     32  H   UNL     1      31.111  -3.623 -20.831  0.00  0.00    -0.089 HD
ATOM     33  H   UNL     1      29.976  -4.785 -21.200  0.00  0.00    -0.089 HD
ENDBRANCH  29  30
ENDBRANCH  26  29
ENDBRANCH   3  23
TORSDOF 7
ENDMDL
MODEL 6
REMARK VINA RESULT:     -10.7      3.693     12.265
REMARK  Name = 657077
REMARK  7 active torsions:
REMARK  status: ('A' for Active; 'I' for Inactive)
REMARK    1  A    between atoms: C_3  and  C_23
REMARK    2  A    between atoms: C_8  and  C_10
REMARK    3  A    between atoms: C_12  and  C_15
REMARK    4  A    between atoms: C_15  and  C_16
REMARK    5  A    between atoms: C_16  and  C_17
REMARK    6  A    between atoms: C_26  and  C_29
REMARK    7  A    between atoms: C_29  and  N_30
REMARK                            x       y       z     vdW  Elec       q    Type
REMARK                         _______ _______ _______ _____ _____    ______ ____
ROOT
ATOM      1  O   UNL     1      31.512 -10.025 -21.936  0.00  0.00    -0.270 OA
ATOM      2  N   UNL     1      33.393  -8.815 -22.621  0.00  0.00    -0.276 N 
ATOM      3  C   UNL     1      34.256  -6.266 -23.685  0.00  0.00    +0.026 C 
ATOM      4  C   UNL     1      34.658  -7.599 -24.346  0.00  0.00    +0.026 C 
ATOM      5  C   UNL     1      32.926  -6.421 -22.921  0.00  0.00    +0.026 C 
ATOM      6  C   UNL     1      34.681  -8.732 -23.320  0.00  0.00    +0.094 C 
ATOM      7  C   UNL     1      32.990  -7.587 -21.935  0.00  0.00    +0.094 C 
ATOM      8  C   UNL     1      32.579  -9.948 -22.544  0.00  0.00    +0.251 C 
ENDROOT
BRANCH   8  10
ATOM      9  N   UNL     1      33.458 -12.262 -25.353  0.00  0.00    -0.242 NA
ATOM     10  C   UNL     1      33.008 -11.157 -23.255  0.00  0.00    +0.072 C 
ATOM     11  C   UNL     1      33.361 -12.304 -22.559  0.00  0.00    +0.003 C 
ATOM     12  C   UNL     1      33.764 -13.436 -23.260  0.00  0.00    -0.003 C 
ATOM     13  C   UNL     1      33.071 -11.183 -24.635  0.00  0.00    +0.103 C 
ATOM     14  C   UNL     1      33.796 -13.363 -24.644  0.00  0.00    +0.095 C 
BRANCH  12  15
ATOM     15  C   UNL     1      34.151 -14.683 -22.548  0.00  0.00    +0.033 C 
BRANCH  15  16
ATOM     16  C   UNL     1      34.952 -15.680 -23.412  0.00  0.00    +0.031 C 
BRANCH  16  17
ATOM     17  C   UNL     1      35.005 -17.068 -22.819  0.00  0.00    -0.022 C 
ATOM     18  C   UNL     1      34.574 -18.147 -23.574  0.00  0.00    -0.004 C 
ATOM     19  C   UNL     1      35.485 -17.237 -21.530  0.00  0.00    -0.004 C 
ATOM     20  C   UNL     1      34.623 -19.428 -23.026  0.00  0.00    -0.000 C 
ATOM     21  C   UNL     1      35.535 -18.519 -20.982  0.00  0.00    -0.000 C 
ATOM     22  C   UNL     1      35.103 -19.615 -21.731  0.00  0.00    -0.000 C 
ENDBRANCH  16  17
ENDBRANCH  15  16
ENDBRANCH  12  15
ENDBRANCH   8  10
BRANCH   3  23
ATOM     23  C   UNL     1      34.208  -5.127 -24.686  0.00  0.00    -0.023 C 
ATOM     24  C   UNL     1      35.161  -5.053 -25.699  0.00  0.00    -0.011 C 
ATOM     25  C   UNL     1      33.209  -4.159 -24.589  0.00  0.00    -0.004 C 
ATOM     26  C   UNL     1      35.117  -4.007 -26.620  0.00  0.00    -0.045 C 
ATOM     27  C   UNL     1      33.166  -3.112 -25.510  0.00  0.00    -0.001 C 
ATOM     28  C   UNL     1      34.119  -3.036 -26.526  0.00  0.00    -0.006 C 
BRANCH  26  29
ATOM     29  C   UNL     1      36.135  -3.924 -27.707  0.00  0.00    -0.059 C 
BRANCH  29  30
ATOM     30  N   UNL     1      35.539  -4.043 -29.039  0.00  0.00    +0.383 N 
ATOM     31  H   UNL     1      35.353  -3.112 -29.412  0.00  0.00    -0.089 HD
ATOM     32  H   UNL     1      34.665  -4.565 -28.975  0.00  0.00    -0.089 HD
ATOM     33  H   UNL     1      36.184  -4.534 -29.658  0.00  0.00    -0.089 HD
ENDBRANCH  29  30
ENDBRANCH  26  29
ENDBRANCH   3  23
TORSDOF 7
ENDMDL
MODEL 7
REMARK VINA RESULT:     -10.6      3.920     12.000
REMARK  Name = 657077
REMARK  7 active torsions:
REMARK  status: ('A' for Active; 'I' for Inactive)
REMARK    1  A    between atoms: C_3  and  C_23
REMARK    2  A    between atoms: C_8  and  C_10
REMARK    3  A    between atoms: C_12  and  C_15
REMARK    4  A    between atoms: C_15  and  C_16
REMARK    5  A    between atoms: C_16  and  C_17
REMARK    6  A    between atoms: C_26  and  C_29
REMARK    7  A    between atoms: C_29  and  N_30
REMARK                            x       y       z     vdW  Elec       q    Type
REMARK                         _______ _______ _______ _____ _____    ______ ____
ROOT
ATOM      1  O   UNL     1      37.184 -21.198 -17.586  0.00  0.00    -0.270 OA
ATOM      2  N   UNL     1      36.153 -20.867 -19.658  0.00  0.00    -0.276 N 
ATOM      3  C   UNL     1      35.673 -18.902 -21.728  0.00  0.00    +0.026 C 
ATOM      4  C   UNL     1      34.523 -19.705 -21.090  0.00  0.00    +0.026 C 
ATOM      5  C   UNL     1      36.856 -18.779 -20.748  0.00  0.00    +0.026 C 
ATOM      6  C   UNL     1      35.020 -21.055 -20.573  0.00  0.00    +0.094 C 
ATOM      7  C   UNL     1      37.292 -20.151 -20.235  0.00  0.00    +0.094 C 
ATOM      8  C   UNL     1      36.224 -21.333 -18.344  0.00  0.00    +0.251 C 
ENDROOT
BRANCH   8  10
ATOM      9  N   UNL     1      32.744 -22.678 -18.028  0.00  0.00    -0.242 NA
ATOM     10  C   UNL     1      35.058 -22.035 -17.795  0.00  0.00    +0.072 C 
ATOM     11  C   UNL     1      35.135 -22.698 -16.579  0.00  0.00    +0.003 C 
ATOM     12  C   UNL     1      34.013 -23.355 -16.083  0.00  0.00    -0.003 C 
ATOM     13  C   UNL     1      33.856 -22.051 -18.476  0.00  0.00    +0.103 C 
ATOM     14  C   UNL     1      32.853 -23.315 -16.840  0.00  0.00    +0.095 C 
BRANCH  12  15
ATOM     15  C   UNL     1      34.058 -24.077 -14.785  0.00  0.00    +0.033 C 
BRANCH  15  16
ATOM     16  C   UNL     1      35.220 -25.085 -14.662  0.00  0.00    +0.031 C 
BRANCH  16  17
ATOM     17  C   UNL     1      36.141 -24.790 -13.502  0.00  0.00    -0.022 C 
ATOM     18  C   UNL     1      37.045 -25.756 -13.090  0.00  0.00    -0.004 C 
ATOM     19  C   UNL     1      36.064 -23.560 -12.871  0.00  0.00    -0.004 C 
ATOM     20  C   UNL     1      37.895 -25.484 -12.018  0.00  0.00    -0.000 C 
ATOM     21  C   UNL     1      36.915 -23.287 -11.799  0.00  0.00    -0.000 C 
ATOM     22  C   UNL     1      37.830 -24.250 -11.372  0.00  0.00    -0.000 C 
ENDBRANCH  16  17
ENDBRANCH  15  16
ENDBRANCH  12  15
ENDBRANCH   8  10
BRANCH   3  23
ATOM     23  C   UNL     1      35.210 -17.549 -22.233  0.00  0.00    -0.023 C 
ATOM     24  C   UNL     1      35.004 -16.505 -21.334  0.00  0.00    -0.011 C 
ATOM     25  C   UNL     1      34.993 -17.353 -23.596  0.00  0.00    -0.004 C 
ATOM     26  C   UNL     1      34.580 -15.260 -21.798  0.00  0.00    -0.045 C 
ATOM     27  C   UNL     1      34.567 -16.109 -24.061  0.00  0.00    -0.001 C 
ATOM     28  C   UNL     1      34.361 -15.062 -23.162  0.00  0.00    -0.006 C 
BRANCH  26  29
ATOM     29  C   UNL     1      34.359 -14.140 -20.838  0.00  0.00    -0.059 C 
BRANCH  29  30
ATOM     30  N   UNL     1      32.946 -13.772 -20.726  0.00  0.00    +0.383 N 
ATOM     31  H   UNL     1      32.423 -14.197 -21.492  0.00  0.00    -0.089 HD
ATOM     32  H   UNL     1      32.855 -12.757 -20.774  0.00  0.00    -0.089 HD
ATOM     33  H   UNL     1      32.578 -14.106 -19.836  0.00  0.00    -0.089 HD
ENDBRANCH  29  30
ENDBRANCH  26  29
ENDBRANCH   3  23
TORSDOF 7
ENDMDL
MODEL 8
REMARK VINA RESULT:     -10.6      3.675     11.452
REMARK  Name = 657077
REMARK  7 active torsions:
REMARK  status: ('A' for Active; 'I' for Inactive)
REMARK    1  A    between atoms: C_3  and  C_23
REMARK    2  A    between atoms: C_8  and  C_10
REMARK    3  A    between atoms: C_12  and  C_15
REMARK    4  A    between atoms: C_15  and  C_16
REMARK    5  A    between atoms: C_16  and  C_17
REMARK    6  A    between atoms: C_26  and  C_29
REMARK    7  A    between atoms: C_29  and  N_30
REMARK                            x       y       z     vdW  Elec       q    Type
REMARK                         _______ _______ _______ _____ _____    ______ ____
ROOT
ATOM      1  O   UNL     1      37.159 -20.680 -17.998  0.00  0.00    -0.270 OA
ATOM      2  N   UNL     1      36.211 -20.456 -20.123  0.00  0.00    -0.276 N 
ATOM      3  C   UNL     1      35.640 -18.549 -22.224  0.00  0.00    +0.026 C 
ATOM      4  C   UNL     1      34.547 -19.468 -21.643  0.00  0.00    +0.026 C 
ATOM      5  C   UNL     1      36.750 -18.305 -21.183  0.00  0.00    +0.026 C 
ATOM      6  C   UNL     1      35.154 -20.759 -21.096  0.00  0.00    +0.094 C 
ATOM      7  C   UNL     1      37.298 -19.625 -20.642  0.00  0.00    +0.094 C 
ATOM      8  C   UNL     1      36.260 -20.913 -18.804  0.00  0.00    +0.251 C 
ENDROOT
BRANCH   8  10
ATOM      9  N   UNL     1      32.932 -22.624 -18.672  0.00  0.00    -0.242 NA
ATOM     10  C   UNL     1      35.146 -21.732 -18.314  0.00  0.00    +0.072 C 
ATOM     11  C   UNL     1      35.221 -22.374 -17.087  0.00  0.00    +0.003 C 
ATOM     12  C   UNL     1      34.149 -23.144 -16.648  0.00  0.00    -0.003 C 
ATOM     13  C   UNL     1      33.995 -21.884 -19.064  0.00  0.00    +0.103 C 
ATOM     14  C   UNL     1      33.038 -23.236 -17.472  0.00  0.00    +0.095 C 
BRANCH  12  15
ATOM     15  C   UNL     1      34.194 -23.848 -15.339  0.00  0.00    +0.033 C 
BRANCH  15  16
ATOM     16  C   UNL     1      33.291 -23.222 -14.255  0.00  0.00    +0.031 C 
BRANCH  16  17
ATOM     17  C   UNL     1      31.870 -23.734 -14.299  0.00  0.00    -0.022 C 
ATOM     18  C   UNL     1      30.860 -22.897 -14.745  0.00  0.00    -0.004 C 
ATOM     19  C   UNL     1      31.604 -25.031 -13.891  0.00  0.00    -0.004 C 
ATOM     20  C   UNL     1      29.549 -23.369 -14.785  0.00  0.00    -0.000 C 
ATOM     21  C   UNL     1      30.292 -25.504 -13.933  0.00  0.00    -0.000 C 
ATOM     22  C   UNL     1      29.264 -24.672 -14.379  0.00  0.00    -0.000 C 
ENDBRANCH  16  17
ENDBRANCH  15  16
ENDBRANCH  12  15
ENDBRANCH   8  10
BRANCH   3  23
ATOM     23  C   UNL     1      35.067 -17.251 -22.759  0.00  0.00    -0.023 C 
ATOM     24  C   UNL     1      34.933 -16.150 -21.915  0.00  0.00    -0.011 C 
ATOM     25  C   UNL     1      34.676 -17.162 -24.094  0.00  0.00    -0.004 C 
ATOM     26  C   UNL     1      34.407 -14.956 -22.407  0.00  0.00    -0.045 C 
ATOM     27  C   UNL     1      34.150 -15.967 -24.586  0.00  0.00    -0.001 C 
ATOM     28  C   UNL     1      34.015 -14.865 -23.743  0.00  0.00    -0.006 C 
BRANCH  26  29
ATOM     29  C   UNL     1      34.264 -13.775 -21.506  0.00  0.00    -0.059 C 
BRANCH  29  30
ATOM     30  N   UNL     1      33.008 -13.800 -20.751  0.00  0.00    +0.383 N 
ATOM     31  H   UNL     1      33.137 -13.317 -19.862  0.00  0.00    -0.089 HD
ATOM     32  H   UNL     1      32.735 -14.766 -20.578  0.00  0.00    -0.089 HD
ATOM     33  H   UNL     1      32.280 -13.331 -21.290  0.00  0.00    -0.089 HD
ENDBRANCH  29  30
ENDBRANCH  26  29
ENDBRANCH   3  23
TORSDOF 7
ENDMDL
MODEL 9
REMARK VINA RESULT:     -10.4      3.342      6.095
REMARK  Name = 657077
REMARK  7 active torsions:
REMARK  status: ('A' for Active; 'I' for Inactive)
REMARK    1  A    between atoms: C_3  and  C_23
REMARK    2  A    between atoms: C_8  and  C_10
REMARK    3  A    between atoms: C_12  and  C_15
REMARK    4  A    between atoms: C_15  and  C_16
REMARK    5  A    between atoms: C_16  and  C_17
REMARK    6  A    between atoms: C_26  and  C_29
REMARK    7  A    between atoms: C_29  and  N_30
REMARK                            x       y       z     vdW  Elec       q    Type
REMARK                         _______ _______ _______ _____ _____    ______ ____
ROOT
ATOM      1  O   UNL     1      32.497 -20.474 -20.229  0.00  0.00    -0.270 OA
ATOM      2  N   UNL     1      34.237 -21.789 -19.388  0.00  0.00    -0.276 N 
ATOM      3  C   UNL     1      35.197 -23.128 -17.008  0.00  0.00    +0.026 C 
ATOM      4  C   UNL     1      36.087 -22.155 -17.806  0.00  0.00    +0.026 C 
ATOM      5  C   UNL     1      33.708 -22.783 -17.202  0.00  0.00    +0.026 C 
ATOM      6  C   UNL     1      35.666 -22.109 -19.275  0.00  0.00    +0.094 C 
ATOM      7  C   UNL     1      33.347 -22.715 -18.686  0.00  0.00    +0.094 C 
ATOM      8  C   UNL     1      33.696 -20.726 -20.114  0.00  0.00    +0.251 C 
ENDROOT
BRANCH   8  10
ATOM      9  N   UNL     1      36.817 -18.824 -20.921  0.00  0.00    -0.242 NA
ATOM     10  C   UNL     1      34.619 -19.811 -20.793  0.00  0.00    +0.072 C 
ATOM     11  C   UNL     1      34.213 -19.086 -21.904  0.00  0.00    +0.003 C 
ATOM     12  C   UNL     1      35.111 -18.225 -22.527  0.00  0.00    -0.003 C 
ATOM     13  C   UNL     1      35.915 -19.650 -20.343  0.00  0.00    +0.103 C 
ATOM     14  C   UNL     1      36.390 -18.132 -22.002  0.00  0.00    +0.095 C 
BRANCH  12  15
ATOM     15  C   UNL     1      34.712 -17.433 -23.720  0.00  0.00    +0.033 C 
BRANCH  15  16
ATOM     16  C   UNL     1      35.247 -15.985 -23.724  0.00  0.00    +0.031 C 
BRANCH  16  17
ATOM     17  C   UNL     1      34.410 -15.042 -22.894  0.00  0.00    -0.022 C 
ATOM     18  C   UNL     1      34.561 -15.032 -21.516  0.00  0.00    -0.004 C 
ATOM     19  C   UNL     1      33.505 -14.203 -23.525  0.00  0.00    -0.004 C 
ATOM     20  C   UNL     1      33.787 -14.161 -20.750  0.00  0.00    -0.000 C 
ATOM     21  C   UNL     1      32.732 -13.331 -22.758  0.00  0.00    -0.000 C 
ATOM     22  C   UNL     1      32.873 -13.310 -21.370  0.00  0.00    -0.000 C 
ENDBRANCH  16  17
ENDBRANCH  15  16
ENDBRANCH  12  15
ENDBRANCH   8  10
BRANCH   3  23
ATOM     23  C   UNL     1      35.583 -23.179 -15.542  0.00  0.00    -0.023 C 
ATOM     24  C   UNL     1      34.688 -23.694 -14.606  0.00  0.00    -0.011 C 
ATOM     25  C   UNL     1      36.832 -22.713 -15.136  0.00  0.00    -0.004 C 
ATOM     26  C   UNL     1      35.043 -23.742 -13.258  0.00  0.00    -0.045 C 
ATOM     27  C   UNL     1      37.186 -22.761 -13.787  0.00  0.00    -0.001 C 
ATOM     28  C   UNL     1      36.293 -23.276 -12.849  0.00  0.00    -0.006 C 
BRANCH  26  29
ATOM     29  C   UNL     1      34.088 -24.294 -12.253  0.00  0.00    -0.059 C 
BRANCH  29  30
ATOM     30  N   UNL     1      33.017 -25.077 -12.874  0.00  0.00    +0.383 N 
ATOM     31  H   UNL     1      33.054 -24.960 -13.887  0.00  0.00    -0.089 HD
ATOM     32  H   UNL     1      32.115 -24.756 -12.526  0.00  0.00    -0.089 HD
ATOM     33  H   UNL     1      33.140 -26.063 -12.642  0.00  0.00    -0.089 HD
ENDBRANCH  29  30
ENDBRANCH  26  29
ENDBRANCH   3  23
TORSDOF 7
ENDMDL
