MODEL 1
REMARK VINA RESULT:     -11.7      0.000      0.000
REMARK  Name = 11961293
REMARK  7 active torsions:
REMARK  status: ('A' for Active; 'I' for Inactive)
REMARK    1  A    between atoms: C_1  and  C_3
REMARK    2  A    between atoms: C_1  and  N_21
REMARK    3  A    between atoms: N_2  and  C_9
REMARK    4  A    between atoms: C_9  and  C_12
REMARK    5  A    between atoms: C_17  and  O_18
REMARK    6  A    between atoms: C_22  and  C_26
REMARK    7  A    between atoms: C_30  and  C_35
REMARK                            x       y       z     vdW  Elec       q    Type
REMARK                         _______ _______ _______ _____ _____    ______ ____
ROOT
ATOM      1  C   UNL     1      33.803 -14.949 -24.337  0.00  0.00    +0.089 C 
ENDROOT
BRANCH   1   3
ATOM      2  N   UNL     1      35.209 -18.033 -21.659  0.00  0.00    +0.387 N 
ATOM      3  C   UNL     1      34.762 -15.850 -23.566  0.00  0.00    +0.015 C 
ATOM      4  C   UNL     1      35.442 -18.241 -23.094  0.00  0.00    -0.077 C 
ATOM      5  C   UNL     1      35.481 -16.641 -21.274  0.00  0.00    -0.077 C 
ATOM      6  C   UNL     1      34.553 -17.323 -23.937  0.00  0.00    -0.021 C 
ATOM      7  C   UNL     1      34.592 -15.669 -22.054  0.00  0.00    -0.021 C 
ATOM      8  H   UNL     1      34.225 -18.224 -21.469  0.00  0.00    -0.080 HD
BRANCH   2   9
ATOM      9  C   UNL     1      36.027 -18.952 -20.868  0.00  0.00    -0.077 C 
BRANCH   9  12
ATOM     10  O   UNL     1      31.984 -22.279 -17.490  0.00  0.00    -0.226 OA
ATOM     11  N   UNL     1      33.814 -22.076 -18.908  0.00  0.00    -0.246 N 
ATOM     12  C   UNL     1      35.287 -20.265 -20.622  0.00  0.00    -0.017 C 
ATOM     13  C   UNL     1      33.823 -20.003 -20.237  0.00  0.00    +0.020 C 
ATOM     14  C   UNL     1      35.985 -21.087 -19.527  0.00  0.00    +0.020 C 
ATOM     15  C   UNL     1      33.093 -21.306 -19.921  0.00  0.00    +0.097 C 
ATOM     16  C   UNL     1      35.216 -22.372 -19.223  0.00  0.00    +0.097 C 
ATOM     17  C   UNL     1      33.159 -22.524 -17.758  0.00  0.00    +0.405 C 
BRANCH  17  18
ATOM     18  O   UNL     1      33.968 -23.275 -16.947  0.00  0.00    -0.430 OA
ATOM     19  C   UNL     1      33.490 -23.506 -15.617  0.00  0.00    +0.257 C 
ENDBRANCH  17  18
ENDBRANCH   9  12
ENDBRANCH   2   9
ENDBRANCH   1   3
BRANCH   1  21
ATOM     20  O   UNL     1      34.153 -12.100 -24.370  0.00  0.00    -0.270 OA
ATOM     21  N   UNL     1      33.168 -13.986 -23.451  0.00  0.00    -0.301 N 
ATOM     22  C   UNL     1      33.405 -12.629 -23.551  0.00  0.00    +0.247 C 
ATOM     23  H   UNL     1      32.548 -14.311 -22.758  0.00  0.00    +0.150 HD
BRANCH  22  26
ATOM     24  N   UNL     1      32.206  -8.237 -22.081  0.00  0.00    -0.318 N 
ATOM     25  N   UNL     1      33.259  -9.523 -23.556  0.00  0.00    -0.318 N 
ATOM     26  C   UNL     1      32.701 -11.780 -22.557  0.00  0.00    +0.068 C 
ATOM     27  C   UNL     1      32.696 -10.387 -22.653  0.00  0.00    +0.063 C 
ATOM     28  C   UNL     1      32.006 -12.339 -21.479  0.00  0.00    +0.006 C 
ATOM     29  C   UNL     1      32.044  -9.561 -21.743  0.00  0.00    +0.059 C 
ATOM     30  C   UNL     1      32.939  -8.251 -23.172  0.00  0.00    +0.144 C 
ATOM     31  C   UNL     1      31.342 -11.535 -20.549  0.00  0.00    +0.001 C 
ATOM     32  C   UNL     1      31.351 -10.139 -20.666  0.00  0.00    +0.016 C 
ATOM     33  H   UNL     1      31.851  -7.450 -21.609  0.00  0.00    +0.148 HD
ATOM     34  H   UNL     1      33.798  -9.775 -24.342  0.00  0.00    +0.148 HD
BRANCH  30  35
ATOM     35  C   UNL     1      33.342  -7.015 -23.866  0.00  0.00    +0.037 C 
ATOM     36  C   UNL     1      32.448  -5.800 -23.520  0.00  0.00    +0.003 C 
ATOM     37  C   UNL     1      34.826  -6.638 -23.632  0.00  0.00    +0.003 C 
ENDBRANCH  30  35
ENDBRANCH  22  26
ENDBRANCH   1  21
TORSDOF 7
ENDMDL
MODEL 2
REMARK VINA RESULT:     -10.9      3.650      6.974
REMARK  Name = 11961293
REMARK  7 active torsions:
REMARK  status: ('A' for Active; 'I' for Inactive)
REMARK    1  A    between atoms: C_1  and  C_3
REMARK    2  A    between atoms: C_1  and  N_21
REMARK    3  A    between atoms: N_2  and  C_9
REMARK    4  A    between atoms: C_9  and  C_12
REMARK    5  A    between atoms: C_17  and  O_18
REMARK    6  A    between atoms: C_22  and  C_26
REMARK    7  A    between atoms: C_30  and  C_35
REMARK                            x       y       z     vdW  Elec       q    Type
REMARK                         _______ _______ _______ _____ _____    ______ ____
ROOT
ATOM      1  C   UNL     1      37.230 -20.021 -19.551  0.00  0.00    +0.089 C 
ENDROOT
BRANCH   1   3
ATOM      2  N   UNL     1      34.907 -22.492 -16.876  0.00  0.00    +0.387 N 
ATOM      3  C   UNL     1      36.664 -21.269 -18.880  0.00  0.00    +0.015 C 
ATOM      4  C   UNL     1      34.556 -22.542 -18.301  0.00  0.00    -0.077 C 
ATOM      5  C   UNL     1      36.364 -22.494 -16.689  0.00  0.00    -0.077 C 
ATOM      6  C   UNL     1      35.144 -21.348 -19.057  0.00  0.00    -0.021 C 
ATOM      7  C   UNL     1      37.013 -21.297 -17.388  0.00  0.00    -0.021 C 
ATOM      8  H   UNL     1      34.542 -21.620 -16.493  0.00  0.00    -0.080 HD
BRANCH   2   9
ATOM      9  C   UNL     1      34.296 -23.611 -16.159  0.00  0.00    -0.077 C 
BRANCH   9  12
ATOM     10  O   UNL     1      28.602 -25.148 -14.149  0.00  0.00    -0.226 OA
ATOM     11  N   UNL     1      30.156 -23.641 -14.996  0.00  0.00    -0.246 N 
ATOM     12  C   UNL     1      32.967 -23.196 -15.534  0.00  0.00    -0.017 C 
ATOM     13  C   UNL     1      32.494 -24.239 -14.510  0.00  0.00    +0.020 C 
ATOM     14  C   UNL     1      31.895 -22.993 -16.617  0.00  0.00    +0.020 C 
ATOM     15  C   UNL     1      31.132 -23.869 -13.931  0.00  0.00    +0.097 C 
ATOM     16  C   UNL     1      30.542 -22.644 -16.000  0.00  0.00    +0.097 C 
ATOM     17  C   UNL     1      28.930 -24.313 -14.990  0.00  0.00    +0.405 C 
BRANCH  17  18
ATOM     18  O   UNL     1      28.118 -23.939 -16.028  0.00  0.00    -0.430 OA
ATOM     19  C   UNL     1      27.288 -22.794 -15.799  0.00  0.00    +0.257 C 
ENDBRANCH  17  18
ENDBRANCH   9  12
ENDBRANCH   2   9
ENDBRANCH   1   3
BRANCH   1  21
ATOM     20  O   UNL     1      36.009 -17.520 -20.254  0.00  0.00    -0.270 OA
ATOM     21  N   UNL     1      36.511 -19.720 -20.780  0.00  0.00    -0.301 N 
ATOM     22  C   UNL     1      35.959 -18.478 -21.021  0.00  0.00    +0.247 C 
ATOM     23  H   UNL     1      36.416 -20.424 -21.462  0.00  0.00    +0.150 HD
BRANCH  22  26
ATOM     24  N   UNL     1      33.798 -15.604 -24.176  0.00  0.00    -0.318 N 
ATOM     25  N   UNL     1      34.878 -15.833 -22.248  0.00  0.00    -0.318 N 
ATOM     26  C   UNL     1      35.235 -18.338 -22.310  0.00  0.00    +0.068 C 
ATOM     27  C   UNL     1      34.791 -17.097 -22.772  0.00  0.00    +0.063 C 
ATOM     28  C   UNL     1      34.966 -19.444 -23.123  0.00  0.00    +0.006 C 
ATOM     29  C   UNL     1      34.114 -16.928 -23.976  0.00  0.00    +0.059 C 
ATOM     30  C   UNL     1      34.271 -14.976 -23.123  0.00  0.00    +0.144 C 
ATOM     31  C   UNL     1      34.288 -19.305 -24.336  0.00  0.00    +0.001 C 
ATOM     32  C   UNL     1      33.852 -18.050 -24.779  0.00  0.00    +0.016 C 
ATOM     33  H   UNL     1      33.322 -15.211 -24.943  0.00  0.00    +0.148 HD
ATOM     34  H   UNL     1      35.303 -15.587 -21.394  0.00  0.00    +0.148 HD
BRANCH  30  35
ATOM     35  C   UNL     1      34.140 -13.518 -22.949  0.00  0.00    +0.037 C 
ATOM     36  C   UNL     1      33.762 -12.778 -24.255  0.00  0.00    +0.003 C 
ATOM     37  C   UNL     1      33.141 -13.123 -21.833  0.00  0.00    +0.003 C 
ENDBRANCH  30  35
ENDBRANCH  22  26
ENDBRANCH   1  21
TORSDOF 7
ENDMDL
MODEL 3
REMARK VINA RESULT:     -10.9      2.982     12.483
REMARK  Name = 11961293
REMARK  7 active torsions:
REMARK  status: ('A' for Active; 'I' for Inactive)
REMARK    1  A    between atoms: C_1  and  C_3
REMARK    2  A    between atoms: C_1  and  N_21
REMARK    3  A    between atoms: N_2  and  C_9
REMARK    4  A    between atoms: C_9  and  C_12
REMARK    5  A    between atoms: C_17  and  O_18
REMARK    6  A    between atoms: C_22  and  C_26
REMARK    7  A    between atoms: C_30  and  C_35
REMARK                            x       y       z     vdW  Elec       q    Type
REMARK                         _______ _______ _______ _____ _____    ______ ____
ROOT
ATOM      1  C   UNL     1      34.858 -22.285 -19.133  0.00  0.00    +0.089 C 
ENDROOT
BRANCH   1   3
ATOM      2  N   UNL     1      35.982 -18.893 -21.558  0.00  0.00    +0.387 N 
ATOM      3  C   UNL     1      35.139 -20.840 -19.536  0.00  0.00    +0.015 C 
ATOM      4  C   UNL     1      34.571 -18.990 -21.164  0.00  0.00    -0.077 C 
ATOM      5  C   UNL     1      36.870 -19.234 -20.439  0.00  0.00    -0.077 C 
ATOM      6  C   UNL     1      34.227 -20.403 -20.688  0.00  0.00    -0.021 C 
ATOM      7  C   UNL     1      36.605 -20.656 -19.939  0.00  0.00    -0.021 C 
ATOM      8  H   UNL     1      36.147 -19.565 -22.307  0.00  0.00    -0.080 HD
BRANCH   2   9
ATOM      9  C   UNL     1      36.283 -17.551 -22.059  0.00  0.00    -0.077 C 
BRANCH   9  12
ATOM     10  O   UNL     1      33.443 -13.806 -26.150  0.00  0.00    -0.226 OA
ATOM     11  N   UNL     1      33.660 -14.787 -24.055  0.00  0.00    -0.246 N 
ATOM     12  C   UNL     1      35.014 -16.853 -22.541  0.00  0.00    -0.017 C 
ATOM     13  C   UNL     1      34.903 -16.913 -24.072  0.00  0.00    +0.020 C 
ATOM     14  C   UNL     1      34.981 -15.392 -22.064  0.00  0.00    +0.020 C 
ATOM     15  C   UNL     1      33.674 -16.157 -24.568  0.00  0.00    +0.097 C 
ATOM     16  C   UNL     1      33.749 -14.662 -22.596  0.00  0.00    +0.097 C 
ATOM     17  C   UNL     1      33.519 -13.705 -24.927  0.00  0.00    +0.405 C 
BRANCH  17  18
ATOM     18  O   UNL     1      33.471 -12.502 -24.273  0.00  0.00    -0.430 OA
ATOM     19  C   UNL     1      33.754 -11.341 -25.063  0.00  0.00    +0.257 C 
ENDBRANCH  17  18
ENDBRANCH   9  12
ENDBRANCH   2   9
ENDBRANCH   1   3
BRANCH   1  21
ATOM     20  O   UNL     1      33.419 -24.542 -18.096  0.00  0.00    -0.270 OA
ATOM     21  N   UNL     1      34.113 -22.341 -17.884  0.00  0.00    -0.301 N 
ATOM     22  C   UNL     1      33.453 -23.483 -17.475  0.00  0.00    +0.247 C 
ATOM     23  H   UNL     1      34.080 -21.540 -17.312  0.00  0.00    +0.150 HD
BRANCH  22  26
ATOM     24  N   UNL     1      33.547 -23.777 -12.701  0.00  0.00    -0.318 N 
ATOM     25  N   UNL     1      34.630 -23.944 -14.634  0.00  0.00    -0.318 N 
ATOM     26  C   UNL     1      32.717 -23.371 -16.190  0.00  0.00    +0.068 C 
ATOM     27  C   UNL     1      33.344 -23.599 -14.963  0.00  0.00    +0.063 C 
ATOM     28  C   UNL     1      31.362 -23.029 -16.149  0.00  0.00    +0.006 C 
ATOM     29  C   UNL     1      32.688 -23.500 -13.739  0.00  0.00    +0.059 C 
ATOM     30  C   UNL     1      34.701 -24.039 -13.273  0.00  0.00    +0.144 C 
ATOM     31  C   UNL     1      30.676 -22.922 -14.936  0.00  0.00    +0.001 C 
ATOM     32  C   UNL     1      31.326 -23.156 -13.718  0.00  0.00    +0.016 C 
ATOM     33  H   UNL     1      33.342 -23.779 -11.738  0.00  0.00    +0.148 HD
ATOM     34  H   UNL     1      35.369 -24.097 -15.267  0.00  0.00    +0.148 HD
BRANCH  30  35
ATOM     35  C   UNL     1      35.904 -24.387 -12.496  0.00  0.00    +0.037 C 
ATOM     36  C   UNL     1      37.076 -23.398 -12.708  0.00  0.00    +0.003 C 
ATOM     37  C   UNL     1      35.631 -24.535 -10.979  0.00  0.00    +0.003 C 
ENDBRANCH  30  35
ENDBRANCH  22  26
ENDBRANCH   1  21
TORSDOF 7
ENDMDL
MODEL 4
REMARK VINA RESULT:     -10.8      2.619     12.413
REMARK  Name = 11961293
REMARK  7 active torsions:
REMARK  status: ('A' for Active; 'I' for Inactive)
REMARK    1  A    between atoms: C_1  and  C_3
REMARK    2  A    between atoms: C_1  and  N_21
REMARK    3  A    between atoms: N_2  and  C_9
REMARK    4  A    between atoms: C_9  and  C_12
REMARK    5  A    between atoms: C_17  and  O_18
REMARK    6  A    between atoms: C_22  and  C_26
REMARK    7  A    between atoms: C_30  and  C_35
REMARK                            x       y       z     vdW  Elec       q    Type
REMARK                         _______ _______ _______ _____ _____    ______ ____
ROOT
ATOM      1  C   UNL     1      36.823 -21.280 -18.994  0.00  0.00    +0.089 C 
ENDROOT
BRANCH   1   3
ATOM      2  N   UNL     1      35.410 -18.197 -21.670  0.00  0.00    +0.387 N 
ATOM      3  C   UNL     1      36.423 -20.576 -20.288  0.00  0.00    +0.015 C 
ATOM      4  C   UNL     1      36.827 -18.567 -21.770  0.00  0.00    -0.077 C 
ATOM      5  C   UNL     1      34.561 -19.387 -21.517  0.00  0.00    -0.077 C 
ATOM      6  C   UNL     1      37.288 -19.333 -20.528  0.00  0.00    -0.021 C 
ATOM      7  C   UNL     1      34.944 -20.181 -20.265  0.00  0.00    -0.021 C 
ATOM      8  H   UNL     1      35.293 -17.619 -20.837  0.00  0.00    -0.080 HD
BRANCH   2   9
ATOM      9  C   UNL     1      34.998 -17.422 -22.840  0.00  0.00    -0.077 C 
BRANCH   9  12
ATOM     10  O   UNL     1      32.258 -12.649 -19.916  0.00  0.00    -0.226 OA
ATOM     11  N   UNL     1      33.549 -13.560 -21.621  0.00  0.00    -0.246 N 
ATOM     12  C   UNL     1      34.952 -15.930 -22.516  0.00  0.00    -0.017 C 
ATOM     13  C   UNL     1      34.610 -15.703 -21.035  0.00  0.00    +0.020 C 
ATOM     14  C   UNL     1      33.934 -15.208 -23.412  0.00  0.00    +0.020 C 
ATOM     15  C   UNL     1      34.493 -14.215 -20.717  0.00  0.00    +0.097 C 
ATOM     16  C   UNL     1      33.829 -13.728 -23.051  0.00  0.00    +0.097 C 
ATOM     17  C   UNL     1      32.496 -12.794 -21.114  0.00  0.00    +0.405 C 
BRANCH  17  18
ATOM     18  O   UNL     1      31.745 -12.209 -22.100  0.00  0.00    -0.430 OA
ATOM     19  C   UNL     1      31.542 -10.795 -21.984  0.00  0.00    +0.257 C 
ENDBRANCH  17  18
ENDBRANCH   9  12
ENDBRANCH   2   9
ENDBRANCH   1   3
BRANCH   1  21
ATOM     20  O   UNL     1      36.789 -22.613 -16.451  0.00  0.00    -0.270 OA
ATOM     21  N   UNL     1      35.651 -21.776 -18.289  0.00  0.00    -0.301 N 
ATOM     22  C   UNL     1      35.744 -22.406 -17.064  0.00  0.00    +0.247 C 
ATOM     23  H   UNL     1      34.763 -21.658 -18.698  0.00  0.00    +0.150 HD
BRANCH  22  26
ATOM     24  N   UNL     1      33.454 -24.524 -13.437  0.00  0.00    -0.318 N 
ATOM     25  N   UNL     1      35.367 -23.817 -14.319  0.00  0.00    -0.318 N 
ATOM     26  C   UNL     1      34.459 -22.877 -16.486  0.00  0.00    +0.068 C 
ATOM     27  C   UNL     1      34.401 -23.501 -15.238  0.00  0.00    +0.063 C 
ATOM     28  C   UNL     1      33.248 -22.715 -17.166  0.00  0.00    +0.006 C 
ATOM     29  C   UNL     1      33.215 -23.952 -14.665  0.00  0.00    +0.059 C 
ATOM     30  C   UNL     1      34.753 -24.426 -13.261  0.00  0.00    +0.144 C 
ATOM     31  C   UNL     1      32.043 -23.158 -16.616  0.00  0.00    +0.001 C 
ATOM     32  C   UNL     1      32.008 -23.781 -15.362  0.00  0.00    +0.016 C 
ATOM     33  H   UNL     1      32.795 -24.921 -12.822  0.00  0.00    +0.148 HD
ATOM     34  H   UNL     1      36.332 -23.637 -14.405  0.00  0.00    +0.148 HD
BRANCH  30  35
ATOM     35  C   UNL     1      35.424 -24.928 -12.048  0.00  0.00    +0.037 C 
ATOM     36  C   UNL     1      36.753 -25.665 -12.344  0.00  0.00    +0.003 C 
ATOM     37  C   UNL     1      35.678 -23.826 -10.990  0.00  0.00    +0.003 C 
ENDBRANCH  30  35
ENDBRANCH  22  26
ENDBRANCH   1  21
TORSDOF 7
ENDMDL
MODEL 5
REMARK VINA RESULT:     -10.8      1.275      2.634
REMARK  Name = 11961293
REMARK  7 active torsions:
REMARK  status: ('A' for Active; 'I' for Inactive)
REMARK    1  A    between atoms: C_1  and  C_3
REMARK    2  A    between atoms: C_1  and  N_21
REMARK    3  A    between atoms: N_2  and  C_9
REMARK    4  A    between atoms: C_9  and  C_12
REMARK    5  A    between atoms: C_17  and  O_18
REMARK    6  A    between atoms: C_22  and  C_26
REMARK    7  A    between atoms: C_30  and  C_35
REMARK                            x       y       z     vdW  Elec       q    Type
REMARK                         _______ _______ _______ _____ _____    ______ ____
ROOT
ATOM      1  C   UNL     1      33.698 -14.992 -24.584  0.00  0.00    +0.089 C 
ENDROOT
BRANCH   1   3
ATOM      2  N   UNL     1      35.044 -17.912 -21.699  0.00  0.00    +0.387 N 
ATOM      3  C   UNL     1      34.636 -15.895 -23.788  0.00  0.00    +0.015 C 
ATOM      4  C   UNL     1      35.152 -18.279 -23.117  0.00  0.00    -0.077 C 
ATOM      5  C   UNL     1      35.457 -16.519 -21.479  0.00  0.00    -0.077 C 
ATOM      6  C   UNL     1      34.281 -17.372 -23.990  0.00  0.00    -0.021 C 
ATOM      7  C   UNL     1      34.595 -15.553 -22.295  0.00  0.00    -0.021 C 
ATOM      8  H   UNL     1      34.065 -17.996 -21.425  0.00  0.00    -0.080 HD
BRANCH   2   9
ATOM      9  C   UNL     1      35.842 -18.819 -20.873  0.00  0.00    -0.077 C 
BRANCH   9  12
ATOM     10  O   UNL     1      32.043 -22.453 -17.528  0.00  0.00    -0.226 OA
ATOM     11  N   UNL     1      33.779 -22.115 -19.036  0.00  0.00    -0.246 N 
ATOM     12  C   UNL     1      35.128 -20.155 -20.688  0.00  0.00    -0.017 C 
ATOM     13  C   UNL     1      33.689 -19.943 -20.192  0.00  0.00    +0.020 C 
ATOM     14  C   UNL     1      35.899 -21.054 -19.708  0.00  0.00    +0.020 C 
ATOM     15  C   UNL     1      32.990 -21.275 -19.937  0.00  0.00    +0.097 C 
ATOM     16  C   UNL     1      35.160 -22.368 -19.461  0.00  0.00    +0.097 C 
ATOM     17  C   UNL     1      33.200 -22.661 -17.887  0.00  0.00    +0.405 C 
BRANCH  17  18
ATOM     18  O   UNL     1      34.065 -23.464 -17.191  0.00  0.00    -0.430 OA
ATOM     19  C   UNL     1      34.258 -23.137 -15.810  0.00  0.00    +0.257 C 
ENDBRANCH  17  18
ENDBRANCH   9  12
ENDBRANCH   2   9
ENDBRANCH   1   3
BRANCH   1  21
ATOM     20  O   UNL     1      33.109 -12.803 -26.345  0.00  0.00    -0.270 OA
ATOM     21  N   UNL     1      34.013 -13.589 -24.361  0.00  0.00    -0.301 N 
ATOM     22  C   UNL     1      33.685 -12.610 -25.277  0.00  0.00    +0.247 C 
ATOM     23  H   UNL     1      34.476 -13.330 -23.531  0.00  0.00    +0.150 HD
BRANCH  22  26
ATOM     24  N   UNL     1      33.201  -8.859 -22.346  0.00  0.00    -0.318 N 
ATOM     25  N   UNL     1      32.591 -10.922 -22.906  0.00  0.00    -0.318 N 
ATOM     26  C   UNL     1      34.098 -11.230 -24.915  0.00  0.00    +0.068 C 
ATOM     27  C   UNL     1      33.542 -10.559 -23.824  0.00  0.00    +0.063 C 
ATOM     28  C   UNL     1      35.068 -10.540 -25.650  0.00  0.00    +0.006 C 
ATOM     29  C   UNL     1      33.908  -9.268 -23.453  0.00  0.00    +0.059 C 
ATOM     30  C   UNL     1      32.421  -9.874 -22.045  0.00  0.00    +0.144 C 
ATOM     31  C   UNL     1      35.455  -9.243 -25.302  0.00  0.00    +0.001 C 
ATOM     32  C   UNL     1      34.883  -8.590 -24.203  0.00  0.00    +0.016 C 
ATOM     33  H   UNL     1      33.264  -7.995 -21.880  0.00  0.00    +0.148 HD
ATOM     34  H   UNL     1      32.114 -11.784 -22.873  0.00  0.00    +0.148 HD
BRANCH  30  35
ATOM     35  C   UNL     1      31.491  -9.841 -20.901  0.00  0.00    +0.037 C 
ATOM     36  C   UNL     1      31.193 -11.242 -20.315  0.00  0.00    +0.003 C 
ATOM     37  C   UNL     1      31.956  -8.900 -19.762  0.00  0.00    +0.003 C 
ENDBRANCH  30  35
ENDBRANCH  22  26
ENDBRANCH   1  21
TORSDOF 7
ENDMDL
MODEL 6
REMARK VINA RESULT:     -10.6      2.972     11.950
REMARK  Name = 11961293
REMARK  7 active torsions:
REMARK  status: ('A' for Active; 'I' for Inactive)
REMARK    1  A    between atoms: C_1  and  C_3
REMARK    2  A    between atoms: C_1  and  N_21
REMARK    3  A    between atoms: N_2  and  C_9
REMARK    4  A    between atoms: C_9  and  C_12
REMARK    5  A    between atoms: C_17  and  O_18
REMARK    6  A    between atoms: C_22  and  C_26
REMARK    7  A    between atoms: C_30  and  C_35
REMARK                            x       y       z     vdW  Elec       q    Type
REMARK                         _______ _______ _______ _____ _____    ______ ____
ROOT
ATOM      1  C   UNL     1      35.013 -22.276 -19.140  0.00  0.00    +0.089 C 
ENDROOT
BRANCH   1   3
ATOM      2  N   UNL     1      36.049 -18.839 -21.542  0.00  0.00    +0.387 N 
ATOM      3  C   UNL     1      35.264 -20.823 -19.530  0.00  0.00    +0.015 C 
ATOM      4  C   UNL     1      34.645 -18.965 -21.132  0.00  0.00    -0.077 C 
ATOM      5  C   UNL     1      36.956 -19.177 -20.436  0.00  0.00    -0.077 C 
ATOM      6  C   UNL     1      34.331 -20.389 -20.667  0.00  0.00    -0.021 C 
ATOM      7  C   UNL     1      36.722 -20.609 -19.949  0.00  0.00    -0.021 C 
ATOM      8  H   UNL     1      36.217 -19.501 -22.299  0.00  0.00    -0.080 HD
BRANCH   2   9
ATOM      9  C   UNL     1      36.321 -17.487 -22.031  0.00  0.00    -0.077 C 
BRANCH   9  12
ATOM     10  O   UNL     1      33.402 -13.819 -26.137  0.00  0.00    -0.226 OA
ATOM     11  N   UNL     1      33.643 -14.784 -24.036  0.00  0.00    -0.246 N 
ATOM     12  C   UNL     1      35.038 -16.815 -22.513  0.00  0.00    -0.017 C 
ATOM     13  C   UNL     1      34.924 -16.887 -24.043  0.00  0.00    +0.020 C 
ATOM     14  C   UNL     1      34.980 -15.352 -22.045  0.00  0.00    +0.020 C 
ATOM     15  C   UNL     1      33.680 -16.156 -24.540  0.00  0.00    +0.097 C 
ATOM     16  C   UNL     1      33.734 -14.648 -22.578  0.00  0.00    +0.097 C 
ATOM     17  C   UNL     1      33.480 -13.709 -24.914  0.00  0.00    +0.405 C 
BRANCH  17  18
ATOM     18  O   UNL     1      33.412 -12.504 -24.267  0.00  0.00    -0.430 OA
ATOM     19  C   UNL     1      33.692 -11.344 -25.061  0.00  0.00    +0.257 C 
ENDBRANCH  17  18
ENDBRANCH   9  12
ENDBRANCH   2   9
ENDBRANCH   1   3
BRANCH   1  21
ATOM     20  O   UNL     1      33.366 -24.396 -18.122  0.00  0.00    -0.270 OA
ATOM     21  N   UNL     1      34.436 -22.365 -17.807  0.00  0.00    -0.301 N 
ATOM     22  C   UNL     1      33.655 -23.433 -17.415  0.00  0.00    +0.247 C 
ATOM     23  H   UNL     1      34.610 -21.640 -17.163  0.00  0.00    +0.150 HD
BRANCH  22  26
ATOM     24  N   UNL     1      29.863 -22.905 -14.547  0.00  0.00    -0.318 N 
ATOM     25  N   UNL     1      30.681 -23.008 -16.610  0.00  0.00    -0.318 N 
ATOM     26  C   UNL     1      33.120 -23.362 -16.031  0.00  0.00    +0.068 C 
ATOM     27  C   UNL     1      31.760 -23.169 -15.779  0.00  0.00    +0.063 C 
ATOM     28  C   UNL     1      33.955 -23.490 -14.917  0.00  0.00    +0.006 C 
ATOM     29  C   UNL     1      31.223 -23.102 -14.497  0.00  0.00    +0.059 C 
ATOM     30  C   UNL     1      29.572 -22.854 -15.827  0.00  0.00    +0.144 C 
ATOM     31  C   UNL     1      33.445 -23.426 -13.618  0.00  0.00    +0.001 C 
ATOM     32  C   UNL     1      32.077 -23.231 -13.388  0.00  0.00    +0.016 C 
ATOM     33  H   UNL     1      29.241 -22.821 -13.788  0.00  0.00    +0.148 HD
ATOM     34  H   UNL     1      30.703 -23.005 -17.595  0.00  0.00    +0.148 HD
BRANCH  30  35
ATOM     35  C   UNL     1      28.195 -22.654 -16.315  0.00  0.00    +0.037 C 
ATOM     36  C   UNL     1      27.669 -23.837 -17.164  0.00  0.00    +0.003 C 
ATOM     37  C   UNL     1      27.183 -22.351 -15.183  0.00  0.00    +0.003 C 
ENDBRANCH  30  35
ENDBRANCH  22  26
ENDBRANCH   1  21
TORSDOF 7
ENDMDL
MODEL 7
REMARK VINA RESULT:     -10.6      1.570      2.618
REMARK  Name = 11961293
REMARK  7 active torsions:
REMARK  status: ('A' for Active; 'I' for Inactive)
REMARK    1  A    between atoms: C_1  and  C_3
REMARK    2  A    between atoms: C_1  and  N_21
REMARK    3  A    between atoms: N_2  and  C_9
REMARK    4  A    between atoms: C_9  and  C_12
REMARK    5  A    between atoms: C_17  and  O_18
REMARK    6  A    between atoms: C_22  and  C_26
REMARK    7  A    between atoms: C_30  and  C_35
REMARK                            x       y       z     vdW  Elec       q    Type
REMARK                         _______ _______ _______ _____ _____    ______ ____
ROOT
ATOM      1  C   UNL     1      33.410 -13.034 -23.981  0.00  0.00    +0.089 C 
ENDROOT
BRANCH   1   3
ATOM      2  N   UNL     1      35.215 -16.947 -23.681  0.00  0.00    +0.387 N 
ATOM      3  C   UNL     1      33.574 -14.518 -23.661  0.00  0.00    +0.015 C 
ATOM      4  C   UNL     1      34.957 -16.236 -22.423  0.00  0.00    -0.077 C 
ATOM      5  C   UNL     1      34.088 -16.803 -24.612  0.00  0.00    -0.077 C 
ATOM      6  C   UNL     1      34.721 -14.744 -22.670  0.00  0.00    -0.021 C 
ATOM      7  C   UNL     1      33.824 -15.331 -24.935  0.00  0.00    -0.021 C 
ATOM      8  H   UNL     1      36.038 -16.529 -24.116  0.00  0.00    -0.080 HD
BRANCH   2   9
ATOM      9  C   UNL     1      35.489 -18.361 -23.423  0.00  0.00    -0.077 C 
BRANCH   9  12
ATOM     10  O   UNL     1      36.937 -21.929 -18.524  0.00  0.00    -0.226 OA
ATOM     11  N   UNL     1      35.522 -20.504 -19.694  0.00  0.00    -0.246 N 
ATOM     12  C   UNL     1      35.328 -18.685 -21.940  0.00  0.00    -0.017 C 
ATOM     13  C   UNL     1      36.681 -19.052 -21.311  0.00  0.00    +0.020 C 
ATOM     14  C   UNL     1      34.321 -19.829 -21.738  0.00  0.00    +0.020 C 
ATOM     15  C   UNL     1      36.520 -19.446 -19.845  0.00  0.00    +0.097 C 
ATOM     16  C   UNL     1      34.202 -20.209 -20.263  0.00  0.00    +0.097 C 
ATOM     17  C   UNL     1      35.833 -21.678 -19.003  0.00  0.00    +0.405 C 
BRANCH  17  18
ATOM     18  O   UNL     1      34.767 -22.534 -18.911  0.00  0.00    -0.430 OA
ATOM     19  C   UNL     1      34.211 -22.711 -17.601  0.00  0.00    +0.257 C 
ENDBRANCH  17  18
ENDBRANCH   9  12
ENDBRANCH   2   9
ENDBRANCH   1   3
BRANCH   1  21
ATOM     20  O   UNL     1      32.690 -10.258 -23.865  0.00  0.00    -0.270 OA
ATOM     21  N   UNL     1      33.016 -12.288 -22.796  0.00  0.00    -0.301 N 
ATOM     22  C   UNL     1      32.687 -10.948 -22.849  0.00  0.00    +0.247 C 
ATOM     23  H   UNL     1      32.982 -12.753 -21.928  0.00  0.00    +0.150 HD
BRANCH  22  26
ATOM     24  N   UNL     1      32.064  -6.949 -20.297  0.00  0.00    -0.318 N 
ATOM     25  N   UNL     1      32.599  -7.901 -22.233  0.00  0.00    -0.318 N 
ATOM     26  C   UNL     1      32.331 -10.323 -21.549  0.00  0.00    +0.068 C 
ATOM     27  C   UNL     1      32.321  -8.938 -21.379  0.00  0.00    +0.063 C 
ATOM     28  C   UNL     1      31.986 -11.096 -20.436  0.00  0.00    +0.006 C 
ATOM     29  C   UNL     1      31.990  -8.318 -20.178  0.00  0.00    +0.059 C 
ATOM     30  C   UNL     1      32.432  -6.735 -21.541  0.00  0.00    +0.144 C 
ATOM     31  C   UNL     1      31.649 -10.503 -19.217  0.00  0.00    +0.001 C 
ATOM     32  C   UNL     1      31.646  -9.110 -19.069  0.00  0.00    +0.016 C 
ATOM     33  H   UNL     1      31.882  -6.276 -19.602  0.00  0.00    +0.148 HD
ATOM     34  H   UNL     1      32.870  -7.984 -23.176  0.00  0.00    +0.148 HD
BRANCH  30  35
ATOM     35  C   UNL     1      32.626  -5.377 -22.082  0.00  0.00    +0.037 C 
ATOM     36  C   UNL     1      33.204  -5.369 -23.518  0.00  0.00    +0.003 C 
ATOM     37  C   UNL     1      31.341  -4.514 -22.045  0.00  0.00    +0.003 C 
ENDBRANCH  30  35
ENDBRANCH  22  26
ENDBRANCH   1  21
TORSDOF 7
ENDMDL
MODEL 8
REMARK VINA RESULT:     -10.1      5.577      9.532
REMARK  Name = 11961293
REMARK  7 active torsions:
REMARK  status: ('A' for Active; 'I' for Inactive)
REMARK    1  A    between atoms: C_1  and  C_3
REMARK    2  A    between atoms: C_1  and  N_21
REMARK    3  A    between atoms: N_2  and  C_9
REMARK    4  A    between atoms: C_9  and  C_12
REMARK    5  A    between atoms: C_17  and  O_18
REMARK    6  A    between atoms: C_22  and  C_26
REMARK    7  A    between atoms: C_30  and  C_35
REMARK                            x       y       z     vdW  Elec       q    Type
REMARK                         _______ _______ _______ _____ _____    ______ ____
ROOT
ATOM      1  C   UNL     1      33.262 -22.457 -18.222  0.00  0.00    +0.089 C 
ENDROOT
BRANCH   1   3
ATOM      2  N   UNL     1      34.688 -24.265 -14.568  0.00  0.00    +0.387 N 
ATOM      3  C   UNL     1      33.549 -22.654 -16.736  0.00  0.00    +0.015 C 
ATOM      4  C   UNL     1      35.350 -23.027 -15.000  0.00  0.00    -0.077 C 
ATOM      5  C   UNL     1      33.233 -24.177 -14.743  0.00  0.00    -0.077 C 
ATOM      6  C   UNL     1      35.057 -22.729 -16.472  0.00  0.00    -0.021 C 
ATOM      7  C   UNL     1      32.867 -23.920 -16.207  0.00  0.00    -0.021 C 
ATOM      8  H   UNL     1      35.030 -25.026 -15.155  0.00  0.00    -0.080 HD
BRANCH   2   9
ATOM      9  C   UNL     1      35.019 -24.564 -13.175  0.00  0.00    -0.077 C 
BRANCH   9  12
ATOM     10  O   UNL     1      41.130 -25.039 -14.301  0.00  0.00    -0.226 OA
ATOM     11  N   UNL     1      39.020 -25.945 -13.939  0.00  0.00    -0.246 N 
ATOM     12  C   UNL     1      36.314 -25.368 -13.083  0.00  0.00    -0.017 C 
ATOM     13  C   UNL     1      37.494 -24.461 -12.701  0.00  0.00    +0.020 C 
ATOM     14  C   UNL     1      36.605 -26.086 -14.410  0.00  0.00    +0.020 C 
ATOM     15  C   UNL     1      38.805 -25.242 -12.675  0.00  0.00    +0.097 C 
ATOM     16  C   UNL     1      37.933 -26.839 -14.354  0.00  0.00    +0.097 C 
ATOM     17  C   UNL     1      40.216 -25.786 -14.645  0.00  0.00    +0.405 C 
BRANCH  17  18
ATOM     18  O   UNL     1      40.269 -26.559 -15.775  0.00  0.00    -0.430 OA
ATOM     19  C   UNL     1      40.744 -27.899 -15.601  0.00  0.00    +0.257 C 
ENDBRANCH  17  18
ENDBRANCH   9  12
ENDBRANCH   2   9
ENDBRANCH   1   3
BRANCH   1  21
ATOM     20  O   UNL     1      32.909 -20.591 -20.375  0.00  0.00    -0.270 OA
ATOM     21  N   UNL     1      34.296 -21.647 -18.849  0.00  0.00    -0.301 N 
ATOM     22  C   UNL     1      34.019 -20.776 -19.883  0.00  0.00    +0.247 C 
ATOM     23  H   UNL     1      35.223 -21.723 -18.524  0.00  0.00    +0.150 HD
BRANCH  22  26
ATOM     24  N   UNL     1      35.833 -18.056 -23.375  0.00  0.00    -0.318 N 
ATOM     25  N   UNL     1      34.097 -19.164 -22.541  0.00  0.00    -0.318 N 
ATOM     26  C   UNL     1      35.187 -20.042 -20.432  0.00  0.00    +0.068 C 
ATOM     27  C   UNL     1      35.115 -19.345 -21.640  0.00  0.00    +0.063 C 
ATOM     28  C   UNL     1      36.414 -20.012 -19.761  0.00  0.00    +0.006 C 
ATOM     29  C   UNL     1      36.187 -18.643 -22.183  0.00  0.00    +0.059 C 
ATOM     30  C   UNL     1      34.575 -18.388 -23.559  0.00  0.00    +0.144 C 
ATOM     31  C   UNL     1      37.509 -19.316 -20.282  0.00  0.00    +0.001 C 
ATOM     32  C   UNL     1      37.413 -18.625 -21.496  0.00  0.00    +0.016 C 
ATOM     33  H   UNL     1      36.399 -17.506 -23.964  0.00  0.00    +0.148 HD
ATOM     34  H   UNL     1      33.185 -19.529 -22.467  0.00  0.00    +0.148 HD
BRANCH  30  35
ATOM     35  C   UNL     1      33.809 -17.950 -24.740  0.00  0.00    +0.037 C 
ATOM     36  C   UNL     1      32.479 -18.721 -24.927  0.00  0.00    +0.003 C 
ATOM     37  C   UNL     1      33.521 -16.429 -24.753  0.00  0.00    +0.003 C 
ENDBRANCH  30  35
ENDBRANCH  22  26
ENDBRANCH   1  21
TORSDOF 7
ENDMDL
MODEL 9
REMARK VINA RESULT:     -10.0      3.410     12.658
REMARK  Name = 11961293
REMARK  7 active torsions:
REMARK  status: ('A' for Active; 'I' for Inactive)
REMARK    1  A    between atoms: C_1  and  C_3
REMARK    2  A    between atoms: C_1  and  N_21
REMARK    3  A    between atoms: N_2  and  C_9
REMARK    4  A    between atoms: C_9  and  C_12
REMARK    5  A    between atoms: C_17  and  O_18
REMARK    6  A    between atoms: C_22  and  C_26
REMARK    7  A    between atoms: C_30  and  C_35
REMARK                            x       y       z     vdW  Elec       q    Type
REMARK                         _______ _______ _______ _____ _____    ______ ____
ROOT
ATOM      1  C   UNL     1      31.619 -11.730 -20.312  0.00  0.00    +0.089 C 
ENDROOT
BRANCH   1   3
ATOM      2  N   UNL     1      32.856  -7.747 -21.436  0.00  0.00    +0.387 N 
ATOM      3  C   UNL     1      31.531 -10.257 -20.701  0.00  0.00    +0.015 C 
ATOM      4  C   UNL     1      32.135  -8.529 -22.447  0.00  0.00    -0.077 C 
ATOM      5  C   UNL     1      32.246  -7.905 -20.109  0.00  0.00    -0.077 C 
ATOM      6  C   UNL     1      32.128 -10.018 -22.092  0.00  0.00    -0.021 C 
ATOM      7  C   UNL     1      32.244  -9.373 -19.674  0.00  0.00    -0.021 C 
ATOM      8  H   UNL     1      33.812  -8.101 -21.386  0.00  0.00    -0.080 HD
BRANCH   2   9
ATOM      9  C   UNL     1      32.898  -6.335 -21.814  0.00  0.00    -0.077 C 
BRANCH   9  12
ATOM     10  O   UNL     1      35.873  -3.664 -26.595  0.00  0.00    -0.226 OA
ATOM     11  N   UNL     1      34.034  -4.708 -25.631  0.00  0.00    -0.246 N 
ATOM     12  C   UNL     1      33.093  -6.181 -23.321  0.00  0.00    -0.017 C 
ATOM     13  C   UNL     1      34.586  -6.097 -23.674  0.00  0.00    +0.020 C 
ATOM     14  C   UNL     1      32.354  -4.937 -23.842  0.00  0.00    +0.020 C 
ATOM     15  C   UNL     1      34.788  -5.873 -25.170  0.00  0.00    +0.097 C 
ATOM     16  C   UNL     1      32.597  -4.733 -25.336  0.00  0.00    +0.097 C 
ATOM     17  C   UNL     1      34.669  -3.688 -26.344  0.00  0.00    +0.405 C 
BRANCH  17  18
ATOM     18  O   UNL     1      33.803  -2.705 -26.745  0.00  0.00    -0.430 OA
ATOM     19  C   UNL     1      33.720  -2.474 -28.156  0.00  0.00    +0.257 C 
ENDBRANCH  17  18
ENDBRANCH   9  12
ENDBRANCH   2   9
ENDBRANCH   1   3
BRANCH   1  21
ATOM     20  O   UNL     1      33.656 -13.748 -20.173  0.00  0.00    -0.270 OA
ATOM     21  N   UNL     1      32.125 -12.530 -21.417  0.00  0.00    -0.301 N 
ATOM     22  C   UNL     1      33.112 -13.480 -21.242  0.00  0.00    +0.247 C 
ATOM     23  H   UNL     1      31.752 -12.390 -22.317  0.00  0.00    +0.150 HD
BRANCH  22  26
ATOM     24  N   UNL     1      35.437 -17.177 -23.195  0.00  0.00    -0.318 N 
ATOM     25  N   UNL     1      34.794 -16.092 -21.365  0.00  0.00    -0.318 N 
ATOM     26  C   UNL     1      33.539 -14.194 -22.473  0.00  0.00    +0.068 C 
ATOM     27  C   UNL     1      34.295 -15.366 -22.415  0.00  0.00    +0.063 C 
ATOM     28  C   UNL     1      33.199 -13.726 -23.746  0.00  0.00    +0.006 C 
ATOM     29  C   UNL     1      34.709 -16.064 -23.547  0.00  0.00    +0.059 C 
ATOM     30  C   UNL     1      35.468 -17.163 -21.881  0.00  0.00    +0.144 C 
ATOM     31  C   UNL     1      33.600 -14.404 -24.899  0.00  0.00    +0.001 C 
ATOM     32  C   UNL     1      34.359 -15.579 -24.818  0.00  0.00    +0.016 C 
ATOM     33  H   UNL     1      35.846 -17.840 -23.796  0.00  0.00    +0.148 HD
ATOM     34  H   UNL     1      34.686 -15.879 -20.409  0.00  0.00    +0.148 HD
BRANCH  30  35
ATOM     35  C   UNL     1      36.161 -18.203 -21.098  0.00  0.00    +0.037 C 
ATOM     36  C   UNL     1      35.284 -19.451 -20.830  0.00  0.00    +0.003 C 
ATOM     37  C   UNL     1      37.503 -18.650 -21.727  0.00  0.00    +0.003 C 
ENDBRANCH  30  35
ENDBRANCH  22  26
ENDBRANCH   1  21
TORSDOF 7
ENDMDL
