MODEL 1
REMARK VINA RESULT:     -12.0      0.000      0.000
REMARK  Name = 42642648
REMARK  5 active torsions:
REMARK  status: ('A' for Active; 'I' for Inactive)
REMARK    1  A    between atoms: N_1  and  C_22
REMARK    2  A    between atoms: C_4  and  N_15
REMARK    3  A    between atoms: C_25  and  O_28
REMARK    4  A    between atoms: O_28  and  C_29
REMARK    5  A    between atoms: C_29  and  C_32
REMARK                            x       y       z     vdW  Elec       q    Type
REMARK                         _______ _______ _______ _____ _____    ______ ____
ROOT
ATOM      1  N   UNL     1      34.895 -22.905 -17.202  0.00  0.00    -0.301 N 
ATOM      2  N   UNL     1      31.891 -23.751 -14.483  0.00  0.00    -0.248 NA
ATOM      3  N   UNL     1      32.606 -23.067 -16.680  0.00  0.00    -0.233 NA
ATOM      4  C   UNL     1      35.858 -24.134 -13.258  0.00  0.00    +0.048 C 
ATOM      5  C   UNL     1      34.233 -23.599 -14.974  0.00  0.00    +0.117 C 
ATOM      6  C   UNL     1      35.570 -23.729 -14.557  0.00  0.00    +0.001 C 
ATOM      7  C   UNL     1      33.173 -23.872 -14.095  0.00  0.00    +0.067 C 
ATOM      8  C   UNL     1      33.879 -23.198 -16.258  0.00  0.00    +0.115 C 
ATOM      9  C   UNL     1      34.816 -24.407 -12.378  0.00  0.00    +0.016 C 
ATOM     10  C   UNL     1      33.490 -24.274 -12.799  0.00  0.00    +0.016 C 
ATOM     11  C   UNL     1      31.677 -23.355 -15.753  0.00  0.00    +0.251 C 
ATOM     12  H   UNL     1      35.723 -23.419 -17.066  0.00  0.00    +0.153 HD
ENDROOT
BRANCH   4  15
ATOM     13  O   UNL     1      39.392 -24.889 -12.788  0.00  0.00    -0.448 OA
ATOM     14  N   UNL     1      38.160 -25.589 -14.579  0.00  0.00    -0.222 NA
ATOM     15  N   UNL     1      37.195 -24.266 -12.835  0.00  0.00    -0.269 N 
ATOM     16  C   UNL     1      39.552 -26.013 -14.796  0.00  0.00    +0.151 C 
ATOM     17  C   UNL     1      40.217 -25.839 -13.447  0.00  0.00    +0.233 C 
ATOM     18  C   UNL     1      38.205 -24.932 -13.460  0.00  0.00    +0.284 C 
ATOM     19  C   UNL     1      39.596 -27.441 -15.305  0.00  0.00    +0.030 C 
ATOM     20  H   UNL     1      37.427 -23.825 -11.985  0.00  0.00    +0.157 HD
ENDBRANCH   4  15
BRANCH   1  22
ATOM     21 CL   UNL     1      32.354 -20.281 -20.782  0.00  0.00    -0.079 Cl
ATOM     22  C   UNL     1      34.948 -22.022 -18.292  0.00  0.00    +0.050 C 
ATOM     23  C   UNL     1      33.772 -21.628 -18.929  0.00  0.00    +0.029 C 
ATOM     24  C   UNL     1      36.178 -21.539 -18.738  0.00  0.00    +0.018 C 
ATOM     25  C   UNL     1      35.056 -20.267 -20.458  0.00  0.00    +0.150 C 
ATOM     26  C   UNL     1      33.825 -20.751 -20.012  0.00  0.00    +0.093 C 
ATOM     27  C   UNL     1      36.232 -20.661 -19.821  0.00  0.00    +0.039 C 
BRANCH  25  28
ATOM     28  O   UNL     1      35.138 -19.409 -21.514  0.00  0.00    -0.468 OA
BRANCH  28  29
ATOM     29  C   UNL     1      35.592 -18.085 -21.238  0.00  0.00    +0.257 C 
BRANCH  29  32
ATOM     30  S   UNL     1      34.671 -17.838 -23.844  0.00  0.00    -0.067 S 
ATOM     31  N   UNL     1      35.031 -15.862 -22.216  0.00  0.00    -0.237 NA
ATOM     32  C   UNL     1      35.124 -17.168 -22.330  0.00  0.00    +0.132 C 
ATOM     33  C   UNL     1      34.316 -16.258 -24.408  0.00  0.00    +0.057 C 
ATOM     34  C   UNL     1      34.568 -15.341 -23.408  0.00  0.00    +0.106 C 
ENDBRANCH  29  32
ENDBRANCH  28  29
ENDBRANCH  25  28
ENDBRANCH   1  22
TORSDOF 5
ENDMDL
MODEL 2
REMARK VINA RESULT:     -11.7      1.791      2.422
REMARK  Name = 42642648
REMARK  5 active torsions:
REMARK  status: ('A' for Active; 'I' for Inactive)
REMARK    1  A    between atoms: N_1  and  C_22
REMARK    2  A    between atoms: C_4  and  N_15
REMARK    3  A    between atoms: C_25  and  O_28
REMARK    4  A    between atoms: O_28  and  C_29
REMARK    5  A    between atoms: C_29  and  C_32
REMARK                            x       y       z     vdW  Elec       q    Type
REMARK                         _______ _______ _______ _____ _____    ______ ____
ROOT
ATOM      1  N   UNL     1      33.096 -22.983 -17.174  0.00  0.00    -0.301 N 
ATOM      2  N   UNL     1      29.598 -22.978 -14.962  0.00  0.00    -0.248 NA
ATOM      3  N   UNL     1      30.795 -22.523 -17.003  0.00  0.00    -0.233 NA
ATOM      4  C   UNL     1      33.086 -24.404 -13.178  0.00  0.00    +0.048 C 
ATOM      5  C   UNL     1      31.943 -23.462 -15.095  0.00  0.00    +0.117 C 
ATOM      6  C   UNL     1      33.118 -23.944 -14.490  0.00  0.00    +0.001 C 
ATOM      7  C   UNL     1      30.727 -23.436 -14.393  0.00  0.00    +0.067 C 
ATOM      8  C   UNL     1      31.907 -22.988 -16.403  0.00  0.00    +0.115 C 
ATOM      9  C   UNL     1      31.888 -24.383 -12.473  0.00  0.00    +0.016 C 
ATOM     10  C   UNL     1      30.725 -23.902 -13.080  0.00  0.00    +0.016 C 
ATOM     11  C   UNL     1      29.693 -22.546 -16.235  0.00  0.00    +0.251 C 
ATOM     12  H   UNL     1      33.727 -23.700 -16.936  0.00  0.00    +0.153 HD
ENDROOT
BRANCH   4  15
ATOM     13  O   UNL     1      36.470 -25.212 -12.094  0.00  0.00    -0.448 OA
ATOM     14  N   UNL     1      35.979 -23.733 -13.764  0.00  0.00    -0.222 NA
ATOM     15  N   UNL     1      34.260 -24.887 -12.566  0.00  0.00    -0.269 N 
ATOM     16  C   UNL     1      37.437 -23.717 -13.563  0.00  0.00    +0.151 C 
ATOM     17  C   UNL     1      37.717 -24.944 -12.722  0.00  0.00    +0.233 C 
ATOM     18  C   UNL     1      35.548 -24.559 -12.860  0.00  0.00    +0.284 C 
ATOM     19  C   UNL     1      38.154 -23.731 -14.899  0.00  0.00    +0.030 C 
ATOM     20  H   UNL     1      34.133 -25.540 -11.840  0.00  0.00    +0.157 HD
ENDBRANCH   4  15
BRANCH   1  22
ATOM     21 CL   UNL     1      37.059 -21.031 -19.753  0.00  0.00    -0.079 Cl
ATOM     22  C   UNL     1      33.548 -22.152 -18.213  0.00  0.00    +0.050 C 
ATOM     23  C   UNL     1      34.915 -22.012 -18.450  0.00  0.00    +0.029 C 
ATOM     24  C   UNL     1      32.628 -21.468 -19.007  0.00  0.00    +0.018 C 
ATOM     25  C   UNL     1      34.443 -20.503 -20.277  0.00  0.00    +0.150 C 
ATOM     26  C   UNL     1      35.363 -21.188 -19.482  0.00  0.00    +0.093 C 
ATOM     27  C   UNL     1      33.076 -20.643 -20.039  0.00  0.00    +0.039 C 
BRANCH  25  28
ATOM     28  O   UNL     1      34.852 -19.690 -21.292  0.00  0.00    -0.468 OA
BRANCH  28  29
ATOM     29  C   UNL     1      35.287 -18.379 -20.935  0.00  0.00    +0.257 C 
BRANCH  29  32
ATOM     30  S   UNL     1      34.700 -18.126 -23.635  0.00  0.00    -0.067 S 
ATOM     31  N   UNL     1      35.145 -16.146 -22.034  0.00  0.00    -0.237 NA
ATOM     32  C   UNL     1      35.071 -17.457 -22.099  0.00  0.00    +0.132 C 
ATOM     33  C   UNL     1      34.629 -16.540 -24.281  0.00  0.00    +0.057 C 
ATOM     34  C   UNL     1      34.892 -15.622 -23.286  0.00  0.00    +0.106 C 
ENDBRANCH  29  32
ENDBRANCH  28  29
ENDBRANCH  25  28
ENDBRANCH   1  22
TORSDOF 5
ENDMDL
MODEL 3
REMARK VINA RESULT:     -10.5      5.217      9.473
REMARK  Name = 42642648
REMARK  5 active torsions:
REMARK  status: ('A' for Active; 'I' for Inactive)
REMARK    1  A    between atoms: N_1  and  C_22
REMARK    2  A    between atoms: C_4  and  N_15
REMARK    3  A    between atoms: C_25  and  O_28
REMARK    4  A    between atoms: O_28  and  C_29
REMARK    5  A    between atoms: C_29  and  C_32
REMARK                            x       y       z     vdW  Elec       q    Type
REMARK                         _______ _______ _______ _____ _____    ______ ____
ROOT
ATOM      1  N   UNL     1      34.625 -15.017 -22.334  0.00  0.00    -0.301 N 
ATOM      2  N   UNL     1      34.027 -18.348 -24.717  0.00  0.00    -0.248 NA
ATOM      3  N   UNL     1      33.711 -16.002 -24.266  0.00  0.00    -0.233 NA
ATOM      4  C   UNL     1      36.241 -18.774 -21.210  0.00  0.00    +0.048 C 
ATOM      5  C   UNL     1      34.975 -17.383 -22.737  0.00  0.00    +0.117 C 
ATOM      6  C   UNL     1      35.723 -17.530 -21.555  0.00  0.00    +0.001 C 
ATOM      7  C   UNL     1      34.740 -18.478 -23.584  0.00  0.00    +0.067 C 
ATOM      8  C   UNL     1      34.429 -16.168 -23.139  0.00  0.00    +0.115 C 
ATOM      9  C   UNL     1      36.014 -19.866 -22.041  0.00  0.00    +0.016 C 
ATOM     10  C   UNL     1      35.270 -19.712 -23.213  0.00  0.00    +0.016 C 
ATOM     11  C   UNL     1      33.552 -17.118 -24.996  0.00  0.00    +0.251 C 
ATOM     12  H   UNL     1      35.469 -15.026 -21.828  0.00  0.00    +0.153 HD
ENDROOT
BRANCH   4  15
ATOM     13  O   UNL     1      37.778 -19.805 -18.071  0.00  0.00    -0.448 OA
ATOM     14  N   UNL     1      36.173 -21.006 -19.166  0.00  0.00    -0.222 NA
ATOM     15  N   UNL     1      36.990 -18.928 -20.027  0.00  0.00    -0.269 N 
ATOM     16  C   UNL     1      36.603 -21.789 -17.997  0.00  0.00    +0.151 C 
ATOM     17  C   UNL     1      37.378 -20.806 -17.145  0.00  0.00    +0.233 C 
ATOM     18  C   UNL     1      36.930 -19.951 -19.130  0.00  0.00    +0.284 C 
ATOM     19  C   UNL     1      35.400 -22.378 -17.285  0.00  0.00    +0.030 C 
ATOM     20  H   UNL     1      37.633 -18.211 -19.824  0.00  0.00    +0.157 HD
ENDBRANCH   4  15
BRANCH   1  22
ATOM     21 CL   UNL     1      33.157 -10.406 -23.991  0.00  0.00    -0.079 Cl
ATOM     22  C   UNL     1      33.847 -13.868 -22.120  0.00  0.00    +0.050 C 
ATOM     23  C   UNL     1      33.876 -12.824 -23.044  0.00  0.00    +0.029 C 
ATOM     24  C   UNL     1      33.045 -13.771 -20.984  0.00  0.00    +0.018 C 
ATOM     25  C   UNL     1      32.300 -11.586 -21.694  0.00  0.00    +0.150 C 
ATOM     26  C   UNL     1      33.102 -11.683 -22.833  0.00  0.00    +0.093 C 
ATOM     27  C   UNL     1      32.272 -12.630 -20.771  0.00  0.00    +0.039 C 
BRANCH  25  28
ATOM     28  O   UNL     1      31.534 -10.482 -21.461  0.00  0.00    -0.468 OA
BRANCH  28  29
ATOM     29  C   UNL     1      31.594  -9.919 -20.152  0.00  0.00    +0.257 C 
BRANCH  29  32
ATOM     30  S   UNL     1      31.888  -7.693 -21.782  0.00  0.00    -0.067 S 
ATOM     31  N   UNL     1      32.404  -7.741 -19.250  0.00  0.00    -0.237 NA
ATOM     32  C   UNL     1      31.984  -8.474 -20.257  0.00  0.00    +0.132 C 
ATOM     33  C   UNL     1      32.452  -6.249 -21.051  0.00  0.00    +0.057 C 
ATOM     34  C   UNL     1      32.672  -6.466 -19.707  0.00  0.00    +0.106 C 
ENDBRANCH  29  32
ENDBRANCH  28  29
ENDBRANCH  25  28
ENDBRANCH   1  22
TORSDOF 5
ENDMDL
MODEL 4
REMARK VINA RESULT:     -10.5      9.441     17.302
REMARK  Name = 42642648
REMARK  5 active torsions:
REMARK  status: ('A' for Active; 'I' for Inactive)
REMARK    1  A    between atoms: N_1  and  C_22
REMARK    2  A    between atoms: C_4  and  N_15
REMARK    3  A    between atoms: C_25  and  O_28
REMARK    4  A    between atoms: O_28  and  C_29
REMARK    5  A    between atoms: C_29  and  C_32
REMARK                            x       y       z     vdW  Elec       q    Type
REMARK                         _______ _______ _______ _____ _____    ______ ____
ROOT
ATOM      1  N   UNL     1      33.371  -8.668 -23.213  0.00  0.00    -0.301 N 
ATOM      2  N   UNL     1      31.874  -5.912 -20.513  0.00  0.00    -0.248 NA
ATOM      3  N   UNL     1      32.740  -8.103 -21.018  0.00  0.00    -0.233 NA
ATOM      4  C   UNL     1      32.270  -4.781 -24.505  0.00  0.00    +0.048 C 
ATOM      5  C   UNL     1      32.506  -6.447 -22.763  0.00  0.00    +0.117 C 
ATOM      6  C   UNL     1      32.639  -6.062 -24.109  0.00  0.00    +0.001 C 
ATOM      7  C   UNL     1      32.004  -5.554 -21.802  0.00  0.00    +0.067 C 
ATOM      8  C   UNL     1      32.857  -7.712 -22.301  0.00  0.00    +0.115 C 
ATOM      9  C   UNL     1      31.771  -3.888 -23.563  0.00  0.00    +0.016 C 
ATOM     10  C   UNL     1      31.641  -4.278 -22.228  0.00  0.00    +0.016 C 
ATOM     11  C   UNL     1      32.248  -7.166 -20.190  0.00  0.00    +0.251 C 
ATOM     12  H   UNL     1      33.867  -8.272 -23.965  0.00  0.00    +0.153 HD
ENDROOT
BRANCH   4  15
ATOM     13  O   UNL     1      33.341  -3.878 -27.870  0.00  0.00    -0.448 OA
ATOM     14  N   UNL     1      34.759  -4.563 -26.215  0.00  0.00    -0.222 NA
ATOM     15  N   UNL     1      32.400  -4.389 -25.853  0.00  0.00    -0.269 N 
ATOM     16  C   UNL     1      35.552  -4.382 -27.441  0.00  0.00    +0.151 C 
ATOM     17  C   UNL     1      34.643  -3.605 -28.370  0.00  0.00    +0.233 C 
ATOM     18  C   UNL     1      33.543  -4.304 -26.589  0.00  0.00    +0.284 C 
ATOM     19  C   UNL     1      36.848  -3.660 -27.130  0.00  0.00    +0.030 C 
ATOM     20  H   UNL     1      31.566  -4.148 -26.317  0.00  0.00    +0.157 HD
ENDBRANCH   4  15
BRANCH   1  22
ATOM     21 CL   UNL     1      31.972 -13.008 -20.896  0.00  0.00    -0.079 Cl
ATOM     22  C   UNL     1      33.309 -10.070 -23.250  0.00  0.00    +0.050 C 
ATOM     23  C   UNL     1      32.741 -10.771 -22.187  0.00  0.00    +0.029 C 
ATOM     24  C   UNL     1      33.816 -10.761 -24.350  0.00  0.00    +0.018 C 
ATOM     25  C   UNL     1      33.187 -12.856 -23.326  0.00  0.00    +0.150 C 
ATOM     26  C   UNL     1      32.679 -12.164 -22.225  0.00  0.00    +0.093 C 
ATOM     27  C   UNL     1      33.755 -12.154 -24.388  0.00  0.00    +0.039 C 
BRANCH  25  28
ATOM     28  O   UNL     1      33.140 -14.217 -23.389  0.00  0.00    -0.468 OA
BRANCH  28  29
ATOM     29  C   UNL     1      33.718 -14.831 -24.540  0.00  0.00    +0.257 C 
BRANCH  29  32
ATOM     30  S   UNL     1      35.091 -16.604 -22.905  0.00  0.00    -0.067 S 
ATOM     31  N   UNL     1      33.581 -17.295 -24.885  0.00  0.00    -0.237 NA
ATOM     32  C   UNL     1      34.044 -16.260 -24.221  0.00  0.00    +0.132 C 
ATOM     33  C   UNL     1      34.920 -18.277 -23.238  0.00  0.00    +0.057 C 
ATOM     34  C   UNL     1      34.084 -18.451 -24.320  0.00  0.00    +0.106 C 
ENDBRANCH  29  32
ENDBRANCH  28  29
ENDBRANCH  25  28
ENDBRANCH   1  22
TORSDOF 5
ENDMDL
MODEL 5
REMARK VINA RESULT:     -10.1     10.058     18.109
REMARK  Name = 42642648
REMARK  5 active torsions:
REMARK  status: ('A' for Active; 'I' for Inactive)
REMARK    1  A    between atoms: N_1  and  C_22
REMARK    2  A    between atoms: C_4  and  N_15
REMARK    3  A    between atoms: C_25  and  O_28
REMARK    4  A    between atoms: O_28  and  C_29
REMARK    5  A    between atoms: C_29  and  C_32
REMARK                            x       y       z     vdW  Elec       q    Type
REMARK                         _______ _______ _______ _____ _____    ______ ____
ROOT
ATOM      1  N   UNL     1      33.367  -7.533 -23.585  0.00  0.00    -0.301 N 
ATOM      2  N   UNL     1      30.966  -4.529 -22.054  0.00  0.00    -0.248 NA
ATOM      3  N   UNL     1      31.932  -6.731 -21.901  0.00  0.00    -0.233 NA
ATOM      4  C   UNL     1      32.914  -3.873 -25.681  0.00  0.00    +0.048 C 
ATOM      5  C   UNL     1      32.425  -5.307 -23.791  0.00  0.00    +0.117 C 
ATOM      6  C   UNL     1      33.081  -5.083 -25.014  0.00  0.00    +0.001 C 
ATOM      7  C   UNL     1      31.597  -4.325 -23.224  0.00  0.00    +0.067 C 
ATOM      8  C   UNL     1      32.549  -6.494 -23.074  0.00  0.00    +0.115 C 
ATOM      9  C   UNL     1      32.097  -2.893 -25.129  0.00  0.00    +0.016 C 
ATOM     10  C   UNL     1      31.448  -3.124 -23.913  0.00  0.00    +0.016 C 
ATOM     11  C   UNL     1      31.167  -5.720 -21.457  0.00  0.00    +0.251 C 
ATOM     12  H   UNL     1      34.124  -7.212 -24.125  0.00  0.00    +0.153 HD
ENDROOT
BRANCH   4  15
ATOM     13  O   UNL     1      35.220  -3.495 -28.477  0.00  0.00    -0.448 OA
ATOM     14  N   UNL     1      35.829  -4.244 -26.407  0.00  0.00    -0.222 NA
ATOM     15  N   UNL     1      33.568  -3.642 -26.907  0.00  0.00    -0.269 N 
ATOM     16  C   UNL     1      37.012  -4.319 -27.279  0.00  0.00    +0.151 C 
ATOM     17  C   UNL     1      36.641  -3.494 -28.493  0.00  0.00    +0.233 C 
ATOM     18  C   UNL     1      34.887  -3.822 -27.195  0.00  0.00    +0.284 C 
ATOM     19  C   UNL     1      38.237  -3.797 -26.553  0.00  0.00    +0.030 C 
ATOM     20  H   UNL     1      33.005  -3.311 -27.644  0.00  0.00    +0.157 HD
ENDBRANCH   4  15
BRANCH   1  22
ATOM     21 CL   UNL     1      31.313 -11.602 -21.264  0.00  0.00    -0.079 Cl
ATOM     22  C   UNL     1      33.306  -8.931 -23.467  0.00  0.00    +0.050 C 
ATOM     23  C   UNL     1      32.446  -9.515 -22.538  0.00  0.00    +0.029 C 
ATOM     24  C   UNL     1      34.106  -9.733 -24.279  0.00  0.00    +0.018 C 
ATOM     25  C   UNL     1      33.186 -11.708 -23.235  0.00  0.00    +0.150 C 
ATOM     26  C   UNL     1      32.385 -10.904 -22.422  0.00  0.00    +0.093 C 
ATOM     27  C   UNL     1      34.046 -11.122 -24.163  0.00  0.00    +0.039 C 
BRANCH  25  28
ATOM     28  O   UNL     1      33.148 -13.067 -23.142  0.00  0.00    -0.468 OA
BRANCH  28  29
ATOM     29  C   UNL     1      33.218 -13.801 -24.364  0.00  0.00    +0.257 C 
BRANCH  29  32
ATOM     30  S   UNL     1      34.686 -15.376 -22.612  0.00  0.00    -0.067 S 
ATOM     31  N   UNL     1      33.872 -16.134 -24.946  0.00  0.00    -0.237 NA
ATOM     32  C   UNL     1      33.872 -15.126 -24.103  0.00  0.00    +0.132 C 
ATOM     33  C   UNL     1      35.077 -16.965 -23.121  0.00  0.00    +0.057 C 
ATOM     34  C   UNL     1      34.563 -17.189 -24.381  0.00  0.00    +0.106 C 
ENDBRANCH  29  32
ENDBRANCH  28  29
ENDBRANCH  25  28
ENDBRANCH   1  22
TORSDOF 5
ENDMDL
MODEL 6
REMARK VINA RESULT:     -10.1      9.854     18.350
REMARK  Name = 42642648
REMARK  5 active torsions:
REMARK  status: ('A' for Active; 'I' for Inactive)
REMARK    1  A    between atoms: N_1  and  C_22
REMARK    2  A    between atoms: C_4  and  N_15
REMARK    3  A    between atoms: C_25  and  O_28
REMARK    4  A    between atoms: O_28  and  C_29
REMARK    5  A    between atoms: C_29  and  C_32
REMARK                            x       y       z     vdW  Elec       q    Type
REMARK                         _______ _______ _______ _____ _____    ______ ____
ROOT
ATOM      1  N   UNL     1      33.513  -8.027 -23.190  0.00  0.00    -0.301 N 
ATOM      2  N   UNL     1      31.534  -5.158 -20.958  0.00  0.00    -0.248 NA
ATOM      3  N   UNL     1      32.412  -7.387 -21.211  0.00  0.00    -0.233 NA
ATOM      4  C   UNL     1      32.883  -4.141 -24.769  0.00  0.00    +0.048 C 
ATOM      5  C   UNL     1      32.649  -5.769 -22.990  0.00  0.00    +0.117 C 
ATOM      6  C   UNL     1      33.104  -5.423 -24.276  0.00  0.00    +0.001 C 
ATOM      7  C   UNL     1      31.972  -4.837 -22.188  0.00  0.00    +0.067 C 
ATOM      8  C   UNL     1      32.837  -7.033 -22.439  0.00  0.00    +0.115 C 
ATOM      9  C   UNL     1      32.213  -3.210 -23.984  0.00  0.00    +0.016 C 
ATOM     10  C   UNL     1      31.764  -3.562 -22.708  0.00  0.00    +0.016 C 
ATOM     11  C   UNL     1      31.777  -6.415 -20.536  0.00  0.00    +0.251 C 
ATOM     12  H   UNL     1      34.184  -7.666 -23.813  0.00  0.00    +0.153 HD
ENDROOT
BRANCH   4  15
ATOM     13  O   UNL     1      33.380  -2.895 -28.158  0.00  0.00    -0.448 OA
ATOM     14  N   UNL     1      31.497  -2.523 -26.919  0.00  0.00    -0.222 NA
ATOM     15  N   UNL     1      33.335  -3.788 -26.056  0.00  0.00    -0.269 N 
ATOM     16  C   UNL     1      31.356  -1.787 -28.186  0.00  0.00    +0.151 C 
ATOM     17  C   UNL     1      32.441  -2.354 -29.077  0.00  0.00    +0.233 C 
ATOM     18  C   UNL     1      32.679  -3.055 -26.998  0.00  0.00    +0.284 C 
ATOM     19  C   UNL     1      29.961  -1.971 -28.751  0.00  0.00    +0.030 C 
ATOM     20  H   UNL     1      34.232  -4.110 -26.304  0.00  0.00    +0.157 HD
ENDBRANCH   4  15
BRANCH   1  22
ATOM     21 CL   UNL     1      31.550 -12.269 -21.112  0.00  0.00    -0.079 Cl
ATOM     22  C   UNL     1      33.410  -9.427 -23.216  0.00  0.00    +0.050 C 
ATOM     23  C   UNL     1      32.627 -10.087 -22.270  0.00  0.00    +0.029 C 
ATOM     24  C   UNL     1      34.091 -10.157 -24.189  0.00  0.00    +0.018 C 
ATOM     25  C   UNL     1      33.206 -12.209 -23.270  0.00  0.00    +0.150 C 
ATOM     26  C   UNL     1      32.524 -11.478 -22.296  0.00  0.00    +0.093 C 
ATOM     27  C   UNL     1      33.989 -11.548 -24.216  0.00  0.00    +0.039 C 
BRANCH  25  28
ATOM     28  O   UNL     1      33.125 -13.569 -23.320  0.00  0.00    -0.468 OA
BRANCH  28  29
ATOM     29  C   UNL     1      33.484 -14.193 -24.551  0.00  0.00    +0.257 C 
BRANCH  29  32
ATOM     30  S   UNL     1      34.941 -15.888 -22.906  0.00  0.00    -0.067 S 
ATOM     31  N   UNL     1      33.642 -16.638 -25.011  0.00  0.00    -0.237 NA
ATOM     32  C   UNL     1      33.946 -15.594 -24.273  0.00  0.00    +0.132 C 
ATOM     33  C   UNL     1      34.977 -17.551 -23.322  0.00  0.00    +0.057 C 
ATOM     34  C   UNL     1      34.235 -17.760 -24.465  0.00  0.00    +0.106 C 
ENDBRANCH  29  32
ENDBRANCH  28  29
ENDBRANCH  25  28
ENDBRANCH   1  22
TORSDOF 5
ENDMDL
MODEL 7
REMARK VINA RESULT:      -9.9      2.166      4.498
REMARK  Name = 42642648
REMARK  5 active torsions:
REMARK  status: ('A' for Active; 'I' for Inactive)
REMARK    1  A    between atoms: N_1  and  C_22
REMARK    2  A    between atoms: C_4  and  N_15
REMARK    3  A    between atoms: C_25  and  O_28
REMARK    4  A    between atoms: O_28  and  C_29
REMARK    5  A    between atoms: C_29  and  C_32
REMARK                            x       y       z     vdW  Elec       q    Type
REMARK                         _______ _______ _______ _____ _____    ______ ____
ROOT
ATOM      1  N   UNL     1      35.902 -22.170 -16.265  0.00  0.00    -0.301 N 
ATOM      2  N   UNL     1      38.946 -24.386 -14.545  0.00  0.00    -0.248 NA
ATOM      3  N   UNL     1      38.173 -22.778 -16.165  0.00  0.00    -0.233 NA
ATOM      4  C   UNL     1      35.077 -24.815 -13.053  0.00  0.00    +0.048 C 
ATOM      5  C   UNL     1      36.624 -23.793 -14.613  0.00  0.00    +0.117 C 
ATOM      6  C   UNL     1      35.319 -23.940 -14.107  0.00  0.00    +0.001 C 
ATOM      7  C   UNL     1      37.695 -24.519 -14.069  0.00  0.00    +0.067 C 
ATOM      8  C   UNL     1      36.933 -22.936 -15.665  0.00  0.00    +0.115 C 
ATOM      9  C   UNL     1      36.130 -25.540 -12.507  0.00  0.00    +0.016 C 
ATOM     10  C   UNL     1      37.423 -25.389 -13.015  0.00  0.00    +0.016 C 
ATOM     11  C   UNL     1      39.117 -23.523 -15.567  0.00  0.00    +0.251 C 
ATOM     12  H   UNL     1      35.171 -21.937 -15.649  0.00  0.00    +0.153 HD
ENDROOT
BRANCH   4  15
ATOM     13  O   UNL     1      31.492 -24.974 -12.415  0.00  0.00    -0.448 OA
ATOM     14  N   UNL     1      32.411 -24.360 -14.414  0.00  0.00    -0.222 NA
ATOM     15  N   UNL     1      33.773 -24.967 -12.542  0.00  0.00    -0.269 N 
ATOM     16  C   UNL     1      30.949 -24.389 -14.580  0.00  0.00    +0.151 C 
ATOM     17  C   UNL     1      30.408 -24.448 -13.167  0.00  0.00    +0.233 C 
ATOM     18  C   UNL     1      32.594 -24.751 -13.189  0.00  0.00    +0.284 C 
ATOM     19  C   UNL     1      30.481 -23.169 -15.349  0.00  0.00    +0.030 C 
ATOM     20  H   UNL     1      33.706 -25.264 -11.605  0.00  0.00    +0.157 HD
ENDBRANCH   4  15
BRANCH   1  22
ATOM     21 CL   UNL     1      32.684 -21.142 -20.105  0.00  0.00    -0.079 Cl
ATOM     22  C   UNL     1      35.723 -21.680 -17.569  0.00  0.00    +0.050 C 
ATOM     23  C   UNL     1      34.449 -21.652 -18.134  0.00  0.00    +0.029 C 
ATOM     24  C   UNL     1      36.820 -21.222 -18.297  0.00  0.00    +0.018 C 
ATOM     25  C   UNL     1      35.369 -20.706 -20.159  0.00  0.00    +0.150 C 
ATOM     26  C   UNL     1      34.271 -21.165 -19.429  0.00  0.00    +0.093 C 
ATOM     27  C   UNL     1      36.643 -20.735 -19.592  0.00  0.00    +0.039 C 
BRANCH  25  28
ATOM     28  O   UNL     1      35.225 -20.226 -21.426  0.00  0.00    -0.468 OA
BRANCH  28  29
ATOM     29  C   UNL     1      35.843 -18.973 -21.716  0.00  0.00    +0.257 C 
BRANCH  29  32
ATOM     30  S   UNL     1      35.170 -16.599 -22.988  0.00  0.00    -0.067 S 
ATOM     31  N   UNL     1      34.377 -18.944 -23.732  0.00  0.00    -0.237 NA
ATOM     32  C   UNL     1      35.098 -18.307 -22.836  0.00  0.00    +0.132 C 
ATOM     33  C   UNL     1      34.156 -16.704 -24.366  0.00  0.00    +0.057 C 
ATOM     34  C   UNL     1      33.837 -18.024 -24.609  0.00  0.00    +0.106 C 
ENDBRANCH  29  32
ENDBRANCH  28  29
ENDBRANCH  25  28
ENDBRANCH   1  22
TORSDOF 5
ENDMDL
MODEL 8
REMARK VINA RESULT:      -9.5      9.358     17.275
REMARK  Name = 42642648
REMARK  5 active torsions:
REMARK  status: ('A' for Active; 'I' for Inactive)
REMARK    1  A    between atoms: N_1  and  C_22
REMARK    2  A    between atoms: C_4  and  N_15
REMARK    3  A    between atoms: C_25  and  O_28
REMARK    4  A    between atoms: O_28  and  C_29
REMARK    5  A    between atoms: C_29  and  C_32
REMARK                            x       y       z     vdW  Elec       q    Type
REMARK                         _______ _______ _______ _____ _____    ______ ____
ROOT
ATOM      1  N   UNL     1      33.944  -9.331 -23.544  0.00  0.00    -0.301 N 
ATOM      2  N   UNL     1      31.205  -6.582 -22.105  0.00  0.00    -0.248 NA
ATOM      3  N   UNL     1      32.058  -8.832 -22.228  0.00  0.00    -0.233 NA
ATOM      4  C   UNL     1      34.197  -5.254 -24.685  0.00  0.00    +0.048 C 
ATOM      5  C   UNL     1      33.129  -7.048 -23.457  0.00  0.00    +0.117 C 
ATOM      6  C   UNL     1      34.138  -6.596 -24.327  0.00  0.00    +0.001 C 
ATOM      7  C   UNL     1      32.172  -6.161 -22.938  0.00  0.00    +0.067 C 
ATOM      8  C   UNL     1      33.014  -8.377 -23.060  0.00  0.00    +0.115 C 
ATOM      9  C   UNL     1      33.255  -4.366 -24.178  0.00  0.00    +0.016 C 
ATOM     10  C   UNL     1      32.256  -4.822 -23.315  0.00  0.00    +0.016 C 
ATOM     11  C   UNL     1      31.199  -7.894 -21.796  0.00  0.00    +0.251 C 
ATOM     12  H   UNL     1      34.834  -8.957 -23.731  0.00  0.00    +0.153 HD
ENDROOT
BRANCH   4  15
ATOM     13  O   UNL     1      36.240  -4.011 -27.435  0.00  0.00    -0.448 OA
ATOM     14  N   UNL     1      33.981  -4.328 -27.559  0.00  0.00    -0.222 NA
ATOM     15  N   UNL     1      35.205  -4.795 -25.557  0.00  0.00    -0.269 N 
ATOM     16  C   UNL     1      34.423  -3.734 -28.831  0.00  0.00    +0.151 C 
ATOM     17  C   UNL     1      35.930  -3.883 -28.816  0.00  0.00    +0.233 C 
ATOM     18  C   UNL     1      35.066  -4.386 -26.849  0.00  0.00    +0.284 C 
ATOM     19  C   UNL     1      33.764  -4.439 -30.000  0.00  0.00    +0.030 C 
ATOM     20  H   UNL     1      36.118  -4.768 -25.189  0.00  0.00    +0.157 HD
ENDBRANCH   4  15
BRANCH   1  22
ATOM     21 CL   UNL     1      33.505 -13.060 -27.017  0.00  0.00    -0.079 Cl
ATOM     22  C   UNL     1      33.839 -10.706 -23.806  0.00  0.00    +0.050 C 
ATOM     23  C   UNL     1      33.736 -11.159 -25.121  0.00  0.00    +0.029 C 
ATOM     24  C   UNL     1      33.839 -11.618 -22.752  0.00  0.00    +0.018 C 
ATOM     25  C   UNL     1      33.632 -13.439 -24.326  0.00  0.00    +0.150 C 
ATOM     26  C   UNL     1      33.633 -12.526 -25.382  0.00  0.00    +0.093 C 
ATOM     27  C   UNL     1      33.736 -12.985 -23.012  0.00  0.00    +0.039 C 
BRANCH  25  28
ATOM     28  O   UNL     1      33.532 -14.780 -24.551  0.00  0.00    -0.468 OA
BRANCH  28  29
ATOM     29  C   UNL     1      34.732 -15.545 -24.444  0.00  0.00    +0.257 C 
BRANCH  29  32
ATOM     30  S   UNL     1      35.166 -17.872 -22.997  0.00  0.00    -0.067 S 
ATOM     31  N   UNL     1      33.485 -17.644 -24.947  0.00  0.00    -0.237 NA
ATOM     32  C   UNL     1      34.376 -16.988 -24.237  0.00  0.00    +0.132 C 
ATOM     33  C   UNL     1      34.250 -19.254 -23.432  0.00  0.00    +0.057 C 
ATOM     34  C   UNL     1      33.414 -18.943 -24.485  0.00  0.00    +0.106 C 
ENDBRANCH  29  32
ENDBRANCH  28  29
ENDBRANCH  25  28
ENDBRANCH   1  22
TORSDOF 5
ENDMDL
MODEL 9
REMARK VINA RESULT:      -9.2     12.750     16.263
REMARK  Name = 42642648
REMARK  5 active torsions:
REMARK  status: ('A' for Active; 'I' for Inactive)
REMARK    1  A    between atoms: N_1  and  C_22
REMARK    2  A    between atoms: C_4  and  N_15
REMARK    3  A    between atoms: C_25  and  O_28
REMARK    4  A    between atoms: O_28  and  C_29
REMARK    5  A    between atoms: C_29  and  C_32
REMARK                            x       y       z     vdW  Elec       q    Type
REMARK                         _______ _______ _______ _____ _____    ______ ____
ROOT
ATOM      1  N   UNL     1      32.465  -7.342 -23.069  0.00  0.00    -0.301 N 
ATOM      2  N   UNL     1      31.930  -7.374 -18.965  0.00  0.00    -0.248 NA
ATOM      3  N   UNL     1      32.215  -6.180 -21.038  0.00  0.00    -0.233 NA
ATOM      4  C   UNL     1      32.145 -11.018 -20.977  0.00  0.00    +0.048 C 
ATOM      5  C   UNL     1      32.181  -8.596 -21.012  0.00  0.00    +0.117 C 
ATOM      6  C   UNL     1      32.252  -9.827 -21.688  0.00  0.00    +0.001 C 
ATOM      7  C   UNL     1      32.000  -8.545 -19.621  0.00  0.00    +0.067 C 
ATOM      8  C   UNL     1      32.281  -7.371 -21.664  0.00  0.00    +0.115 C 
ATOM      9  C   UNL     1      31.966 -10.980 -19.599  0.00  0.00    +0.016 C 
ATOM     10  C   UNL     1      31.897  -9.753 -18.934  0.00  0.00    +0.016 C 
ATOM     11  C   UNL     1      32.041  -6.255 -19.708  0.00  0.00    +0.251 C 
ATOM     12  H   UNL     1      32.061  -8.108 -23.537  0.00  0.00    +0.153 HD
ENDROOT
BRANCH   4  15
ATOM     13  O   UNL     1      32.691 -13.821 -23.241  0.00  0.00    -0.448 OA
ATOM     14  N   UNL     1      33.421 -11.693 -23.638  0.00  0.00    -0.222 NA
ATOM     15  N   UNL     1      32.216 -12.255 -21.649  0.00  0.00    -0.269 N 
ATOM     16  C   UNL     1      33.913 -12.549 -24.729  0.00  0.00    +0.151 C 
ATOM     17  C   UNL     1      33.114 -13.828 -24.598  0.00  0.00    +0.233 C 
ATOM     18  C   UNL     1      32.802 -12.519 -22.849  0.00  0.00    +0.284 C 
ATOM     19  C   UNL     1      33.724 -11.860 -26.066  0.00  0.00    +0.030 C 
ATOM     20  H   UNL     1      31.791 -13.020 -21.196  0.00  0.00    +0.157 HD
ENDBRANCH   4  15
BRANCH   1  22
ATOM     21 CL   UNL     1      32.058  -3.449 -26.361  0.00  0.00    -0.079 Cl
ATOM     22  C   UNL     1      33.111  -6.432 -23.921  0.00  0.00    +0.050 C 
ATOM     23  C   UNL     1      32.364  -5.498 -24.639  0.00  0.00    +0.029 C 
ATOM     24  C   UNL     1      34.498  -6.463 -24.050  0.00  0.00    +0.018 C 
ATOM     25  C   UNL     1      34.395  -4.624 -25.614  0.00  0.00    +0.150 C 
ATOM     26  C   UNL     1      33.006  -4.593 -25.485  0.00  0.00    +0.093 C 
ATOM     27  C   UNL     1      35.141  -5.559 -24.897  0.00  0.00    +0.039 C 
BRANCH  25  28
ATOM     28  O   UNL     1      35.049  -3.753 -26.434  0.00  0.00    -0.468 OA
BRANCH  28  29
ATOM     29  C   UNL     1      35.528  -4.269 -27.675  0.00  0.00    +0.257 C 
BRANCH  29  32
ATOM     30  S   UNL     1      37.846  -5.298 -28.800  0.00  0.00    -0.067 S 
ATOM     31  N   UNL     1      37.775  -3.758 -26.726  0.00  0.00    -0.237 NA
ATOM     32  C   UNL     1      37.025  -4.358 -27.623  0.00  0.00    +0.132 C 
ATOM     33  C   UNL     1      39.335  -4.877 -28.062  0.00  0.00    +0.057 C 
ATOM     34  C   UNL     1      39.100  -4.057 -26.978  0.00  0.00    +0.106 C 
ENDBRANCH  29  32
ENDBRANCH  28  29
ENDBRANCH  25  28
ENDBRANCH   1  22
TORSDOF 5
ENDMDL
