MODEL 1
REMARK VINA RESULT:     -12.6      0.000      0.000
REMARK  Name = 25025505
REMARK  6 active torsions:
REMARK  status: ('A' for Active; 'I' for Inactive)
REMARK    1  A    between atoms: C_3  and  C_9
REMARK    2  A    between atoms: C_4  and  C_20
REMARK    3  A    between atoms: C_17  and  C_18
REMARK    4  A    between atoms: C_20  and  O_21
REMARK    5  A    between atoms: O_21  and  C_22
REMARK    6  A    between atoms: C_25  and  N_28
REMARK                            x       y       z     vdW  Elec       q    Type
REMARK                         _______ _______ _______ _____ _____    ______ ____
ROOT
ATOM      1  S   UNL     1      36.265 -23.974 -14.696  0.00  0.00    -0.079 S 
ATOM      2  N   UNL     1      33.717 -23.672 -15.013  0.00  0.00    -0.404 NA
ATOM      3  C   UNL     1      34.879 -23.550 -15.615  0.00  0.00    +0.134 C 
ATOM      4  C   UNL     1      33.927 -24.135 -13.729  0.00  0.00    +0.142 C 
ATOM      5  C   UNL     1      35.241 -24.357 -13.375  0.00  0.00    +0.122 C 
ENDROOT
BRANCH   3   9
ATOM      6  N   UNL     1      35.084 -21.105 -19.171  0.00  0.00    -0.253 N 
ATOM      7  N   UNL     1      36.203 -19.373 -20.268  0.00  0.00    -0.203 NA
ATOM      8  N   UNL     1      34.126 -20.248 -21.121  0.00  0.00    -0.181 NA
ATOM      9  C   UNL     1      35.059 -23.067 -17.043  0.00  0.00    +0.062 C 
ATOM     10  C   UNL     1      33.759 -22.496 -17.628  0.00  0.00    +0.030 C 
ATOM     11  C   UNL     1      36.178 -22.022 -17.162  0.00  0.00    +0.030 C 
ATOM     12  C   UNL     1      33.953 -22.035 -19.073  0.00  0.00    +0.102 C 
ATOM     13  C   UNL     1      36.361 -21.569 -18.611  0.00  0.00    +0.102 C 
ATOM     14  C   UNL     1      35.141 -20.200 -20.237  0.00  0.00    +0.090 C 
ATOM     15  C   UNL     1      36.225 -18.513 -21.308  0.00  0.00    +0.161 C 
ATOM     16  C   UNL     1      34.212 -19.361 -22.135  0.00  0.00    +0.104 C 
ATOM     17  C   UNL     1      35.248 -18.461 -22.280  0.00  0.00    +0.001 C 
BRANCH  17  18
ATOM     18  C   UNL     1      35.308 -17.501 -23.408  0.00  0.00    +0.026 C 
ATOM     19  C   UNL     1      34.941 -16.076 -22.990  0.00  0.00    +0.005 C 
ENDBRANCH  17  18
ENDBRANCH   3   9
BRANCH   4  20
ATOM     20  C   UNL     1      32.753 -24.349 -12.860  0.00  0.00    +0.260 C 
BRANCH  20  21
ATOM     21  O   UNL     1      31.822 -25.218 -13.503  0.00  0.00    -0.468 OA
BRANCH  21  22
ATOM     22  C   UNL     1      30.772 -24.623 -14.147  0.00  0.00    +0.139 C 
ATOM     23  C   UNL     1      29.996 -25.356 -15.045  0.00  0.00    +0.038 C 
ATOM     24  C   UNL     1      30.476 -23.281 -13.906  0.00  0.00    +0.038 C 
ATOM     25  C   UNL     1      28.632 -23.408 -15.460  0.00  0.00    +0.078 C 
ATOM     26  C   UNL     1      28.926 -24.749 -15.702  0.00  0.00    +0.020 C 
ATOM     27  C   UNL     1      29.407 -22.673 -14.562  0.00  0.00    +0.020 C 
BRANCH  25  28
ATOM     28  N   UNL     1      27.571 -22.805 -16.112  0.00  0.00    -0.149 N 
ATOM     29  N   UNL     1      27.436 -22.836 -17.445  0.00  0.00    -0.048 NA
ATOM     30  N   UNL     1      25.747 -21.708 -16.526  0.00  0.00    -0.107 NA
ATOM     31  N   UNL     1      26.319 -22.163 -17.693  0.00  0.00    -0.024 NA
ATOM     32  C   UNL     1      26.537 -22.116 -15.560  0.00  0.00    +0.215 C 
ENDBRANCH  25  28
ENDBRANCH  21  22
ENDBRANCH  20  21
ENDBRANCH   4  20
TORSDOF 6
ENDMDL
MODEL 2
REMARK VINA RESULT:     -12.0      6.628     10.682
REMARK  Name = 25025505
REMARK  6 active torsions:
REMARK  status: ('A' for Active; 'I' for Inactive)
REMARK    1  A    between atoms: C_3  and  C_9
REMARK    2  A    between atoms: C_4  and  C_20
REMARK    3  A    between atoms: C_17  and  C_18
REMARK    4  A    between atoms: C_20  and  O_21
REMARK    5  A    between atoms: O_21  and  C_22
REMARK    6  A    between atoms: C_25  and  N_28
REMARK                            x       y       z     vdW  Elec       q    Type
REMARK                         _______ _______ _______ _____ _____    ______ ____
ROOT
ATOM      1  S   UNL     1      33.896 -15.694 -24.788  0.00  0.00    -0.079 S 
ATOM      2  N   UNL     1      34.468 -15.335 -22.293  0.00  0.00    -0.404 NA
ATOM      3  C   UNL     1      33.876 -14.788 -23.331  0.00  0.00    +0.134 C 
ATOM      4  C   UNL     1      34.979 -16.563 -22.667  0.00  0.00    +0.142 C 
ATOM      5  C   UNL     1      34.768 -16.929 -23.980  0.00  0.00    +0.122 C 
ENDROOT
BRANCH   3   9
ATOM      6  N   UNL     1      32.939 -10.625 -22.661  0.00  0.00    -0.253 N 
ATOM      7  N   UNL     1      33.505  -8.410 -23.143  0.00  0.00    -0.203 NA
ATOM      8  N   UNL     1      31.891  -8.936 -21.433  0.00  0.00    -0.181 NA
ATOM      9  C   UNL     1      33.193 -13.433 -23.313  0.00  0.00    +0.062 C 
ATOM     10  C   UNL     1      32.879 -12.963 -21.886  0.00  0.00    +0.030 C 
ATOM     11  C   UNL     1      34.019 -12.360 -24.038  0.00  0.00    +0.030 C 
ATOM     12  C   UNL     1      32.171 -11.607 -21.887  0.00  0.00    +0.102 C 
ATOM     13  C   UNL     1      33.300 -11.011 -24.032  0.00  0.00    +0.102 C 
ATOM     14  C   UNL     1      32.770  -9.260 -22.401  0.00  0.00    +0.090 C 
ATOM     15  C   UNL     1      33.319  -7.103 -22.864  0.00  0.00    +0.161 C 
ATOM     16  C   UNL     1      31.754  -7.613 -21.207  0.00  0.00    +0.104 C 
ATOM     17  C   UNL     1      32.449  -6.641 -21.898  0.00  0.00    +0.001 C 
BRANCH  17  18
ATOM     18  C   UNL     1      32.272  -5.196 -21.622  0.00  0.00    +0.026 C 
ATOM     19  C   UNL     1      30.805  -4.808 -21.425  0.00  0.00    +0.005 C 
ENDBRANCH  17  18
ENDBRANCH   3   9
BRANCH   4  20
ATOM     20  C   UNL     1      35.693 -17.364 -21.653  0.00  0.00    +0.260 C 
BRANCH  20  21
ATOM     21  O   UNL     1      35.662 -18.744 -22.011  0.00  0.00    -0.468 OA
BRANCH  21  22
ATOM     22  C   UNL     1      35.322 -19.626 -21.023  0.00  0.00    +0.139 C 
ATOM     23  C   UNL     1      33.981 -19.935 -20.793  0.00  0.00    +0.038 C 
ATOM     24  C   UNL     1      36.316 -20.217 -20.243  0.00  0.00    +0.038 C 
ATOM     25  C   UNL     1      34.628 -21.424 -19.005  0.00  0.00    +0.078 C 
ATOM     26  C   UNL     1      33.634 -20.834 -19.784  0.00  0.00    +0.020 C 
ATOM     27  C   UNL     1      35.970 -21.116 -19.234  0.00  0.00    +0.020 C 
BRANCH  25  28
ATOM     28  N   UNL     1      34.285 -22.315 -18.005  0.00  0.00    -0.149 N 
ATOM     29  N   UNL     1      35.187 -22.818 -17.151  0.00  0.00    -0.048 NA
ATOM     30  N   UNL     1      33.161 -23.628 -16.695  0.00  0.00    -0.107 NA
ATOM     31  N   UNL     1      34.494 -23.620 -16.352  0.00  0.00    -0.024 NA
ATOM     32  C   UNL     1      33.053 -22.814 -17.719  0.00  0.00    +0.215 C 
ENDBRANCH  25  28
ENDBRANCH  21  22
ENDBRANCH  20  21
ENDBRANCH   4  20
TORSDOF 6
ENDMDL
MODEL 3
REMARK VINA RESULT:     -11.7      4.770     10.522
REMARK  Name = 25025505
REMARK  6 active torsions:
REMARK  status: ('A' for Active; 'I' for Inactive)
REMARK    1  A    between atoms: C_3  and  C_9
REMARK    2  A    between atoms: C_4  and  C_20
REMARK    3  A    between atoms: C_17  and  C_18
REMARK    4  A    between atoms: C_20  and  O_21
REMARK    5  A    between atoms: O_21  and  C_22
REMARK    6  A    between atoms: C_25  and  N_28
REMARK                            x       y       z     vdW  Elec       q    Type
REMARK                         _______ _______ _______ _____ _____    ______ ____
ROOT
ATOM      1  S   UNL     1      36.819 -19.097 -20.740  0.00  0.00    -0.079 S 
ATOM      2  N   UNL     1      34.592 -19.489 -21.993  0.00  0.00    -0.404 NA
ATOM      3  C   UNL     1      35.339 -19.925 -21.004  0.00  0.00    +0.134 C 
ATOM      4  C   UNL     1      35.228 -18.420 -22.594  0.00  0.00    +0.142 C 
ATOM      5  C   UNL     1      36.446 -18.062 -22.054  0.00  0.00    +0.122 C 
ENDROOT
BRANCH   3   9
ATOM      6  N   UNL     1      34.111 -22.341 -17.640  0.00  0.00    -0.253 N 
ATOM      7  N   UNL     1      32.355 -22.926 -16.214  0.00  0.00    -0.203 NA
ATOM      8  N   UNL     1      34.611 -23.646 -15.768  0.00  0.00    -0.181 NA
ATOM      9  C   UNL     1      34.975 -21.091 -20.103  0.00  0.00    +0.062 C 
ATOM     10  C   UNL     1      35.900 -21.188 -18.881  0.00  0.00    +0.030 C 
ATOM     11  C   UNL     1      33.513 -21.027 -19.637  0.00  0.00    +0.030 C 
ATOM     12  C   UNL     1      35.533 -22.381 -17.996  0.00  0.00    +0.102 C 
ATOM     13  C   UNL     1      33.160 -22.225 -18.755  0.00  0.00    +0.102 C 
ATOM     14  C   UNL     1      33.671 -23.003 -16.487  0.00  0.00    +0.090 C 
ATOM     15  C   UNL     1      31.967 -23.573 -15.096  0.00  0.00    +0.161 C 
ATOM     16  C   UNL     1      34.153 -24.271 -14.664  0.00  0.00    +0.104 C 
ATOM     17  C   UNL     1      32.830 -24.268 -14.273  0.00  0.00    +0.001 C 
BRANCH  17  18
ATOM     18  C   UNL     1      32.364 -24.968 -13.052  0.00  0.00    +0.026 C 
ATOM     19  C   UNL     1      30.839 -25.039 -12.959  0.00  0.00    +0.005 C 
ENDBRANCH  17  18
ENDBRANCH   3   9
BRANCH   4  20
ATOM     20  C   UNL     1      34.567 -17.765 -23.740  0.00  0.00    +0.260 C 
BRANCH  20  21
ATOM     21  O   UNL     1      35.167 -16.494 -23.988  0.00  0.00    -0.468 OA
BRANCH  21  22
ATOM     22  C   UNL     1      34.496 -15.398 -23.519  0.00  0.00    +0.139 C 
ATOM     23  C   UNL     1      33.700 -14.645 -24.383  0.00  0.00    +0.038 C 
ATOM     24  C   UNL     1      34.607 -15.033 -22.178  0.00  0.00    +0.038 C 
ATOM     25  C   UNL     1      33.128 -13.163 -22.564  0.00  0.00    +0.078 C 
ATOM     26  C   UNL     1      33.016 -13.527 -23.905  0.00  0.00    +0.020 C 
ATOM     27  C   UNL     1      33.923 -13.916 -21.699  0.00  0.00    +0.020 C 
BRANCH  25  28
ATOM     28  N   UNL     1      32.450 -12.054 -22.090  0.00  0.00    -0.149 N 
ATOM     29  N   UNL     1      32.488 -10.869 -22.713  0.00  0.00    -0.048 NA
ATOM     30  N   UNL     1      31.213 -10.738 -20.889  0.00  0.00    -0.107 NA
ATOM     31  N   UNL     1      31.730 -10.068 -21.975  0.00  0.00    -0.024 NA
ATOM     32  C   UNL     1      31.671 -11.966 -20.980  0.00  0.00    +0.215 C 
ENDBRANCH  25  28
ENDBRANCH  21  22
ENDBRANCH  20  21
ENDBRANCH   4  20
TORSDOF 6
ENDMDL
MODEL 4
REMARK VINA RESULT:     -11.2      4.624     10.700
REMARK  Name = 25025505
REMARK  6 active torsions:
REMARK  status: ('A' for Active; 'I' for Inactive)
REMARK    1  A    between atoms: C_3  and  C_9
REMARK    2  A    between atoms: C_4  and  C_20
REMARK    3  A    between atoms: C_17  and  C_18
REMARK    4  A    between atoms: C_20  and  O_21
REMARK    5  A    between atoms: O_21  and  C_22
REMARK    6  A    between atoms: C_25  and  N_28
REMARK                            x       y       z     vdW  Elec       q    Type
REMARK                         _______ _______ _______ _____ _____    ______ ____
ROOT
ATOM      1  S   UNL     1      37.230 -19.050 -20.676  0.00  0.00    -0.079 S 
ATOM      2  N   UNL     1      34.921 -19.838 -21.531  0.00  0.00    -0.404 NA
ATOM      3  C   UNL     1      35.858 -20.081 -20.643  0.00  0.00    +0.134 C 
ATOM      4  C   UNL     1      35.306 -18.757 -22.300  0.00  0.00    +0.142 C 
ATOM      5  C   UNL     1      36.526 -18.197 -21.987  0.00  0.00    +0.122 C 
ENDROOT
BRANCH   3   9
ATOM      6  N   UNL     1      35.350 -22.328 -16.989  0.00  0.00    -0.253 N 
ATOM      7  N   UNL     1      33.837 -23.106 -15.388  0.00  0.00    -0.203 NA
ATOM      8  N   UNL     1      36.214 -23.299 -15.048  0.00  0.00    -0.181 NA
ATOM      9  C   UNL     1      35.798 -21.196 -19.614  0.00  0.00    +0.062 C 
ATOM     10  C   UNL     1      36.786 -20.972 -18.461  0.00  0.00    +0.030 C 
ATOM     11  C   UNL     1      34.382 -21.383 -19.048  0.00  0.00    +0.030 C 
ATOM     12  C   UNL     1      36.728 -22.114 -17.445  0.00  0.00    +0.102 C 
ATOM     13  C   UNL     1      34.338 -22.528 -18.036  0.00  0.00    +0.102 C 
ATOM     14  C   UNL     1      35.123 -22.941 -15.750  0.00  0.00    +0.090 C 
ATOM     15  C   UNL     1      33.655 -23.698 -14.189  0.00  0.00    +0.161 C 
ATOM     16  C   UNL     1      35.959 -23.885 -13.859  0.00  0.00    +0.104 C 
ATOM     17  C   UNL     1      34.688 -24.111 -13.373  0.00  0.00    +0.001 C 
BRANCH  17  18
ATOM     18  C   UNL     1      34.446 -24.758 -12.061  0.00  0.00    +0.026 C 
ATOM     19  C   UNL     1      35.655 -24.668 -11.128  0.00  0.00    +0.005 C 
ENDBRANCH  17  18
ENDBRANCH   3   9
BRANCH   4  20
ATOM     20  C   UNL     1      34.398 -18.301 -23.372  0.00  0.00    +0.260 C 
BRANCH  20  21
ATOM     21  O   UNL     1      34.989 -17.212 -24.080  0.00  0.00    -0.468 OA
BRANCH  21  22
ATOM     22  C   UNL     1      34.507 -15.964 -23.797  0.00  0.00    +0.139 C 
ATOM     23  C   UNL     1      33.782 -15.260 -24.759  0.00  0.00    +0.038 C 
ATOM     24  C   UNL     1      34.738 -15.394 -22.545  0.00  0.00    +0.038 C 
ATOM     25  C   UNL     1      33.523 -13.418 -23.219  0.00  0.00    +0.078 C 
ATOM     26  C   UNL     1      33.291 -13.987 -24.471  0.00  0.00    +0.020 C 
ATOM     27  C   UNL     1      34.247 -14.121 -22.255  0.00  0.00    +0.020 C 
BRANCH  25  28
ATOM     28  N   UNL     1      33.036 -12.156 -22.932  0.00  0.00    -0.149 N 
ATOM     29  N   UNL     1      32.166 -11.931 -21.937  0.00  0.00    -0.048 NA
ATOM     30  N   UNL     1      32.653 -10.022 -22.980  0.00  0.00    -0.107 NA
ATOM     31  N   UNL     1      31.935 -10.625 -21.971  0.00  0.00    -0.024 NA
ATOM     32  C   UNL     1      33.326 -10.987 -23.562  0.00  0.00    +0.215 C 
ENDBRANCH  25  28
ENDBRANCH  21  22
ENDBRANCH  20  21
ENDBRANCH   4  20
TORSDOF 6
ENDMDL
MODEL 5
REMARK VINA RESULT:     -11.2      5.779      9.896
REMARK  Name = 25025505
REMARK  6 active torsions:
REMARK  status: ('A' for Active; 'I' for Inactive)
REMARK    1  A    between atoms: C_3  and  C_9
REMARK    2  A    between atoms: C_4  and  C_20
REMARK    3  A    between atoms: C_17  and  C_18
REMARK    4  A    between atoms: C_20  and  O_21
REMARK    5  A    between atoms: O_21  and  C_22
REMARK    6  A    between atoms: C_25  and  N_28
REMARK                            x       y       z     vdW  Elec       q    Type
REMARK                         _______ _______ _______ _____ _____    ______ ____
ROOT
ATOM      1  S   UNL     1      34.010 -16.780 -24.710  0.00  0.00    -0.079 S 
ATOM      2  N   UNL     1      35.022 -16.874 -22.334  0.00  0.00    -0.404 NA
ATOM      3  C   UNL     1      34.577 -16.056 -23.261  0.00  0.00    +0.134 C 
ATOM      4  C   UNL     1      34.912 -18.171 -22.793  0.00  0.00    +0.142 C 
ATOM      5  C   UNL     1      34.386 -18.321 -24.059  0.00  0.00    +0.122 C 
ENDROOT
BRANCH   3   9
ATOM      6  N   UNL     1      33.255 -11.958 -22.913  0.00  0.00    -0.253 N 
ATOM      7  N   UNL     1      32.159 -10.383 -21.581  0.00  0.00    -0.203 NA
ATOM      8  N   UNL     1      32.750  -9.885 -23.863  0.00  0.00    -0.181 NA
ATOM      9  C   UNL     1      34.536 -14.545 -23.126  0.00  0.00    +0.062 C 
ATOM     10  C   UNL     1      33.869 -13.874 -24.336  0.00  0.00    +0.030 C 
ATOM     11  C   UNL     1      33.829 -14.099 -21.837  0.00  0.00    +0.030 C 
ATOM     12  C   UNL     1      33.856 -12.352 -24.193  0.00  0.00    +0.102 C 
ATOM     13  C   UNL     1      33.823 -12.576 -21.707  0.00  0.00    +0.102 C 
ATOM     14  C   UNL     1      32.696 -10.682 -22.779  0.00  0.00    +0.090 C 
ATOM     15  C   UNL     1      31.627  -9.147 -21.488  0.00  0.00    +0.161 C 
ATOM     16  C   UNL     1      32.201  -8.663 -23.700  0.00  0.00    +0.104 C 
ATOM     17  C   UNL     1      31.619  -8.235 -22.524  0.00  0.00    +0.001 C 
BRANCH  17  18
ATOM     18  C   UNL     1      31.025  -6.884 -22.382  0.00  0.00    +0.026 C 
ATOM     19  C   UNL     1      31.667  -6.074 -21.254  0.00  0.00    +0.005 C 
ENDBRANCH  17  18
ENDBRANCH   3   9
BRANCH   4  20
ATOM     20  C   UNL     1      35.358 -19.268 -21.910  0.00  0.00    +0.260 C 
BRANCH  20  21
ATOM     21  O   UNL     1      34.229 -19.896 -21.305  0.00  0.00    -0.468 OA
BRANCH  21  22
ATOM     22  C   UNL     1      34.470 -20.637 -20.181  0.00  0.00    +0.139 C 
ATOM     23  C   UNL     1      33.407 -21.209 -19.480  0.00  0.00    +0.038 C 
ATOM     24  C   UNL     1      35.778 -20.823 -19.735  0.00  0.00    +0.038 C 
ATOM     25  C   UNL     1      34.962 -22.149 -17.889  0.00  0.00    +0.078 C 
ATOM     26  C   UNL     1      33.653 -21.964 -18.334  0.00  0.00    +0.020 C 
ATOM     27  C   UNL     1      36.025 -21.579 -18.589  0.00  0.00    +0.020 C 
BRANCH  25  28
ATOM     28  N   UNL     1      35.206 -22.899 -16.752  0.00  0.00    -0.149 N 
ATOM     29  N   UNL     1      34.430 -23.930 -16.393  0.00  0.00    -0.048 NA
ATOM     30  N   UNL     1      36.081 -23.659 -14.919  0.00  0.00    -0.107 NA
ATOM     31  N   UNL     1      34.970 -24.392 -15.271  0.00  0.00    -0.024 NA
ATOM     32  C   UNL     1      36.210 -22.741 -15.849  0.00  0.00    +0.215 C 
ENDBRANCH  25  28
ENDBRANCH  21  22
ENDBRANCH  20  21
ENDBRANCH   4  20
TORSDOF 6
ENDMDL
MODEL 6
REMARK VINA RESULT:     -11.1      4.738      7.174
REMARK  Name = 25025505
REMARK  6 active torsions:
REMARK  status: ('A' for Active; 'I' for Inactive)
REMARK    1  A    between atoms: C_3  and  C_9
REMARK    2  A    between atoms: C_4  and  C_20
REMARK    3  A    between atoms: C_17  and  C_18
REMARK    4  A    between atoms: C_20  and  O_21
REMARK    5  A    between atoms: O_21  and  C_22
REMARK    6  A    between atoms: C_25  and  N_28
REMARK                            x       y       z     vdW  Elec       q    Type
REMARK                         _______ _______ _______ _____ _____    ______ ____
ROOT
ATOM      1  S   UNL     1      33.558 -20.956 -20.244  0.00  0.00    -0.079 S 
ATOM      2  N   UNL     1      35.937 -20.478 -19.354  0.00  0.00    -0.404 NA
ATOM      3  C   UNL     1      35.055 -20.117 -20.259  0.00  0.00    +0.134 C 
ATOM      4  C   UNL     1      35.400 -21.493 -18.587  0.00  0.00    +0.142 C 
ATOM      5  C   UNL     1      34.121 -21.888 -18.919  0.00  0.00    +0.122 C 
ENDROOT
BRANCH   3   9
ATOM      6  N   UNL     1      34.552 -16.714 -22.872  0.00  0.00    -0.253 N 
ATOM      7  N   UNL     1      34.287 -14.397 -23.005  0.00  0.00    -0.203 NA
ATOM      8  N   UNL     1      34.011 -15.793 -24.949  0.00  0.00    -0.181 NA
ATOM      9  C   UNL     1      35.279 -19.026 -21.290  0.00  0.00    +0.062 C 
ATOM     10  C   UNL     1      34.295 -19.130 -22.464  0.00  0.00    +0.030 C 
ATOM     11  C   UNL     1      35.196 -17.622 -20.673  0.00  0.00    +0.030 C 
ATOM     12  C   UNL     1      34.549 -18.038 -23.504  0.00  0.00    +0.102 C 
ATOM     13  C   UNL     1      35.452 -16.540 -21.723  0.00  0.00    +0.102 C 
ATOM     14  C   UNL     1      34.271 -15.581 -23.645  0.00  0.00    +0.090 C 
ATOM     15  C   UNL     1      34.010 -13.327 -23.780  0.00  0.00    +0.161 C 
ATOM     16  C   UNL     1      33.743 -14.681 -25.664  0.00  0.00    +0.104 C 
ATOM     17  C   UNL     1      33.727 -13.409 -25.128  0.00  0.00    +0.001 C 
BRANCH  17  18
ATOM     18  C   UNL     1      33.428 -12.210 -25.946  0.00  0.00    +0.026 C 
ATOM     19  C   UNL     1      33.689 -10.904 -25.193  0.00  0.00    +0.005 C 
ENDBRANCH  17  18
ENDBRANCH   3   9
BRANCH   4  20
ATOM     20  C   UNL     1      36.222 -22.060 -17.499  0.00  0.00    +0.260 C 
BRANCH  20  21
ATOM     21  O   UNL     1      35.627 -23.263 -17.015  0.00  0.00    -0.468 OA
BRANCH  21  22
ATOM     22  C   UNL     1      35.691 -23.477 -15.666  0.00  0.00    +0.139 C 
ATOM     23  C   UNL     1      34.531 -23.777 -14.950  0.00  0.00    +0.038 C 
ATOM     24  C   UNL     1      36.915 -23.397 -15.004  0.00  0.00    +0.038 C 
ATOM     25  C   UNL     1      35.821 -23.914 -12.913  0.00  0.00    +0.078 C 
ATOM     26  C   UNL     1      34.596 -23.995 -13.574  0.00  0.00    +0.020 C 
ATOM     27  C   UNL     1      36.981 -23.615 -13.628  0.00  0.00    +0.020 C 
BRANCH  25  28
ATOM     28  N   UNL     1      35.886 -24.130 -11.549  0.00  0.00    -0.149 N 
ATOM     29  N   UNL     1      35.007 -24.910 -10.903  0.00  0.00    -0.048 NA
ATOM     30  N   UNL     1      36.497 -24.078  -9.469  0.00  0.00    -0.107 NA
ATOM     31  N   UNL     1      35.386 -24.874  -9.632  0.00  0.00    -0.024 NA
ATOM     32  C   UNL     1      36.790 -23.628 -10.667  0.00  0.00    +0.215 C 
ENDBRANCH  25  28
ENDBRANCH  21  22
ENDBRANCH  20  21
ENDBRANCH   4  20
TORSDOF 6
ENDMDL
MODEL 7
REMARK VINA RESULT:     -10.9      3.549      7.164
REMARK  Name = 25025505
REMARK  6 active torsions:
REMARK  status: ('A' for Active; 'I' for Inactive)
REMARK    1  A    between atoms: C_3  and  C_9
REMARK    2  A    between atoms: C_4  and  C_20
REMARK    3  A    between atoms: C_17  and  C_18
REMARK    4  A    between atoms: C_20  and  O_21
REMARK    5  A    between atoms: O_21  and  C_22
REMARK    6  A    between atoms: C_25  and  N_28
REMARK                            x       y       z     vdW  Elec       q    Type
REMARK                         _______ _______ _______ _____ _____    ______ ____
ROOT
ATOM      1  S   UNL     1      31.754 -23.878 -15.162  0.00  0.00    -0.079 S 
ATOM      2  N   UNL     1      34.250 -23.685 -14.519  0.00  0.00    -0.404 NA
ATOM      3  C   UNL     1      33.402 -23.555 -15.514  0.00  0.00    +0.134 C 
ATOM      4  C   UNL     1      33.555 -24.069 -13.388  0.00  0.00    +0.142 C 
ATOM      5  C   UNL     1      32.193 -24.225 -13.541  0.00  0.00    +0.122 C 
ENDROOT
BRANCH   3   9
ATOM      6  N   UNL     1      34.406 -21.268 -19.038  0.00  0.00    -0.253 N 
ATOM      7  N   UNL     1      35.960 -19.844 -20.046  0.00  0.00    -0.203 NA
ATOM      8  N   UNL     1      33.808 -20.246 -21.052  0.00  0.00    -0.181 NA
ATOM      9  C   UNL     1      33.789 -23.144 -16.923  0.00  0.00    +0.062 C 
ATOM     10  C   UNL     1      32.695 -22.307 -17.602  0.00  0.00    +0.030 C 
ATOM     11  C   UNL     1      35.119 -22.376 -16.956  0.00  0.00    +0.030 C 
ATOM     12  C   UNL     1      33.092 -21.920 -19.027  0.00  0.00    +0.102 C 
ATOM     13  C   UNL     1      35.503 -21.997 -18.386  0.00  0.00    +0.102 C 
ATOM     14  C   UNL     1      34.741 -20.413 -20.095  0.00  0.00    +0.090 C 
ATOM     15  C   UNL     1      36.249 -19.025 -21.078  0.00  0.00    +0.161 C 
ATOM     16  C   UNL     1      34.163 -19.415 -22.054  0.00  0.00    +0.104 C 
ATOM     17  C   UNL     1      35.382 -18.770 -22.121  0.00  0.00    +0.001 C 
BRANCH  17  18
ATOM     18  C   UNL     1      35.736 -17.863 -23.239  0.00  0.00    +0.026 C 
ATOM     19  C   UNL     1      34.507 -17.298 -23.952  0.00  0.00    +0.005 C 
ENDBRANCH  17  18
ENDBRANCH   3   9
BRANCH   4  20
ATOM     20  C   UNL     1      34.311 -24.278 -12.137  0.00  0.00    +0.260 C 
BRANCH  20  21
ATOM     21  O   UNL     1      35.585 -23.640 -12.225  0.00  0.00    -0.468 OA
BRANCH  21  22
ATOM     22  C   UNL     1      36.618 -24.400 -12.700  0.00  0.00    +0.139 C 
ATOM     23  C   UNL     1      37.438 -23.907 -13.716  0.00  0.00    +0.038 C 
ATOM     24  C   UNL     1      36.853 -25.668 -12.171  0.00  0.00    +0.038 C 
ATOM     25  C   UNL     1      38.725 -25.950 -13.671  0.00  0.00    +0.078 C 
ATOM     26  C   UNL     1      38.491 -24.682 -14.201  0.00  0.00    +0.020 C 
ATOM     27  C   UNL     1      37.906 -26.444 -12.655  0.00  0.00    +0.020 C 
BRANCH  25  28
ATOM     28  N   UNL     1      39.770 -26.718 -14.152  0.00  0.00    -0.149 N 
ATOM     29  N   UNL     1      40.924 -26.858 -13.484  0.00  0.00    -0.048 NA
ATOM     30  N   UNL     1      40.990 -28.015 -15.389  0.00  0.00    -0.107 NA
ATOM     31  N   UNL     1      41.666 -27.653 -14.245  0.00  0.00    -0.024 NA
ATOM     32  C   UNL     1      39.819 -27.427 -15.310  0.00  0.00    +0.215 C 
ENDBRANCH  25  28
ENDBRANCH  21  22
ENDBRANCH  20  21
ENDBRANCH   4  20
TORSDOF 6
ENDMDL
MODEL 8
REMARK VINA RESULT:     -10.8      6.221     11.610
REMARK  Name = 25025505
REMARK  6 active torsions:
REMARK  status: ('A' for Active; 'I' for Inactive)
REMARK    1  A    between atoms: C_3  and  C_9
REMARK    2  A    between atoms: C_4  and  C_20
REMARK    3  A    between atoms: C_17  and  C_18
REMARK    4  A    between atoms: C_20  and  O_21
REMARK    5  A    between atoms: O_21  and  C_22
REMARK    6  A    between atoms: C_25  and  N_28
REMARK                            x       y       z     vdW  Elec       q    Type
REMARK                         _______ _______ _______ _____ _____    ______ ____
ROOT
ATOM      1  S   UNL     1      34.405 -18.653 -24.102  0.00  0.00    -0.079 S 
ATOM      2  N   UNL     1      35.113 -17.045 -22.206  0.00  0.00    -0.404 NA
ATOM      3  C   UNL     1      35.047 -18.313 -22.547  0.00  0.00    +0.134 C 
ATOM      4  C   UNL     1      34.624 -16.277 -23.244  0.00  0.00    +0.142 C 
ATOM      5  C   UNL     1      34.193 -16.971 -24.356  0.00  0.00    +0.122 C 
ENDROOT
BRANCH   3   9
ATOM      6  N   UNL     1      35.803 -20.897 -19.169  0.00  0.00    -0.253 N 
ATOM      7  N   UNL     1      34.861 -22.273 -17.534  0.00  0.00    -0.203 NA
ATOM      8  N   UNL     1      37.194 -21.676 -17.461  0.00  0.00    -0.181 NA
ATOM      9  C   UNL     1      35.494 -19.463 -21.665  0.00  0.00    +0.062 C 
ATOM     10  C   UNL     1      36.503 -19.015 -20.598  0.00  0.00    +0.030 C 
ATOM     11  C   UNL     1      34.308 -20.166 -20.987  0.00  0.00    +0.030 C 
ATOM     12  C   UNL     1      36.960 -20.190 -19.732  0.00  0.00    +0.102 C 
ATOM     13  C   UNL     1      34.779 -21.339 -20.125  0.00  0.00    +0.102 C 
ATOM     14  C   UNL     1      35.960 -21.651 -18.000  0.00  0.00    +0.090 C 
ATOM     15  C   UNL     1      35.047 -22.989 -16.406  0.00  0.00    +0.161 C 
ATOM     16  C   UNL     1      37.309 -22.411 -16.336  0.00  0.00    +0.104 C 
ATOM     17  C   UNL     1      36.260 -23.095 -15.756  0.00  0.00    +0.001 C 
BRANCH  17  18
ATOM     18  C   UNL     1      36.424 -23.893 -14.517  0.00  0.00    +0.026 C 
ATOM     19  C   UNL     1      35.792 -25.282 -14.623  0.00  0.00    +0.005 C 
ENDBRANCH  17  18
ENDBRANCH   3   9
BRANCH   4  20
ATOM     20  C   UNL     1      34.601 -14.810 -23.082  0.00  0.00    +0.260 C 
BRANCH  20  21
ATOM     21  O   UNL     1      33.372 -14.283 -23.578  0.00  0.00    -0.468 OA
BRANCH  21  22
ATOM     22  C   UNL     1      33.069 -12.997 -23.224  0.00  0.00    +0.139 C 
ATOM     23  C   UNL     1      33.574 -11.930 -23.968  0.00  0.00    +0.038 C 
ATOM     24  C   UNL     1      32.255 -12.751 -22.119  0.00  0.00    +0.038 C 
ATOM     25  C   UNL     1      32.453 -10.374 -22.501  0.00  0.00    +0.078 C 
ATOM     26  C   UNL     1      33.267 -10.619 -23.606  0.00  0.00    +0.020 C 
ATOM     27  C   UNL     1      31.947 -11.440 -21.756  0.00  0.00    +0.020 C 
BRANCH  25  28
ATOM     28  N   UNL     1      32.147  -9.074 -22.142  0.00  0.00    -0.149 N 
ATOM     29  N   UNL     1      31.569  -8.213 -22.991  0.00  0.00    -0.048 NA
ATOM     30  N   UNL     1      31.927  -7.231 -21.021  0.00  0.00    -0.107 NA
ATOM     31  N   UNL     1      31.436  -7.087 -22.300  0.00  0.00    -0.024 NA
ATOM     32  C   UNL     1      32.361  -8.467 -20.945  0.00  0.00    +0.215 C 
ENDBRANCH  25  28
ENDBRANCH  21  22
ENDBRANCH  20  21
ENDBRANCH   4  20
TORSDOF 6
ENDMDL
MODEL 9
REMARK VINA RESULT:      -9.8     10.291     15.225
REMARK  Name = 25025505
REMARK  6 active torsions:
REMARK  status: ('A' for Active; 'I' for Inactive)
REMARK    1  A    between atoms: C_3  and  C_9
REMARK    2  A    between atoms: C_4  and  C_20
REMARK    3  A    between atoms: C_17  and  C_18
REMARK    4  A    between atoms: C_20  and  O_21
REMARK    5  A    between atoms: O_21  and  C_22
REMARK    6  A    between atoms: C_25  and  N_28
REMARK                            x       y       z     vdW  Elec       q    Type
REMARK                         _______ _______ _______ _____ _____    ______ ____
ROOT
ATOM      1  S   UNL     1      32.528  -7.444 -19.844  0.00  0.00    -0.079 S 
ATOM      2  N   UNL     1      32.219  -8.970 -21.908  0.00  0.00    -0.404 NA
ATOM      3  C   UNL     1      32.599  -7.771 -21.528  0.00  0.00    +0.134 C 
ATOM      4  C   UNL     1      31.843  -9.693 -20.793  0.00  0.00    +0.142 C 
ATOM      5  C   UNL     1      31.941  -9.034 -19.585  0.00  0.00    +0.122 C 
ENDROOT
BRANCH   3   9
ATOM      6  N   UNL     1      33.845  -5.576 -25.033  0.00  0.00    -0.253 N 
ATOM      7  N   UNL     1      33.189  -4.661 -27.080  0.00  0.00    -0.203 NA
ATOM      8  N   UNL     1      35.514  -4.770 -26.455  0.00  0.00    -0.181 NA
ATOM      9  C   UNL     1      33.084  -6.685 -22.470  0.00  0.00    +0.062 C 
ATOM     10  C   UNL     1      34.410  -7.059 -23.148  0.00  0.00    +0.030 C 
ATOM     11  C   UNL     1      32.039  -6.341 -23.542  0.00  0.00    +0.030 C 
ATOM     12  C   UNL     1      34.896  -5.945 -24.077  0.00  0.00    +0.102 C 
ATOM     13  C   UNL     1      32.536  -5.226 -24.463  0.00  0.00    +0.102 C 
ATOM     14  C   UNL     1      34.199  -4.973 -26.246  0.00  0.00    +0.090 C 
ATOM     15  C   UNL     1      33.566  -4.083 -28.240  0.00  0.00    +0.161 C 
ATOM     16  C   UNL     1      35.820  -4.189 -27.634  0.00  0.00    +0.104 C 
ATOM     17  C   UNL     1      34.879  -3.821 -28.574  0.00  0.00    +0.001 C 
BRANCH  17  18
ATOM     18  C   UNL     1      35.253  -3.185 -29.860  0.00  0.00    +0.026 C 
ATOM     19  C   UNL     1      36.344  -2.125 -29.697  0.00  0.00    +0.005 C 
ENDBRANCH  17  18
ENDBRANCH   3   9
BRANCH   4  20
ATOM     20  C   UNL     1      31.375 -11.081 -20.982  0.00  0.00    +0.260 C 
BRANCH  20  21
ATOM     21  O   UNL     1      31.972 -11.642 -22.150  0.00  0.00    -0.468 OA
BRANCH  21  22
ATOM     22  C   UNL     1      32.709 -12.781 -21.975  0.00  0.00    +0.139 C 
ATOM     23  C   UNL     1      33.292 -13.412 -23.075  0.00  0.00    +0.038 C 
ATOM     24  C   UNL     1      32.878 -13.312 -20.697  0.00  0.00    +0.038 C 
ATOM     25  C   UNL     1      34.211 -15.104 -21.618  0.00  0.00    +0.078 C 
ATOM     26  C   UNL     1      34.043 -14.573 -22.896  0.00  0.00    +0.020 C 
ATOM     27  C   UNL     1      33.629 -14.474 -20.517  0.00  0.00    +0.020 C 
BRANCH  25  28
ATOM     28  N   UNL     1      34.956 -16.256 -21.440  0.00  0.00    -0.149 N 
ATOM     29  N   UNL     1      35.263 -16.732 -20.226  0.00  0.00    -0.048 NA
ATOM     30  N   UNL     1      36.116 -18.051 -21.808  0.00  0.00    -0.107 NA
ATOM     31  N   UNL     1      35.973 -17.830 -20.456  0.00  0.00    -0.024 NA
ATOM     32  C   UNL     1      35.479 -17.067 -22.398  0.00  0.00    +0.215 C 
ENDBRANCH  25  28
ENDBRANCH  21  22
ENDBRANCH  20  21
ENDBRANCH   4  20
TORSDOF 6
ENDMDL
