MODEL 1
REMARK VINA RESULT:     -11.6      0.000      0.000
REMARK  Name = 445756
REMARK  6 active torsions:
REMARK  status: ('A' for Active; 'I' for Inactive)
REMARK    1  A    between atoms: C_3  and  C_11
REMARK    2  A    between atoms: C_6  and  C_22
REMARK    3  A    between atoms: C_11  and  N_12
REMARK    4  A    between atoms: C_22  and  N_23
REMARK    5  A    between atoms: N_23  and  C_25
REMARK    6  A    between atoms: C_30  and  C_33
REMARK                            x       y       z     vdW  Elec       q    Type
REMARK                         _______ _______ _______ _____ _____    ______ ____
ROOT
ATOM      1  N   UNL     1      34.557 -15.249 -22.420  0.00  0.00    -0.261 N 
ATOM      2  N   UNL     1      34.007 -15.152 -20.269  0.00  0.00    -0.392 NA
ATOM      3  C   UNL     1      31.956 -12.249 -21.423  0.00  0.00    -0.017 C 
ATOM      4  C   UNL     1      33.693 -14.190 -22.310  0.00  0.00    +0.079 C 
ATOM      5  C   UNL     1      33.364 -14.151 -20.958  0.00  0.00    +0.128 C 
ATOM      6  C   UNL     1      34.714 -15.790 -21.174  0.00  0.00    +0.183 C 
ATOM      7  C   UNL     1      32.477 -13.163 -20.498  0.00  0.00    +0.084 C 
ATOM      8  C   UNL     1      32.304 -12.315 -22.774  0.00  0.00    -0.005 C 
ATOM      9  C   UNL     1      33.184 -13.292 -23.250  0.00  0.00    +0.017 C 
ATOM     10  C   UNL     1      35.188 -15.708 -23.637  0.00  0.00    +0.120 C 
ENDROOT
BRANCH   3  11
ATOM     11  C   UNL     1      31.011 -11.191 -20.955  0.00  0.00    +0.120 C 
BRANCH  11  12
ATOM     12  N   UNL     1      31.708  -9.940 -20.640  0.00  0.00    -0.260 N 
ATOM     13  N   UNL     1      32.702  -8.377 -19.446  0.00  0.00    -0.394 NA
ATOM     14  C   UNL     1      32.061  -8.989 -21.546  0.00  0.00    +0.079 C 
ATOM     15  C   UNL     1      32.101  -9.546 -19.405  0.00  0.00    +0.164 C 
ATOM     16  C   UNL     1      32.686  -8.014 -20.773  0.00  0.00    +0.128 C 
ATOM     17  C   UNL     1      31.903  -8.886 -22.929  0.00  0.00    +0.017 C 
ATOM     18  C   UNL     1      31.867 -10.357 -18.193  0.00  0.00    +0.084 C 
ATOM     19  C   UNL     1      33.189  -6.862 -21.401  0.00  0.00    +0.086 C 
ATOM     20  C   UNL     1      32.408  -7.732 -23.536  0.00  0.00    -0.003 C 
ATOM     21  C   UNL     1      33.040  -6.736 -22.787  0.00  0.00    -0.019 C 
ENDBRANCH  11  12
ENDBRANCH   3  11
BRANCH   6  22
ATOM     22  C   UNL     1      35.587 -16.956 -20.928  0.00  0.00    +0.164 C 
BRANCH  22  23
ATOM     23  N   UNL     1      35.125 -18.211 -21.510  0.00  0.00    -0.326 N 
ATOM     24  H   UNL     1      34.979 -18.250 -22.484  0.00  0.00    +0.147 HD
BRANCH  23  25
ATOM     25  C   UNL     1      34.880 -19.344 -20.765  0.00  0.00    +0.045 C 
ATOM     26  C   UNL     1      33.564 -19.815 -20.563  0.00  0.00    +0.014 C 
ATOM     27  C   UNL     1      35.935 -20.072 -20.175  0.00  0.00    +0.014 C 
ATOM     28  C   UNL     1      33.317 -20.960 -19.807  0.00  0.00    +0.004 C 
ATOM     29  C   UNL     1      35.687 -21.217 -19.419  0.00  0.00    +0.004 C 
ATOM     30  C   UNL     1      34.378 -21.661 -19.235  0.00  0.00    +0.031 C 
BRANCH  30  33
ATOM     31  N   UNL     1      34.184 -22.831 -17.053  0.00  0.00    -0.343 N 
ATOM     32  N   UNL     1      33.820 -23.991 -19.049  0.00  0.00    -0.285 NA
ATOM     33  C   UNL     1      34.120 -22.854 -18.445  0.00  0.00    +0.117 C 
ATOM     34  H   UNL     1      34.005 -23.652 -16.538  0.00  0.00    +0.144 HD
ATOM     35  H   UNL     1      34.408 -21.995 -16.585  0.00  0.00    +0.144 HD
ATOM     36  H   UNL     1      33.645 -24.801 -18.516  0.00  0.00    +0.188 HD
ENDBRANCH  30  33
ENDBRANCH  23  25
ENDBRANCH  22  23
ENDBRANCH   6  22
TORSDOF 6
ENDMDL
MODEL 2
REMARK VINA RESULT:     -11.6      1.935      3.169
REMARK  Name = 445756
REMARK  6 active torsions:
REMARK  status: ('A' for Active; 'I' for Inactive)
REMARK    1  A    between atoms: C_3  and  C_11
REMARK    2  A    between atoms: C_6  and  C_22
REMARK    3  A    between atoms: C_11  and  N_12
REMARK    4  A    between atoms: C_22  and  N_23
REMARK    5  A    between atoms: N_23  and  C_25
REMARK    6  A    between atoms: C_30  and  C_33
REMARK                            x       y       z     vdW  Elec       q    Type
REMARK                         _______ _______ _______ _____ _____    ______ ____
ROOT
ATOM      1  N   UNL     1      34.844 -16.210 -21.960  0.00  0.00    -0.261 N 
ATOM      2  N   UNL     1      34.515 -16.489 -24.140  0.00  0.00    -0.392 NA
ATOM      3  C   UNL     1      33.644 -12.857 -23.981  0.00  0.00    -0.017 C 
ATOM      4  C   UNL     1      34.454 -14.983 -22.431  0.00  0.00    +0.079 C 
ATOM      5  C   UNL     1      34.255 -15.183 -23.795  0.00  0.00    +0.128 C 
ATOM      6  C   UNL     1      34.865 -17.076 -23.018  0.00  0.00    +0.183 C 
ATOM      7  C   UNL     1      33.842 -14.103 -24.592  0.00  0.00    +0.084 C 
ATOM      8  C   UNL     1      33.853 -12.688 -22.611  0.00  0.00    -0.005 C 
ATOM      9  C   UNL     1      34.265 -13.752 -21.802  0.00  0.00    +0.017 C 
ATOM     10  C   UNL     1      35.174 -16.527 -20.589  0.00  0.00    +0.120 C 
ENDROOT
BRANCH   3  11
ATOM     11  C   UNL     1      33.206 -11.695 -24.810  0.00  0.00    +0.120 C 
BRANCH  11  12
ATOM     12  N   UNL     1      33.691 -10.424 -24.264  0.00  0.00    -0.260 N 
ATOM     13  N   UNL     1      34.964  -8.644 -23.999  0.00  0.00    -0.394 NA
ATOM     14  C   UNL     1      33.106  -9.731 -23.251  0.00  0.00    +0.079 C 
ATOM     15  C   UNL     1      34.791  -9.753 -24.684  0.00  0.00    +0.164 C 
ATOM     16  C   UNL     1      33.923  -8.614 -23.101  0.00  0.00    +0.128 C 
ATOM     17  C   UNL     1      31.972  -9.962 -22.471  0.00  0.00    +0.017 C 
ATOM     18  C   UNL     1      35.656 -10.239 -25.778  0.00  0.00    +0.084 C 
ATOM     19  C   UNL     1      33.605  -7.661 -22.119  0.00  0.00    +0.086 C 
ATOM     20  C   UNL     1      31.671  -9.003 -21.499  0.00  0.00    -0.003 C 
ATOM     21  C   UNL     1      32.472  -7.872 -21.324  0.00  0.00    -0.019 C 
ENDBRANCH  11  12
ENDBRANCH   3  11
BRANCH   6  22
ATOM     22  C   UNL     1      35.243 -18.495 -22.864  0.00  0.00    +0.164 C 
BRANCH  22  23
ATOM     23  N   UNL     1      34.189 -19.367 -22.358  0.00  0.00    -0.326 N 
ATOM     24  H   UNL     1      33.347 -19.427 -22.867  0.00  0.00    +0.147 HD
BRANCH  23  25
ATOM     25  C   UNL     1      34.311 -20.109 -21.203  0.00  0.00    +0.045 C 
ATOM     26  C   UNL     1      35.578 -20.483 -20.707  0.00  0.00    +0.014 C 
ATOM     27  C   UNL     1      33.174 -20.523 -20.479  0.00  0.00    +0.014 C 
ATOM     28  C   UNL     1      35.702 -21.236 -19.540  0.00  0.00    +0.004 C 
ATOM     29  C   UNL     1      33.297 -21.276 -19.312  0.00  0.00    +0.004 C 
ATOM     30  C   UNL     1      34.561 -21.633 -18.842  0.00  0.00    +0.031 C 
BRANCH  30  33
ATOM     31  N   UNL     1      33.609 -23.125 -17.101  0.00  0.00    -0.343 N 
ATOM     32  N   UNL     1      35.849 -22.470 -16.994  0.00  0.00    -0.285 NA
ATOM     33  C   UNL     1      34.690 -22.419 -17.625  0.00  0.00    +0.117 C 
ATOM     34  H   UNL     1      33.719 -23.652 -16.275  0.00  0.00    +0.144 HD
ATOM     35  H   UNL     1      32.736 -23.099 -17.555  0.00  0.00    +0.144 HD
ATOM     36  H   UNL     1      35.939 -23.002 -16.170  0.00  0.00    +0.188 HD
ENDBRANCH  30  33
ENDBRANCH  23  25
ENDBRANCH  22  23
ENDBRANCH   6  22
TORSDOF 6
ENDMDL
MODEL 3
REMARK VINA RESULT:     -11.6      5.862     13.169
REMARK  Name = 445756
REMARK  6 active torsions:
REMARK  status: ('A' for Active; 'I' for Inactive)
REMARK    1  A    between atoms: C_3  and  C_11
REMARK    2  A    between atoms: C_6  and  C_22
REMARK    3  A    between atoms: C_11  and  N_12
REMARK    4  A    between atoms: C_22  and  N_23
REMARK    5  A    between atoms: N_23  and  C_25
REMARK    6  A    between atoms: C_30  and  C_33
REMARK                            x       y       z     vdW  Elec       q    Type
REMARK                         _______ _______ _______ _____ _____    ______ ____
ROOT
ATOM      1  N   UNL     1      34.515 -22.275 -18.145  0.00  0.00    -0.261 N 
ATOM      2  N   UNL     1      36.605 -22.159 -17.400  0.00  0.00    -0.392 NA
ATOM      3  C   UNL     1      35.096 -23.729 -14.362  0.00  0.00    -0.017 C 
ATOM      4  C   UNL     1      34.483 -22.807 -16.882  0.00  0.00    +0.079 C 
ATOM      5  C   UNL     1      35.800 -22.723 -16.438  0.00  0.00    +0.128 C 
ATOM      6  C   UNL     1      35.803 -21.902 -18.409  0.00  0.00    +0.183 C 
ATOM      7  C   UNL     1      36.121 -23.192 -15.153  0.00  0.00    +0.084 C 
ATOM      8  C   UNL     1      33.784 -23.800 -14.836  0.00  0.00    -0.005 C 
ATOM      9  C   UNL     1      33.447 -23.339 -16.113  0.00  0.00    +0.017 C 
ATOM     10  C   UNL     1      33.385 -22.136 -19.037  0.00  0.00    +0.120 C 
ENDROOT
BRANCH   3  11
ATOM     11  C   UNL     1      35.415 -24.235 -12.994  0.00  0.00    +0.120 C 
BRANCH  11  12
ATOM     12  N   UNL     1      36.852 -24.470 -12.822  0.00  0.00    -0.260 N 
ATOM     13  N   UNL     1      38.892 -24.270 -12.014  0.00  0.00    -0.394 NA
ATOM     14  C   UNL     1      37.593 -25.356 -13.539  0.00  0.00    +0.079 C 
ATOM     15  C   UNL     1      37.652 -23.842 -11.927  0.00  0.00    +0.164 C 
ATOM     16  C   UNL     1      38.874 -25.214 -13.014  0.00  0.00    +0.128 C 
ATOM     17  C   UNL     1      37.280 -26.245 -14.568  0.00  0.00    +0.017 C 
ATOM     18  C   UNL     1      37.153 -22.816 -10.989  0.00  0.00    +0.084 C 
ATOM     19  C   UNL     1      39.917 -25.998 -13.535  0.00  0.00    +0.086 C 
ATOM     20  C   UNL     1      38.331 -27.017 -15.074  0.00  0.00    -0.003 C 
ATOM     21  C   UNL     1      39.627 -26.897 -14.568  0.00  0.00    -0.019 C 
ENDBRANCH  11  12
ENDBRANCH   3  11
BRANCH   6  22
ATOM     22  C   UNL     1      36.196 -21.287 -19.693  0.00  0.00    +0.164 C 
BRANCH  22  23
ATOM     23  N   UNL     1      36.060 -19.836 -19.753  0.00  0.00    -0.326 N 
ATOM     24  H   UNL     1      36.303 -19.310 -18.956  0.00  0.00    +0.147 HD
BRANCH  23  25
ATOM     25  C   UNL     1      35.607 -19.165 -20.868  0.00  0.00    +0.045 C 
ATOM     26  C   UNL     1      35.863 -17.788 -21.046  0.00  0.00    +0.014 C 
ATOM     27  C   UNL     1      34.870 -19.831 -21.870  0.00  0.00    +0.014 C 
ATOM     28  C   UNL     1      35.403 -17.109 -22.174  0.00  0.00    +0.004 C 
ATOM     29  C   UNL     1      34.409 -19.152 -22.998  0.00  0.00    +0.004 C 
ATOM     30  C   UNL     1      34.675 -17.791 -23.150  0.00  0.00    +0.031 C 
BRANCH  30  33
ATOM     31  N   UNL     1      34.710 -15.839 -24.684  0.00  0.00    -0.343 N 
ATOM     32  N   UNL     1      33.246 -17.618 -25.074  0.00  0.00    -0.285 NA
ATOM     33  C   UNL     1      34.194 -17.083 -24.325  0.00  0.00    +0.117 C 
ATOM     34  H   UNL     1      34.370 -15.377 -25.485  0.00  0.00    +0.144 HD
ATOM     35  H   UNL     1      35.416 -15.423 -24.138  0.00  0.00    +0.144 HD
ATOM     36  H   UNL     1      32.918 -17.140 -25.870  0.00  0.00    +0.188 HD
ENDBRANCH  30  33
ENDBRANCH  23  25
ENDBRANCH  22  23
ENDBRANCH   6  22
TORSDOF 6
ENDMDL
MODEL 4
REMARK VINA RESULT:     -11.1      4.827      8.590
REMARK  Name = 445756
REMARK  6 active torsions:
REMARK  status: ('A' for Active; 'I' for Inactive)
REMARK    1  A    between atoms: C_3  and  C_11
REMARK    2  A    between atoms: C_6  and  C_22
REMARK    3  A    between atoms: C_11  and  N_12
REMARK    4  A    between atoms: C_22  and  N_23
REMARK    5  A    between atoms: N_23  and  C_25
REMARK    6  A    between atoms: C_30  and  C_33
REMARK                            x       y       z     vdW  Elec       q    Type
REMARK                         _______ _______ _______ _____ _____    ______ ____
ROOT
ATOM      1  N   UNL     1      33.140 -22.076 -18.070  0.00  0.00    -0.261 N 
ATOM      2  N   UNL     1      35.346 -22.344 -18.009  0.00  0.00    -0.392 NA
ATOM      3  C   UNL     1      35.226 -19.977 -20.899  0.00  0.00    -0.017 C 
ATOM      4  C   UNL     1      33.631 -21.297 -19.086  0.00  0.00    +0.079 C 
ATOM      5  C   UNL     1      35.010 -21.481 -19.027  0.00  0.00    +0.128 C 
ATOM      6  C   UNL     1      34.202 -22.681 -17.457  0.00  0.00    +0.183 C 
ATOM      7  C   UNL     1      35.831 -20.810 -19.949  0.00  0.00    +0.084 C 
ATOM      8  C   UNL     1      33.840 -19.812 -20.932  0.00  0.00    -0.005 C 
ATOM      9  C   UNL     1      33.008 -20.471 -20.022  0.00  0.00    +0.017 C 
ATOM     10  C   UNL     1      31.747 -22.228 -17.714  0.00  0.00    +0.120 C 
ENDROOT
BRANCH   3  11
ATOM     11  C   UNL     1      36.079 -19.253 -21.889  0.00  0.00    +0.120 C 
BRANCH  11  12
ATOM     12  N   UNL     1      35.273 -18.574 -22.908  0.00  0.00    -0.260 N 
ATOM     13  N   UNL     1      34.077 -18.285 -24.736  0.00  0.00    -0.394 NA
ATOM     14  C   UNL     1      34.931 -17.258 -22.889  0.00  0.00    +0.079 C 
ATOM     15  C   UNL     1      34.752 -19.154 -24.016  0.00  0.00    +0.164 C 
ATOM     16  C   UNL     1      34.178 -17.097 -24.049  0.00  0.00    +0.128 C 
ATOM     17  C   UNL     1      35.197 -16.219 -21.997  0.00  0.00    +0.017 C 
ATOM     18  C   UNL     1      34.940 -20.583 -24.336  0.00  0.00    +0.084 C 
ATOM     19  C   UNL     1      33.651 -15.830 -24.351  0.00  0.00    +0.086 C 
ATOM     20  C   UNL     1      34.665 -14.965 -22.315  0.00  0.00    -0.003 C 
ATOM     21  C   UNL     1      33.905 -14.772 -23.471  0.00  0.00    -0.019 C 
ENDBRANCH  11  12
ENDBRANCH   3  11
BRANCH   6  22
ATOM     22  C   UNL     1      34.029 -23.599 -16.312  0.00  0.00    +0.164 C 
BRANCH  22  23
ATOM     23  N   UNL     1      34.885 -23.324 -15.163  0.00  0.00    -0.326 N 
ATOM     24  H   UNL     1      34.575 -22.672 -14.494  0.00  0.00    +0.147 HD
BRANCH  23  25
ATOM     25  C   UNL     1      36.107 -23.931 -14.970  0.00  0.00    +0.045 C 
ATOM     26  C   UNL     1      37.313 -23.232 -15.193  0.00  0.00    +0.014 C 
ATOM     27  C   UNL     1      36.196 -25.273 -14.545  0.00  0.00    +0.014 C 
ATOM     28  C   UNL     1      38.550 -23.846 -14.999  0.00  0.00    +0.004 C 
ATOM     29  C   UNL     1      37.433 -25.888 -14.351  0.00  0.00    +0.004 C 
ATOM     30  C   UNL     1      38.609 -25.175 -14.579  0.00  0.00    +0.031 C 
BRANCH  30  33
ATOM     31  N   UNL     1      40.027 -27.204 -14.383  0.00  0.00    -0.343 N 
ATOM     32  N   UNL     1      40.978 -25.079 -14.182  0.00  0.00    -0.285 NA
ATOM     33  C   UNL     1      39.899 -25.817 -14.378  0.00  0.00    +0.117 C 
ATOM     34  H   UNL     1      40.910 -27.618 -14.246  0.00  0.00    +0.144 HD
ATOM     35  H   UNL     1      39.235 -27.771 -14.525  0.00  0.00    +0.144 HD
ATOM     36  H   UNL     1      41.852 -25.512 -14.045  0.00  0.00    +0.188 HD
ENDBRANCH  30  33
ENDBRANCH  23  25
ENDBRANCH  22  23
ENDBRANCH   6  22
TORSDOF 6
ENDMDL
MODEL 5
REMARK VINA RESULT:     -10.7      2.442      5.056
REMARK  Name = 445756
REMARK  6 active torsions:
REMARK  status: ('A' for Active; 'I' for Inactive)
REMARK    1  A    between atoms: C_3  and  C_11
REMARK    2  A    between atoms: C_6  and  C_22
REMARK    3  A    between atoms: C_11  and  N_12
REMARK    4  A    between atoms: C_22  and  N_23
REMARK    5  A    between atoms: N_23  and  C_25
REMARK    6  A    between atoms: C_30  and  C_33
REMARK                            x       y       z     vdW  Elec       q    Type
REMARK                         _______ _______ _______ _____ _____    ______ ____
ROOT
ATOM      1  N   UNL     1      32.268 -11.713 -21.741  0.00  0.00    -0.261 N 
ATOM      2  N   UNL     1      33.384 -10.907 -23.486  0.00  0.00    -0.392 NA
ATOM      3  C   UNL     1      32.965  -7.680 -21.648  0.00  0.00    -0.017 C 
ATOM      4  C   UNL     1      32.389 -10.368 -21.509  0.00  0.00    +0.079 C 
ATOM      5  C   UNL     1      33.089  -9.887 -22.612  0.00  0.00    +0.128 C 
ATOM      6  C   UNL     1      32.878 -11.987 -22.934  0.00  0.00    +0.183 C 
ATOM      7  C   UNL     1      33.387  -8.516 -22.690  0.00  0.00    +0.084 C 
ATOM      8  C   UNL     1      32.264  -8.192 -20.554  0.00  0.00    -0.005 C 
ATOM      9  C   UNL     1      31.960  -9.554 -20.459  0.00  0.00    +0.017 C 
ATOM     10  C   UNL     1      31.613 -12.670 -20.877  0.00  0.00    +0.120 C 
ENDROOT
BRANCH   3  11
ATOM     11  C   UNL     1      33.272  -6.220 -21.710  0.00  0.00    +0.120 C 
BRANCH  11  12
ATOM     12  N   UNL     1      32.618  -5.575 -22.853  0.00  0.00    -0.260 N 
ATOM     13  N   UNL     1      31.044  -4.602 -24.049  0.00  0.00    -0.394 NA
ATOM     14  C   UNL     1      33.206  -5.323 -24.053  0.00  0.00    +0.079 C 
ATOM     15  C   UNL     1      31.337  -5.135 -22.884  0.00  0.00    +0.164 C 
ATOM     16  C   UNL     1      32.198  -4.710 -24.791  0.00  0.00    +0.128 C 
ATOM     17  C   UNL     1      34.486  -5.563 -24.555  0.00  0.00    +0.017 C 
ATOM     18  C   UNL     1      30.420  -5.258 -21.733  0.00  0.00    +0.084 C 
ATOM     19  C   UNL     1      32.465  -4.306 -26.110  0.00  0.00    +0.086 C 
ATOM     20  C   UNL     1      34.733  -5.155 -25.870  0.00  0.00    -0.003 C 
ATOM     21  C   UNL     1      33.742  -4.537 -26.635  0.00  0.00    -0.019 C 
ENDBRANCH  11  12
ENDBRANCH   3  11
BRANCH   6  22
ATOM     22  C   UNL     1      32.932 -13.353 -23.494  0.00  0.00    +0.164 C 
BRANCH  22  23
ATOM     23  N   UNL     1      34.265 -13.943 -23.560  0.00  0.00    -0.326 N 
ATOM     24  H   UNL     1      34.952 -13.486 -24.097  0.00  0.00    +0.147 HD
BRANCH  23  25
ATOM     25  C   UNL     1      34.608 -15.109 -22.909  0.00  0.00    +0.045 C 
ATOM     26  C   UNL     1      34.661 -15.170 -21.500  0.00  0.00    +0.014 C 
ATOM     27  C   UNL     1      34.921 -16.281 -23.630  0.00  0.00    +0.014 C 
ATOM     28  C   UNL     1      35.011 -16.349 -20.843  0.00  0.00    +0.004 C 
ATOM     29  C   UNL     1      35.271 -17.459 -22.972  0.00  0.00    +0.004 C 
ATOM     30  C   UNL     1      35.316 -17.493 -21.579  0.00  0.00    +0.031 C 
BRANCH  30  33
ATOM     31  N   UNL     1      34.854 -19.843 -20.920  0.00  0.00    -0.343 N 
ATOM     32  N   UNL     1      36.819 -18.789 -20.223  0.00  0.00    -0.285 NA
ATOM     33  C   UNL     1      35.682 -18.723 -20.893  0.00  0.00    +0.117 C 
ATOM     34  H   UNL     1      35.121 -20.665 -20.449  0.00  0.00    +0.144 HD
ATOM     35  H   UNL     1      34.001 -19.812 -21.411  0.00  0.00    +0.144 HD
ATOM     36  H   UNL     1      37.069 -19.621 -19.758  0.00  0.00    +0.188 HD
ENDBRANCH  30  33
ENDBRANCH  23  25
ENDBRANCH  22  23
ENDBRANCH   6  22
TORSDOF 6
ENDMDL
MODEL 6
REMARK VINA RESULT:     -10.7      4.704      8.627
REMARK  Name = 445756
REMARK  6 active torsions:
REMARK  status: ('A' for Active; 'I' for Inactive)
REMARK    1  A    between atoms: C_3  and  C_11
REMARK    2  A    between atoms: C_6  and  C_22
REMARK    3  A    between atoms: C_11  and  N_12
REMARK    4  A    between atoms: C_22  and  N_23
REMARK    5  A    between atoms: N_23  and  C_25
REMARK    6  A    between atoms: C_30  and  C_33
REMARK                            x       y       z     vdW  Elec       q    Type
REMARK                         _______ _______ _______ _____ _____    ______ ____
ROOT
ATOM      1  N   UNL     1      33.126 -22.071 -18.215  0.00  0.00    -0.261 N 
ATOM      2  N   UNL     1      35.325 -22.398 -18.223  0.00  0.00    -0.392 NA
ATOM      3  C   UNL     1      35.213 -19.801 -20.909  0.00  0.00    -0.017 C 
ATOM      4  C   UNL     1      33.619 -21.225 -19.175  0.00  0.00    +0.079 C 
ATOM      5  C   UNL     1      34.993 -21.447 -19.160  0.00  0.00    +0.128 C 
ATOM      6  C   UNL     1      34.183 -22.751 -17.676  0.00  0.00    +0.183 C 
ATOM      7  C   UNL     1      35.813 -20.724 -20.042  0.00  0.00    +0.084 C 
ATOM      8  C   UNL     1      33.831 -19.599 -20.899  0.00  0.00    -0.005 C 
ATOM      9  C   UNL     1      32.999 -20.310 -20.028  0.00  0.00    +0.017 C 
ATOM     10  C   UNL     1      31.737 -22.217 -17.843  0.00  0.00    +0.120 C 
ENDROOT
BRANCH   3  11
ATOM     11  C   UNL     1      36.066 -19.020 -21.854  0.00  0.00    +0.120 C 
BRANCH  11  12
ATOM     12  N   UNL     1      35.266 -18.359 -22.889  0.00  0.00    -0.260 N 
ATOM     13  N   UNL     1      34.089 -18.099 -24.734  0.00  0.00    -0.394 NA
ATOM     14  C   UNL     1      34.911 -17.047 -22.887  0.00  0.00    +0.079 C 
ATOM     15  C   UNL     1      34.764 -18.954 -23.998  0.00  0.00    +0.164 C 
ATOM     16  C   UNL     1      34.170 -16.904 -24.057  0.00  0.00    +0.128 C 
ATOM     17  C   UNL     1      35.156 -15.996 -22.002  0.00  0.00    +0.017 C 
ATOM     18  C   UNL     1      34.969 -20.385 -24.301  0.00  0.00    +0.084 C 
ATOM     19  C   UNL     1      33.635 -15.646 -24.379  0.00  0.00    +0.086 C 
ATOM     20  C   UNL     1      34.615 -14.750 -22.340  0.00  0.00    -0.003 C 
ATOM     21  C   UNL     1      33.868 -14.576 -23.506  0.00  0.00    -0.019 C 
ENDBRANCH  11  12
ENDBRANCH   3  11
BRANCH   6  22
ATOM     22  C   UNL     1      34.008 -23.754 -16.606  0.00  0.00    +0.164 C 
BRANCH  22  23
ATOM     23  N   UNL     1      33.678 -23.210 -15.294  0.00  0.00    -0.326 N 
ATOM     24  H   UNL     1      32.869 -22.655 -15.207  0.00  0.00    +0.147 HD
BRANCH  23  25
ATOM     25  C   UNL     1      34.444 -23.433 -14.170  0.00  0.00    +0.045 C 
ATOM     26  C   UNL     1      35.804 -23.060 -14.127  0.00  0.00    +0.014 C 
ATOM     27  C   UNL     1      33.895 -24.043 -13.022  0.00  0.00    +0.014 C 
ATOM     28  C   UNL     1      36.579 -23.287 -12.991  0.00  0.00    +0.004 C 
ATOM     29  C   UNL     1      34.669 -24.270 -11.886  0.00  0.00    +0.004 C 
ATOM     30  C   UNL     1      36.012 -23.893 -11.870  0.00  0.00    +0.031 C 
BRANCH  30  33
ATOM     31  N   UNL     1      38.212 -24.107 -10.740  0.00  0.00    -0.343 N 
ATOM     32  N   UNL     1      36.234 -24.380  -9.527  0.00  0.00    -0.285 NA
ATOM     33  C   UNL     1      36.820 -24.131 -10.684  0.00  0.00    +0.117 C 
ATOM     34  H   UNL     1      38.741 -24.271  -9.925  0.00  0.00    +0.144 HD
ATOM     35  H   UNL     1      38.668 -23.927 -11.593  0.00  0.00    +0.144 HD
ATOM     36  H   UNL     1      36.780 -24.542  -8.723  0.00  0.00    +0.188 HD
ENDBRANCH  30  33
ENDBRANCH  23  25
ENDBRANCH  22  23
ENDBRANCH   6  22
TORSDOF 6
ENDMDL
MODEL 7
REMARK VINA RESULT:     -10.5      2.151      3.208
REMARK  Name = 445756
REMARK  6 active torsions:
REMARK  status: ('A' for Active; 'I' for Inactive)
REMARK    1  A    between atoms: C_3  and  C_11
REMARK    2  A    between atoms: C_6  and  C_22
REMARK    3  A    between atoms: C_11  and  N_12
REMARK    4  A    between atoms: C_22  and  N_23
REMARK    5  A    between atoms: N_23  and  C_25
REMARK    6  A    between atoms: C_30  and  C_33
REMARK                            x       y       z     vdW  Elec       q    Type
REMARK                         _______ _______ _______ _____ _____    ______ ____
ROOT
ATOM      1  N   UNL     1      34.496 -15.512 -22.574  0.00  0.00    -0.261 N 
ATOM      2  N   UNL     1      34.048 -15.549 -24.750  0.00  0.00    -0.392 NA
ATOM      3  C   UNL     1      33.326 -11.928 -24.170  0.00  0.00    -0.017 C 
ATOM      4  C   UNL     1      34.130 -14.231 -22.894  0.00  0.00    +0.079 C 
ATOM      5  C   UNL     1      33.856 -14.280 -24.258  0.00  0.00    +0.128 C 
ATOM      6  C   UNL     1      34.431 -16.263 -23.715  0.00  0.00    +0.183 C 
ATOM      7  C   UNL     1      33.445 -13.108 -24.916  0.00  0.00    +0.084 C 
ATOM      8  C   UNL     1      33.609 -11.911 -22.802  0.00  0.00    -0.005 C 
ATOM      9  C   UNL     1      34.020 -13.067 -22.131  0.00  0.00    +0.017 C 
ATOM     10  C   UNL     1      34.882 -15.983 -21.262  0.00  0.00    +0.120 C 
ENDROOT
BRANCH   3  11
ATOM     11  C   UNL     1      32.891 -10.671 -24.849  0.00  0.00    +0.120 C 
BRANCH  11  12
ATOM     12  N   UNL     1      33.537  -9.489 -24.270  0.00  0.00    -0.260 N 
ATOM     13  N   UNL     1      35.108  -8.012 -23.817  0.00  0.00    -0.394 NA
ATOM     14  C   UNL     1      32.935  -8.592 -23.445  0.00  0.00    +0.079 C 
ATOM     15  C   UNL     1      34.825  -9.117 -24.470  0.00  0.00    +0.164 C 
ATOM     16  C   UNL     1      33.942  -7.670 -23.172  0.00  0.00    +0.128 C 
ATOM     17  C   UNL     1      31.645  -8.495 -22.924  0.00  0.00    +0.017 C 
ATOM     18  C   UNL     1      35.757  -9.883 -25.322  0.00  0.00    +0.084 C 
ATOM     19  C   UNL     1      33.661  -6.580 -22.330  0.00  0.00    +0.086 C 
ATOM     20  C   UNL     1      31.384  -7.404 -22.088  0.00  0.00    -0.003 C 
ATOM     21  C   UNL     1      32.373  -6.462 -21.795  0.00  0.00    -0.019 C 
ENDBRANCH  11  12
ENDBRANCH   3  11
BRANCH   6  22
ATOM     22  C   UNL     1      34.762 -17.702 -23.729  0.00  0.00    +0.164 C 
BRANCH  22  23
ATOM     23  N   UNL     1      35.973 -18.067 -23.003  0.00  0.00    -0.326 N 
ATOM     24  H   UNL     1      36.833 -17.695 -23.309  0.00  0.00    +0.147 HD
BRANCH  23  25
ATOM     25  C   UNL     1      35.975 -18.908 -21.911  0.00  0.00    +0.045 C 
ATOM     26  C   UNL     1      37.130 -19.070 -21.116  0.00  0.00    +0.014 C 
ATOM     27  C   UNL     1      34.823 -19.639 -21.552  0.00  0.00    +0.014 C 
ATOM     28  C   UNL     1      37.132 -19.923 -20.013  0.00  0.00    +0.004 C 
ATOM     29  C   UNL     1      34.825 -20.491 -20.449  0.00  0.00    +0.004 C 
ATOM     30  C   UNL     1      35.979 -20.634 -19.680  0.00  0.00    +0.031 C 
BRANCH  30  33
ATOM     31  N   UNL     1      36.883 -21.352 -17.481  0.00  0.00    -0.343 N 
ATOM     32  N   UNL     1      35.119 -22.524 -18.469  0.00  0.00    -0.285 NA
ATOM     33  C   UNL     1      35.982 -21.525 -18.530  0.00  0.00    +0.117 C 
ATOM     34  H   UNL     1      36.867 -21.967 -16.711  0.00  0.00    +0.144 HD
ATOM     35  H   UNL     1      37.535 -20.615 -17.508  0.00  0.00    +0.144 HD
ATOM     36  H   UNL     1      35.119 -23.128 -17.691  0.00  0.00    +0.188 HD
ENDBRANCH  30  33
ENDBRANCH  23  25
ENDBRANCH  22  23
ENDBRANCH   6  22
TORSDOF 6
ENDMDL
MODEL 8
REMARK VINA RESULT:     -10.4      6.954     13.612
REMARK  Name = 445756
REMARK  6 active torsions:
REMARK  status: ('A' for Active; 'I' for Inactive)
REMARK    1  A    between atoms: C_3  and  C_11
REMARK    2  A    between atoms: C_6  and  C_22
REMARK    3  A    between atoms: C_11  and  N_12
REMARK    4  A    between atoms: C_22  and  N_23
REMARK    5  A    between atoms: N_23  and  C_25
REMARK    6  A    between atoms: C_30  and  C_33
REMARK                            x       y       z     vdW  Elec       q    Type
REMARK                         _______ _______ _______ _____ _____    ______ ____
ROOT
ATOM      1  N   UNL     1      32.127 -23.161 -15.779  0.00  0.00    -0.261 N 
ATOM      2  N   UNL     1      34.309 -23.184 -16.203  0.00  0.00    -0.392 NA
ATOM      3  C   UNL     1      34.479 -24.549 -12.728  0.00  0.00    -0.017 C 
ATOM      4  C   UNL     1      32.716 -23.653 -14.643  0.00  0.00    +0.079 C 
ATOM      5  C   UNL     1      34.078 -23.658 -14.933  0.00  0.00    +0.128 C 
ATOM      6  C   UNL     1      33.119 -22.895 -16.682  0.00  0.00    +0.183 C 
ATOM      7  C   UNL     1      34.984 -24.114 -13.961  0.00  0.00    +0.084 C 
ATOM      8  C   UNL     1      33.107 -24.533 -12.467  0.00  0.00    -0.005 C 
ATOM      9  C   UNL     1      32.191 -24.082 -13.423  0.00  0.00    +0.017 C 
ATOM     10  C   UNL     1      30.710 -22.960 -15.982  0.00  0.00    +0.120 C 
ENDROOT
BRANCH   3  11
ATOM     11  C   UNL     1      35.424 -25.039 -11.681  0.00  0.00    +0.120 C 
BRANCH  11  12
ATOM     12  N   UNL     1      36.821 -24.797 -12.052  0.00  0.00    -0.260 N 
ATOM     13  N   UNL     1      38.814 -23.856 -12.081  0.00  0.00    -0.394 NA
ATOM     14  C   UNL     1      37.530 -25.524 -12.956  0.00  0.00    +0.079 C 
ATOM     15  C   UNL     1      37.611 -23.815 -11.553  0.00  0.00    +0.164 C 
ATOM     16  C   UNL     1      38.782 -24.915 -12.959  0.00  0.00    +0.128 C 
ATOM     17  C   UNL     1      37.211 -26.625 -13.751  0.00  0.00    +0.017 C 
ATOM     18  C   UNL     1      37.141 -22.846 -10.542  0.00  0.00    +0.084 C 
ATOM     19  C   UNL     1      39.788 -25.422 -13.799  0.00  0.00    +0.086 C 
ATOM     20  C   UNL     1      38.224 -27.116 -14.582  0.00  0.00    -0.003 C 
ATOM     21  C   UNL     1      39.491 -26.527 -14.607  0.00  0.00    -0.019 C 
ENDBRANCH  11  12
ENDBRANCH   3  11
BRANCH   6  22
ATOM     22  C   UNL     1      32.834 -22.348 -18.023  0.00  0.00    +0.164 C 
BRANCH  22  23
ATOM     23  N   UNL     1      33.877 -22.571 -19.019  0.00  0.00    -0.326 N 
ATOM     24  H   UNL     1      34.113 -23.500 -19.248  0.00  0.00    +0.147 HD
BRANCH  23  25
ATOM     25  C   UNL     1      34.548 -21.548 -19.653  0.00  0.00    +0.045 C 
ATOM     26  C   UNL     1      35.936 -21.365 -19.475  0.00  0.00    +0.014 C 
ATOM     27  C   UNL     1      33.870 -20.647 -20.500  0.00  0.00    +0.014 C 
ATOM     28  C   UNL     1      36.614 -20.329 -20.115  0.00  0.00    +0.004 C 
ATOM     29  C   UNL     1      34.548 -19.610 -21.140  0.00  0.00    +0.004 C 
ATOM     30  C   UNL     1      35.920 -19.451 -20.947  0.00  0.00    +0.031 C 
BRANCH  30  33
ATOM     31  N   UNL     1      38.019 -18.346 -21.682  0.00  0.00    -0.343 N 
ATOM     32  N   UNL     1      35.947 -17.379 -22.166  0.00  0.00    -0.285 NA
ATOM     33  C   UNL     1      36.627 -18.369 -21.614  0.00  0.00    +0.117 C 
ATOM     34  H   UNL     1      38.477 -17.603 -22.139  0.00  0.00    +0.144 HD
ATOM     35  H   UNL     1      38.544 -19.072 -21.275  0.00  0.00    +0.144 HD
ATOM     36  H   UNL     1      36.424 -16.646 -22.618  0.00  0.00    +0.188 HD
ENDBRANCH  30  33
ENDBRANCH  23  25
ENDBRANCH  22  23
ENDBRANCH   6  22
TORSDOF 6
ENDMDL
MODEL 9
REMARK VINA RESULT:     -10.4      1.555      2.408
REMARK  Name = 445756
REMARK  6 active torsions:
REMARK  status: ('A' for Active; 'I' for Inactive)
REMARK    1  A    between atoms: C_3  and  C_11
REMARK    2  A    between atoms: C_6  and  C_22
REMARK    3  A    between atoms: C_11  and  N_12
REMARK    4  A    between atoms: C_22  and  N_23
REMARK    5  A    between atoms: N_23  and  C_25
REMARK    6  A    between atoms: C_30  and  C_33
REMARK                            x       y       z     vdW  Elec       q    Type
REMARK                         _______ _______ _______ _____ _____    ______ ____
ROOT
ATOM      1  N   UNL     1      34.980 -16.520 -21.830  0.00  0.00    -0.261 N 
ATOM      2  N   UNL     1      34.339 -16.666 -23.953  0.00  0.00    -0.392 NA
ATOM      3  C   UNL     1      33.670 -13.017 -23.495  0.00  0.00    -0.017 C 
ATOM      4  C   UNL     1      34.586 -15.255 -22.181  0.00  0.00    +0.079 C 
ATOM      5  C   UNL     1      34.191 -15.372 -23.511  0.00  0.00    +0.128 C 
ATOM      6  C   UNL     1      34.813 -17.327 -22.921  0.00  0.00    +0.183 C 
ATOM      7  C   UNL     1      33.723 -14.234 -24.188  0.00  0.00    +0.084 C 
ATOM      8  C   UNL     1      34.075 -12.931 -22.162  0.00  0.00    -0.005 C 
ATOM      9  C   UNL     1      34.544 -14.054 -21.471  0.00  0.00    +0.017 C 
ATOM     10  C   UNL     1      35.482 -16.925 -20.536  0.00  0.00    +0.120 C 
ENDROOT
BRANCH   3  11
ATOM     11  C   UNL     1      33.177 -11.794 -24.197  0.00  0.00    +0.120 C 
BRANCH  11  12
ATOM     12  N   UNL     1      32.930 -10.693 -23.261  0.00  0.00    -0.260 N 
ATOM     13  N   UNL     1      32.019  -9.558 -21.607  0.00  0.00    -0.394 NA
ATOM     14  C   UNL     1      33.603  -9.512 -23.244  0.00  0.00    +0.079 C 
ATOM     15  C   UNL     1      31.997 -10.688 -22.279  0.00  0.00    +0.164 C 
ATOM     16  C   UNL     1      33.014  -8.812 -22.195  0.00  0.00    +0.128 C 
ATOM     17  C   UNL     1      34.643  -8.998 -24.020  0.00  0.00    +0.017 C 
ATOM     18  C   UNL     1      31.092 -11.828 -22.027  0.00  0.00    +0.084 C 
ATOM     19  C   UNL     1      33.478  -7.522 -21.888  0.00  0.00    +0.086 C 
ATOM     20  C   UNL     1      35.090  -7.712 -23.701  0.00  0.00    -0.003 C 
ATOM     21  C   UNL     1      34.520  -6.985 -22.653  0.00  0.00    -0.019 C 
ENDBRANCH  11  12
ENDBRANCH   3  11
BRANCH   6  22
ATOM     22  C   UNL     1      35.143 -18.767 -22.891  0.00  0.00    +0.164 C 
BRANCH  22  23
ATOM     23  N   UNL     1      35.793 -19.229 -21.670  0.00  0.00    -0.326 N 
ATOM     24  H   UNL     1      36.719 -18.942 -21.495  0.00  0.00    +0.147 HD
BRANCH  23  25
ATOM     25  C   UNL     1      35.176 -20.050 -20.750  0.00  0.00    +0.045 C 
ATOM     26  C   UNL     1      33.769 -20.123 -20.665  0.00  0.00    +0.014 C 
ATOM     27  C   UNL     1      35.930 -20.842 -19.859  0.00  0.00    +0.014 C 
ATOM     28  C   UNL     1      33.145 -20.952 -19.733  0.00  0.00    +0.004 C 
ATOM     29  C   UNL     1      35.306 -21.671 -18.927  0.00  0.00    +0.004 C 
ATOM     30  C   UNL     1      33.914 -21.725 -18.863  0.00  0.00    +0.031 C 
BRANCH  30  33
ATOM     31  N   UNL     1      31.916 -22.435 -17.571  0.00  0.00    -0.343 N 
ATOM     32  N   UNL     1      33.956 -23.538 -17.286  0.00  0.00    -0.285 NA
ATOM     33  C   UNL     1      33.264 -22.588 -17.890  0.00  0.00    +0.117 C 
ATOM     34  H   UNL     1      31.495 -23.031 -16.909  0.00  0.00    +0.144 HD
ATOM     35  H   UNL     1      31.384 -21.732 -18.009  0.00  0.00    +0.144 HD
ATOM     36  H   UNL     1      33.517 -24.123 -16.626  0.00  0.00    +0.188 HD
ENDBRANCH  30  33
ENDBRANCH  23  25
ENDBRANCH  22  23
ENDBRANCH   6  22
TORSDOF 6
ENDMDL
