MODEL 1
REMARK VINA RESULT:     -12.1      0.000      0.000
REMARK  Name = 10156987
REMARK  5 active torsions:
REMARK  status: ('A' for Active; 'I' for Inactive)
REMARK    1  A    between atoms: C_2  and  C_23
REMARK    2  A    between atoms: C_9  and  C_13
REMARK    3  A    between atoms: C_23  and  N_24
REMARK    4  A    between atoms: C_25  and  C_31
REMARK    5  A    between atoms: C_31  and  N_32
REMARK                            x       y       z     vdW  Elec       q    Type
REMARK                         _______ _______ _______ _____ _____    ______ ____
ROOT
ATOM      1  N   UNL     1      35.005 -21.499 -18.445  0.00  0.00    -0.312 N 
ATOM      2  C   UNL     1      35.348 -19.303 -21.906  0.00  0.00    -0.043 C 
ATOM      3  C   UNL     1      34.126 -19.788 -21.438  0.00  0.00    -0.005 C 
ATOM      4  C   UNL     1      36.531 -19.538 -21.218  0.00  0.00    -0.005 C 
ATOM      5  C   UNL     1      34.102 -20.532 -20.241  0.00  0.00    +0.014 C 
ATOM      6  C   UNL     1      35.304 -20.757 -19.567  0.00  0.00    +0.048 C 
ATOM      7  C   UNL     1      36.532 -20.274 -20.030  0.00  0.00    +0.014 C 
ATOM      8  C   UNL     1      33.075 -21.164 -19.487  0.00  0.00    +0.016 C 
ATOM      9  C   UNL     1      33.661 -21.750 -18.389  0.00  0.00    +0.053 C 
ATOM     10  H   UNL     1      35.664 -21.805 -17.781  0.00  0.00    +0.152 HD
ENDROOT
BRANCH   9  13
ATOM     11  O   UNL     1      35.334 -23.143 -16.539  0.00  0.00    -0.270 OA
ATOM     12  N   UNL     1      33.557 -23.909 -15.311  0.00  0.00    -0.280 N 
ATOM     13  C   UNL     1      33.161 -22.513 -17.288  0.00  0.00    +0.067 C 
ATOM     14  C   UNL     1      31.835 -22.601 -17.086  0.00  0.00    +0.007 C 
ATOM     15  C   UNL     1      34.118 -23.205 -16.359  0.00  0.00    +0.251 C 
ATOM     16  C   UNL     1      31.292 -23.365 -15.965  0.00  0.00    +0.014 C 
ATOM     17  C   UNL     1      32.174 -24.007 -15.091  0.00  0.00    +0.051 C 
ATOM     18  C   UNL     1      29.915 -23.465 -15.747  0.00  0.00    +0.001 C 
ATOM     19  C   UNL     1      31.692 -24.745 -14.007  0.00  0.00    +0.015 C 
ATOM     20  C   UNL     1      29.431 -24.202 -14.663  0.00  0.00    +0.000 C 
ATOM     21  C   UNL     1      30.317 -24.840 -13.796  0.00  0.00    +0.001 C 
ATOM     22  H   UNL     1      34.162 -24.368 -14.683  0.00  0.00    +0.155 HD
ENDBRANCH   9  13
BRANCH   2  23
ATOM     23  C   UNL     1      35.380 -18.511 -23.181  0.00  0.00    -0.050 C 
BRANCH  23  24
ATOM     24  N   UNL     1      34.651 -17.249 -23.060  0.00  0.00    +0.390 N 
ATOM     25  C   UNL     1      34.350 -14.335 -23.209  0.00  0.00    -0.026 C 
ATOM     26  C   UNL     1      34.502 -15.079 -21.878  0.00  0.00    -0.025 C 
ATOM     27  C   UNL     1      33.764 -15.278 -24.265  0.00  0.00    -0.025 C 
ATOM     28  C   UNL     1      35.284 -16.382 -22.055  0.00  0.00    -0.077 C 
ATOM     29  C   UNL     1      34.570 -16.575 -24.363  0.00  0.00    -0.077 C 
ATOM     30  H   UNL     1      33.701 -17.448 -22.750  0.00  0.00    -0.079 HD
BRANCH  25  31
ATOM     31  C   UNL     1      33.485 -13.089 -23.046  0.00  0.00    -0.086 C 
BRANCH  31  32
ATOM     32  N   UNL     1      34.155 -11.917 -23.588  0.00  0.00    +0.380 N 
ATOM     33  H   UNL     1      34.097 -11.933 -24.606  0.00  0.00    -0.089 HD
ATOM     34  H   UNL     1      35.135 -11.924 -23.304  0.00  0.00    -0.089 HD
ATOM     35  H   UNL     1      33.705 -11.073 -23.235  0.00  0.00    -0.089 HD
ENDBRANCH  31  32
ENDBRANCH  25  31
ENDBRANCH  23  24
ENDBRANCH   2  23
TORSDOF 5
ENDMDL
MODEL 2
REMARK VINA RESULT:     -11.8      2.103      2.905
REMARK  Name = 10156987
REMARK  5 active torsions:
REMARK  status: ('A' for Active; 'I' for Inactive)
REMARK    1  A    between atoms: C_2  and  C_23
REMARK    2  A    between atoms: C_9  and  C_13
REMARK    3  A    between atoms: C_23  and  N_24
REMARK    4  A    between atoms: C_25  and  C_31
REMARK    5  A    between atoms: C_31  and  N_32
REMARK                            x       y       z     vdW  Elec       q    Type
REMARK                         _______ _______ _______ _____ _____    ______ ____
ROOT
ATOM      1  N   UNL     1      36.258 -20.688 -19.141  0.00  0.00    -0.312 N 
ATOM      2  C   UNL     1      35.381 -18.567 -22.554  0.00  0.00    -0.043 C 
ATOM      3  C   UNL     1      34.442 -19.364 -21.899  0.00  0.00    -0.005 C 
ATOM      4  C   UNL     1      36.682 -18.444 -22.081  0.00  0.00    -0.005 C 
ATOM      5  C   UNL     1      34.830 -20.056 -20.734  0.00  0.00    +0.014 C 
ATOM      6  C   UNL     1      36.143 -19.919 -20.278  0.00  0.00    +0.048 C 
ATOM      7  C   UNL     1      37.090 -19.121 -20.929  0.00  0.00    +0.014 C 
ATOM      8  C   UNL     1      34.165 -20.933 -19.833  0.00  0.00    +0.016 C 
ATOM      9  C   UNL     1      35.068 -21.304 -18.865  0.00  0.00    +0.053 C 
ATOM     10  H   UNL     1      37.079 -20.781 -18.605  0.00  0.00    +0.152 HD
ENDROOT
BRANCH   9  13
ATOM     11  O   UNL     1      32.726 -22.756 -18.110  0.00  0.00    -0.270 OA
ATOM     12  N   UNL     1      33.740 -23.693 -16.281  0.00  0.00    -0.280 N 
ATOM     13  C   UNL     1      34.996 -22.150 -17.714  0.00  0.00    +0.067 C 
ATOM     14  C   UNL     1      36.073 -22.289 -16.922  0.00  0.00    +0.007 C 
ATOM     15  C   UNL     1      33.723 -22.884 -17.401  0.00  0.00    +0.251 C 
ATOM     16  C   UNL     1      36.037 -23.153 -15.744  0.00  0.00    +0.014 C 
ATOM     17  C   UNL     1      34.859 -23.845 -15.447  0.00  0.00    +0.051 C 
ATOM     18  C   UNL     1      37.150 -23.304 -14.912  0.00  0.00    +0.001 C 
ATOM     19  C   UNL     1      34.787 -24.682 -14.330  0.00  0.00    +0.015 C 
ATOM     20  C   UNL     1      37.080 -24.140 -13.795  0.00  0.00    +0.000 C 
ATOM     21  C   UNL     1      35.901 -24.827 -13.505  0.00  0.00    +0.001 C 
ATOM     22  H   UNL     1      32.920 -24.190 -16.055  0.00  0.00    +0.155 HD
ENDBRANCH   9  13
BRANCH   2  23
ATOM     23  C   UNL     1      34.975 -17.828 -23.796  0.00  0.00    -0.050 C 
BRANCH  23  24
ATOM     24  N   UNL     1      34.291 -16.573 -23.486  0.00  0.00    +0.390 N 
ATOM     25  C   UNL     1      34.069 -13.656 -23.276  0.00  0.00    -0.026 C 
ATOM     26  C   UNL     1      34.269 -14.556 -22.052  0.00  0.00    -0.025 C 
ATOM     27  C   UNL     1      33.399 -14.453 -24.400  0.00  0.00    -0.025 C 
ATOM     28  C   UNL     1      35.002 -15.846 -22.425  0.00  0.00    -0.077 C 
ATOM     29  C   UNL     1      34.160 -15.748 -24.695  0.00  0.00    -0.077 C 
ATOM     30  H   UNL     1      33.353 -16.785 -23.148  0.00  0.00    -0.079 HD
BRANCH  25  31
ATOM     31  C   UNL     1      33.251 -12.418 -22.919  0.00  0.00    -0.086 C 
BRANCH  31  32
ATOM     32  N   UNL     1      32.224 -12.738 -21.941  0.00  0.00    +0.380 N 
ATOM     33  H   UNL     1      32.395 -13.669 -21.562  0.00  0.00    -0.089 HD
ATOM     34  H   UNL     1      31.308 -12.717 -22.390  0.00  0.00    -0.089 HD
ATOM     35  H   UNL     1      32.247 -12.054 -21.185  0.00  0.00    -0.089 HD
ENDBRANCH  31  32
ENDBRANCH  25  31
ENDBRANCH  23  24
ENDBRANCH   2  23
TORSDOF 5
ENDMDL
MODEL 3
REMARK VINA RESULT:     -11.6      3.545     11.288
REMARK  Name = 10156987
REMARK  5 active torsions:
REMARK  status: ('A' for Active; 'I' for Inactive)
REMARK    1  A    between atoms: C_2  and  C_23
REMARK    2  A    between atoms: C_9  and  C_13
REMARK    3  A    between atoms: C_23  and  N_24
REMARK    4  A    between atoms: C_25  and  C_31
REMARK    5  A    between atoms: C_31  and  N_32
REMARK                            x       y       z     vdW  Elec       q    Type
REMARK                         _______ _______ _______ _____ _____    ______ ____
ROOT
ATOM      1  N   UNL     1      33.424 -13.964 -23.705  0.00  0.00    -0.312 N 
ATOM      2  C   UNL     1      35.314 -17.502 -22.796  0.00  0.00    -0.043 C 
ATOM      3  C   UNL     1      35.296 -16.411 -21.926  0.00  0.00    -0.005 C 
ATOM      4  C   UNL     1      34.684 -17.452 -24.033  0.00  0.00    -0.005 C 
ATOM      5  C   UNL     1      34.623 -15.237 -22.320  0.00  0.00    +0.014 C 
ATOM      6  C   UNL     1      33.998 -15.208 -23.569  0.00  0.00    +0.048 C 
ATOM      7  C   UNL     1      34.012 -16.298 -24.446  0.00  0.00    +0.014 C 
ATOM      8  C   UNL     1      34.404 -13.969 -21.714  0.00  0.00    +0.016 C 
ATOM      9  C   UNL     1      33.664 -13.208 -22.589  0.00  0.00    +0.053 C 
ATOM     10  H   UNL     1      32.915 -13.662 -24.492  0.00  0.00    +0.152 HD
ENDROOT
BRANCH   9  13
ATOM     11  O   UNL     1      31.304 -12.474 -21.156  0.00  0.00    -0.270 OA
ATOM     12  N   UNL     1      31.468 -10.269 -21.759  0.00  0.00    -0.280 N 
ATOM     13  C   UNL     1      33.143 -11.877 -22.550  0.00  0.00    +0.067 C 
ATOM     14  C   UNL     1      33.774 -10.895 -23.216  0.00  0.00    +0.007 C 
ATOM     15  C   UNL     1      31.899 -11.582 -21.760  0.00  0.00    +0.251 C 
ATOM     16  C   UNL     1      33.273  -9.523 -23.189  0.00  0.00    +0.014 C 
ATOM     17  C   UNL     1      32.120  -9.236 -22.452  0.00  0.00    +0.051 C 
ATOM     18  C   UNL     1      33.919  -8.493 -23.879  0.00  0.00    +0.001 C 
ATOM     19  C   UNL     1      31.612  -7.935 -22.400  0.00  0.00    +0.015 C 
ATOM     20  C   UNL     1      33.413  -7.192 -23.828  0.00  0.00    +0.000 C 
ATOM     21  C   UNL     1      32.263  -6.914 -23.091  0.00  0.00    +0.001 C 
ATOM     22  H   UNL     1      30.659 -10.046 -21.245  0.00  0.00    +0.155 HD
ENDBRANCH   9  13
BRANCH   2  23
ATOM     23  C   UNL     1      36.030 -18.755 -22.383  0.00  0.00    -0.050 C 
BRANCH  23  24
ATOM     24  N   UNL     1      35.454 -19.341 -21.173  0.00  0.00    +0.390 N 
ATOM     25  C   UNL     1      34.423 -21.534 -19.521  0.00  0.00    -0.026 C 
ATOM     26  C   UNL     1      33.504 -20.512 -20.198  0.00  0.00    -0.025 C 
ATOM     27  C   UNL     1      35.807 -20.916 -19.298  0.00  0.00    -0.025 C 
ATOM     28  C   UNL     1      34.144 -19.941 -21.465  0.00  0.00    -0.077 C 
ATOM     29  C   UNL     1      36.372 -20.331 -20.594  0.00  0.00    -0.077 C 
ATOM     30  H   UNL     1      35.315 -18.602 -20.485  0.00  0.00    -0.079 HD
BRANCH  25  31
ATOM     31  C   UNL     1      33.824 -22.026 -18.206  0.00  0.00    -0.086 C 
BRANCH  31  32
ATOM     32  N   UNL     1      32.370 -21.995 -18.255  0.00  0.00    +0.380 N 
ATOM     33  H   UNL     1      32.065 -21.884 -19.221  0.00  0.00    -0.089 HD
ATOM     34  H   UNL     1      32.028 -21.211 -17.699  0.00  0.00    -0.089 HD
ATOM     35  H   UNL     1      31.998 -22.867 -17.878  0.00  0.00    -0.089 HD
ENDBRANCH  31  32
ENDBRANCH  25  31
ENDBRANCH  23  24
ENDBRANCH   2  23
TORSDOF 5
ENDMDL
MODEL 4
REMARK VINA RESULT:     -11.4      6.250     10.831
REMARK  Name = 10156987
REMARK  5 active torsions:
REMARK  status: ('A' for Active; 'I' for Inactive)
REMARK    1  A    between atoms: C_2  and  C_23
REMARK    2  A    between atoms: C_9  and  C_13
REMARK    3  A    between atoms: C_23  and  N_24
REMARK    4  A    between atoms: C_25  and  C_31
REMARK    5  A    between atoms: C_31  and  N_32
REMARK                            x       y       z     vdW  Elec       q    Type
REMARK                         _______ _______ _______ _____ _____    ______ ____
ROOT
ATOM      1  N   UNL     1      34.230 -12.207 -23.627  0.00  0.00    -0.312 N 
ATOM      2  C   UNL     1      32.123  -8.797 -22.704  0.00  0.00    -0.043 C 
ATOM      3  C   UNL     1      31.767 -10.057 -22.224  0.00  0.00    -0.005 C 
ATOM      4  C   UNL     1      33.226  -8.623 -23.531  0.00  0.00    -0.005 C 
ATOM      5  C   UNL     1      32.546 -11.172 -22.591  0.00  0.00    +0.014 C 
ATOM      6  C   UNL     1      33.650 -10.974 -23.424  0.00  0.00    +0.048 C 
ATOM      7  C   UNL     1      34.014  -9.714 -23.909  0.00  0.00    +0.014 C 
ATOM      8  C   UNL     1      32.486 -12.564 -22.303  0.00  0.00    +0.016 C 
ATOM      9  C   UNL     1      33.533 -13.173 -22.953  0.00  0.00    +0.053 C 
ATOM     10  H   UNL     1      35.030 -12.369 -24.177  0.00  0.00    +0.152 HD
ENDROOT
BRANCH   9  13
ATOM     11  O   UNL     1      33.498 -14.692 -25.373  0.00  0.00    -0.270 OA
ATOM     12  N   UNL     1      34.417 -16.541 -24.377  0.00  0.00    -0.280 N 
ATOM     13  C   UNL     1      33.990 -14.525 -23.047  0.00  0.00    +0.067 C 
ATOM     14  C   UNL     1      34.466 -15.144 -21.953  0.00  0.00    +0.007 C 
ATOM     15  C   UNL     1      33.943 -15.243 -24.366  0.00  0.00    +0.251 C 
ATOM     16  C   UNL     1      34.949 -16.522 -22.016  0.00  0.00    +0.014 C 
ATOM     17  C   UNL     1      34.916 -17.197 -23.240  0.00  0.00    +0.051 C 
ATOM     18  C   UNL     1      35.444 -17.177 -20.885  0.00  0.00    +0.001 C 
ATOM     19  C   UNL     1      35.371 -18.514 -23.340  0.00  0.00    +0.015 C 
ATOM     20  C   UNL     1      35.900 -18.493 -20.983  0.00  0.00    +0.000 C 
ATOM     21  C   UNL     1      35.863 -19.160 -22.207  0.00  0.00    +0.001 C 
ATOM     22  H   UNL     1      34.403 -17.033 -25.230  0.00  0.00    +0.155 HD
ENDBRANCH   9  13
BRANCH   2  23
ATOM     23  C   UNL     1      31.296  -7.606 -22.318  0.00  0.00    -0.050 C 
BRANCH  23  24
ATOM     24  N   UNL     1      31.824  -6.365 -22.884  0.00  0.00    +0.390 N 
ATOM     25  C   UNL     1      31.614  -3.710 -24.112  0.00  0.00    -0.026 C 
ATOM     26  C   UNL     1      32.005  -4.957 -24.911  0.00  0.00    -0.025 C 
ATOM     27  C   UNL     1      31.975  -3.908 -22.636  0.00  0.00    -0.025 C 
ATOM     28  C   UNL     1      31.416  -6.225 -24.289  0.00  0.00    -0.077 C 
ATOM     29  C   UNL     1      31.387  -5.210 -22.088  0.00  0.00    -0.077 C 
ATOM     30  H   UNL     1      32.843  -6.399 -22.854  0.00  0.00    -0.079 HD
BRANCH  25  31
ATOM     31  C   UNL     1      32.286  -2.462 -24.678  0.00  0.00    -0.086 C 
BRANCH  31  32
ATOM     32  N   UNL     1      33.333  -2.819 -25.622  0.00  0.00    +0.380 N 
ATOM     33  H   UNL     1      33.827  -3.645 -25.285  0.00  0.00    -0.089 HD
ATOM     34  H   UNL     1      33.990  -2.043 -25.712  0.00  0.00    -0.089 HD
ATOM     35  H   UNL     1      32.918  -3.020 -26.532  0.00  0.00    -0.089 HD
ENDBRANCH  31  32
ENDBRANCH  25  31
ENDBRANCH  23  24
ENDBRANCH   2  23
TORSDOF 5
ENDMDL
MODEL 5
REMARK VINA RESULT:     -11.3      4.657     12.350
REMARK  Name = 10156987
REMARK  5 active torsions:
REMARK  status: ('A' for Active; 'I' for Inactive)
REMARK    1  A    between atoms: C_2  and  C_23
REMARK    2  A    between atoms: C_9  and  C_13
REMARK    3  A    between atoms: C_23  and  N_24
REMARK    4  A    between atoms: C_25  and  C_31
REMARK    5  A    between atoms: C_31  and  N_32
REMARK                            x       y       z     vdW  Elec       q    Type
REMARK                         _______ _______ _______ _____ _____    ______ ____
ROOT
ATOM      1  N   UNL     1      33.576 -12.140 -21.611  0.00  0.00    -0.312 N 
ATOM      2  C   UNL     1      34.819 -15.984 -22.382  0.00  0.00    -0.043 C 
ATOM      3  C   UNL     1      34.630 -15.036 -23.388  0.00  0.00    -0.005 C 
ATOM      4  C   UNL     1      34.596 -15.676 -21.046  0.00  0.00    -0.005 C 
ATOM      5  C   UNL     1      34.202 -13.741 -23.032  0.00  0.00    +0.014 C 
ATOM      6  C   UNL     1      33.983 -13.454 -21.683  0.00  0.00    +0.048 C 
ATOM      7  C   UNL     1      34.171 -14.399 -20.669  0.00  0.00    +0.014 C 
ATOM      8  C   UNL     1      33.913 -12.556 -23.764  0.00  0.00    +0.016 C 
ATOM      9  C   UNL     1      33.531 -11.590 -22.863  0.00  0.00    +0.053 C 
ATOM     10  H   UNL     1      33.351 -11.665 -20.778  0.00  0.00    +0.152 HD
ENDROOT
BRANCH   9  13
ATOM     11  O   UNL     1      30.970 -10.616 -22.051  0.00  0.00    -0.270 OA
ATOM     12  N   UNL     1      31.453  -8.461 -22.662  0.00  0.00    -0.280 N 
ATOM     13  C   UNL     1      33.127 -10.224 -22.986  0.00  0.00    +0.067 C 
ATOM     14  C   UNL     1      33.975  -9.323 -23.512  0.00  0.00    +0.007 C 
ATOM     15  C   UNL     1      31.762  -9.800 -22.522  0.00  0.00    +0.251 C 
ATOM     16  C   UNL     1      33.597  -7.918 -23.645  0.00  0.00    +0.014 C 
ATOM     17  C   UNL     1      32.332  -7.512 -23.210  0.00  0.00    +0.051 C 
ATOM     18  C   UNL     1      34.470  -6.973 -24.191  0.00  0.00    +0.001 C 
ATOM     19  C   UNL     1      31.935  -6.177 -23.317  0.00  0.00    +0.015 C 
ATOM     20  C   UNL     1      34.076  -5.637 -24.300  0.00  0.00    +0.000 C 
ATOM     21  C   UNL     1      32.812  -5.241 -23.864  0.00  0.00    +0.001 C 
ATOM     22  H   UNL     1      30.567  -8.154 -22.360  0.00  0.00    +0.155 HD
ENDBRANCH   9  13
BRANCH   2  23
ATOM     23  C   UNL     1      35.273 -17.365 -22.755  0.00  0.00    -0.050 C 
BRANCH  23  24
ATOM     24  N   UNL     1      35.387 -18.238 -21.586  0.00  0.00    +0.390 N 
ATOM     25  C   UNL     1      35.967 -20.761 -20.207  0.00  0.00    -0.026 C 
ATOM     26  C   UNL     1      34.537 -20.274 -20.465  0.00  0.00    -0.025 C 
ATOM     27  C   UNL     1      36.921 -19.563 -20.167  0.00  0.00    -0.025 C 
ATOM     28  C   UNL     1      34.468 -19.379 -21.705  0.00  0.00    -0.077 C 
ATOM     29  C   UNL     1      36.775 -18.691 -21.416  0.00  0.00    -0.077 C 
ATOM     30  H   UNL     1      35.126 -17.708 -20.755  0.00  0.00    -0.079 HD
BRANCH  25  31
ATOM     31  C   UNL     1      36.047 -21.569 -18.915  0.00  0.00    -0.086 C 
BRANCH  31  32
ATOM     32  N   UNL     1      36.956 -20.945 -17.968  0.00  0.00    +0.380 N 
ATOM     33  H   UNL     1      36.539 -20.085 -17.613  0.00  0.00    -0.089 HD
ATOM     34  H   UNL     1      37.837 -20.728 -18.434  0.00  0.00    -0.089 HD
ATOM     35  H   UNL     1      37.131 -21.584 -17.191  0.00  0.00    -0.089 HD
ENDBRANCH  31  32
ENDBRANCH  25  31
ENDBRANCH  23  24
ENDBRANCH   2  23
TORSDOF 5
ENDMDL
MODEL 6
REMARK VINA RESULT:     -11.2      6.397     10.623
REMARK  Name = 10156987
REMARK  5 active torsions:
REMARK  status: ('A' for Active; 'I' for Inactive)
REMARK    1  A    between atoms: C_2  and  C_23
REMARK    2  A    between atoms: C_9  and  C_13
REMARK    3  A    between atoms: C_23  and  N_24
REMARK    4  A    between atoms: C_25  and  C_31
REMARK    5  A    between atoms: C_31  and  N_32
REMARK                            x       y       z     vdW  Elec       q    Type
REMARK                         _______ _______ _______ _____ _____    ______ ____
ROOT
ATOM      1  N   UNL     1      32.565 -12.808 -22.014  0.00  0.00    -0.312 N 
ATOM      2  C   UNL     1      31.931  -8.775 -22.514  0.00  0.00    -0.043 C 
ATOM      3  C   UNL     1      32.815  -9.505 -23.311  0.00  0.00    -0.005 C 
ATOM      4  C   UNL     1      31.206  -9.381 -21.496  0.00  0.00    -0.005 C 
ATOM      5  C   UNL     1      32.970 -10.884 -23.069  0.00  0.00    +0.014 C 
ATOM      6  C   UNL     1      32.232 -11.472 -22.039  0.00  0.00    +0.048 C 
ATOM      7  C   UNL     1      31.344 -10.747 -21.237  0.00  0.00    +0.014 C 
ATOM      8  C   UNL     1      33.755 -11.913 -23.659  0.00  0.00    +0.016 C 
ATOM      9  C   UNL     1      33.485 -13.084 -22.990  0.00  0.00    +0.053 C 
ATOM     10  H   UNL     1      32.195 -13.470 -21.385  0.00  0.00    +0.152 HD
ENDROOT
BRANCH   9  13
ATOM     11  O   UNL     1      33.397 -14.568 -25.430  0.00  0.00    -0.270 OA
ATOM     12  N   UNL     1      34.363 -16.421 -24.487  0.00  0.00    -0.280 N 
ATOM     13  C   UNL     1      33.953 -14.429 -23.116  0.00  0.00    +0.067 C 
ATOM     14  C   UNL     1      34.467 -15.059 -22.046  0.00  0.00    +0.007 C 
ATOM     15  C   UNL     1      33.876 -15.128 -24.444  0.00  0.00    +0.251 C 
ATOM     16  C   UNL     1      34.962 -16.430 -22.142  0.00  0.00    +0.014 C 
ATOM     17  C   UNL     1      34.901 -17.087 -23.375  0.00  0.00    +0.051 C 
ATOM     18  C   UNL     1      35.496 -17.095 -21.035  0.00  0.00    +0.001 C 
ATOM     19  C   UNL     1      35.368 -18.398 -23.507  0.00  0.00    +0.015 C 
ATOM     20  C   UNL     1      35.964 -18.405 -21.166  0.00  0.00    +0.000 C 
ATOM     21  C   UNL     1      35.899 -19.055 -22.398  0.00  0.00    +0.001 C 
ATOM     22  H   UNL     1      34.330 -16.901 -25.347  0.00  0.00    +0.155 HD
ENDBRANCH   9  13
BRANCH   2  23
ATOM     23  C   UNL     1      31.762  -7.305 -22.766  0.00  0.00    -0.050 C 
BRANCH  23  24
ATOM     24  N   UNL     1      32.668  -6.821 -23.807  0.00  0.00    +0.390 N 
ATOM     25  C   UNL     1      34.274  -4.795 -25.193  0.00  0.00    -0.026 C 
ATOM     26  C   UNL     1      32.933  -5.298 -25.740  0.00  0.00    -0.025 C 
ATOM     27  C   UNL     1      34.899  -5.865 -24.292  0.00  0.00    -0.025 C 
ATOM     28  C   UNL     1      32.017  -5.778 -24.612  0.00  0.00    -0.077 C 
ATOM     29  C   UNL     1      33.918  -6.327 -23.212  0.00  0.00    -0.077 C 
ATOM     30  H   UNL     1      32.901  -7.597 -24.427  0.00  0.00    -0.079 HD
BRANCH  25  31
ATOM     31  C   UNL     1      35.220  -4.411 -26.327  0.00  0.00    -0.086 C 
BRANCH  31  32
ATOM     32  N   UNL     1      34.506  -4.320 -27.591  0.00  0.00    +0.380 N 
ATOM     33  H   UNL     1      33.564  -3.967 -27.424  0.00  0.00    -0.089 HD
ATOM     34  H   UNL     1      34.451  -5.245 -28.019  0.00  0.00    -0.089 HD
ATOM     35  H   UNL     1      35.001  -3.684 -28.217  0.00  0.00    -0.089 HD
ENDBRANCH  31  32
ENDBRANCH  25  31
ENDBRANCH  23  24
ENDBRANCH   2  23
TORSDOF 5
ENDMDL
MODEL 7
REMARK VINA RESULT:     -11.0      3.631     11.182
REMARK  Name = 10156987
REMARK  5 active torsions:
REMARK  status: ('A' for Active; 'I' for Inactive)
REMARK    1  A    between atoms: C_2  and  C_23
REMARK    2  A    between atoms: C_9  and  C_13
REMARK    3  A    between atoms: C_23  and  N_24
REMARK    4  A    between atoms: C_25  and  C_31
REMARK    5  A    between atoms: C_31  and  N_32
REMARK                            x       y       z     vdW  Elec       q    Type
REMARK                         _______ _______ _______ _____ _____    ______ ____
ROOT
ATOM      1  N   UNL     1      33.572 -14.468 -24.048  0.00  0.00    -0.312 N 
ATOM      2  C   UNL     1      35.235 -17.946 -22.616  0.00  0.00    -0.043 C 
ATOM      3  C   UNL     1      35.292 -16.739 -21.918  0.00  0.00    -0.005 C 
ATOM      4  C   UNL     1      34.603 -18.040 -23.849  0.00  0.00    -0.005 C 
ATOM      5  C   UNL     1      34.694 -15.596 -22.485  0.00  0.00    +0.014 C 
ATOM      6  C   UNL     1      34.066 -15.713 -23.726  0.00  0.00    +0.048 C 
ATOM      7  C   UNL     1      34.004 -16.919 -24.431  0.00  0.00    +0.014 C 
ATOM      8  C   UNL     1      34.560 -14.240 -22.075  0.00  0.00    +0.016 C 
ATOM      9  C   UNL     1      33.866 -13.572 -23.057  0.00  0.00    +0.053 C 
ATOM     10  H   UNL     1      33.079 -14.254 -24.874  0.00  0.00    +0.152 HD
ENDROOT
BRANCH   9  13
ATOM     11  O   UNL     1      34.027 -12.139 -25.524  0.00  0.00    -0.270 OA
ATOM     12  N   UNL     1      33.090 -10.246 -24.634  0.00  0.00    -0.280 N 
ATOM     13  C   UNL     1      33.431 -12.219 -23.218  0.00  0.00    +0.067 C 
ATOM     14  C   UNL     1      32.916 -11.557 -22.168  0.00  0.00    +0.007 C 
ATOM     15  C   UNL     1      33.545 -11.549 -24.557  0.00  0.00    +0.251 C 
ATOM     16  C   UNL     1      32.454 -10.177 -22.300  0.00  0.00    +0.014 C 
ATOM     17  C   UNL     1      32.549  -9.545 -23.544  0.00  0.00    +0.051 C 
ATOM     18  C   UNL     1      31.918  -9.477 -21.215  0.00  0.00    +0.001 C 
ATOM     19  C   UNL     1      32.116  -8.228 -23.709  0.00  0.00    +0.015 C 
ATOM     20  C   UNL     1      31.483  -8.159 -21.379  0.00  0.00    +0.000 C 
ATOM     21  C   UNL     1      31.583  -7.537 -22.622  0.00  0.00    +0.001 C 
ATOM     22  H   UNL     1      33.147  -9.784 -25.502  0.00  0.00    +0.155 HD
ENDBRANCH   9  13
BRANCH   2  23
ATOM     23  C   UNL     1      35.871 -19.167 -22.018  0.00  0.00    -0.050 C 
BRANCH  23  24
ATOM     24  N   UNL     1      35.122 -19.666 -20.865  0.00  0.00    +0.390 N 
ATOM     25  C   UNL     1      33.665 -21.691 -19.323  0.00  0.00    -0.026 C 
ATOM     26  C   UNL     1      32.955 -20.552 -20.062  0.00  0.00    -0.025 C 
ATOM     27  C   UNL     1      35.099 -21.272 -18.983  0.00  0.00    -0.025 C 
ATOM     28  C   UNL     1      33.770 -20.077 -21.267  0.00  0.00    -0.077 C 
ATOM     29  C   UNL     1      35.844 -20.774 -20.223  0.00  0.00    -0.077 C 
ATOM     30  H   UNL     1      35.032 -18.913 -20.183  0.00  0.00    -0.079 HD
BRANCH  25  31
ATOM     31  C   UNL     1      32.898 -22.092 -18.066  0.00  0.00    -0.086 C 
BRANCH  31  32
ATOM     32  N   UNL     1      33.384 -23.359 -17.543  0.00  0.00    +0.380 N 
ATOM     33  H   UNL     1      34.003 -23.185 -16.752  0.00  0.00    -0.089 HD
ATOM     34  H   UNL     1      33.898 -23.854 -18.274  0.00  0.00    -0.089 HD
ATOM     35  H   UNL     1      32.594 -23.928 -17.239  0.00  0.00    -0.089 HD
ENDBRANCH  31  32
ENDBRANCH  25  31
ENDBRANCH  23  24
ENDBRANCH   2  23
TORSDOF 5
ENDMDL
MODEL 8
REMARK VINA RESULT:     -10.6      5.858     13.479
REMARK  Name = 10156987
REMARK  5 active torsions:
REMARK  status: ('A' for Active; 'I' for Inactive)
REMARK    1  A    between atoms: C_2  and  C_23
REMARK    2  A    between atoms: C_9  and  C_13
REMARK    3  A    between atoms: C_23  and  N_24
REMARK    4  A    between atoms: C_25  and  C_31
REMARK    5  A    between atoms: C_31  and  N_32
REMARK                            x       y       z     vdW  Elec       q    Type
REMARK                         _______ _______ _______ _____ _____    ______ ____
ROOT
ATOM      1  N   UNL     1      32.255 -10.280 -22.136  0.00  0.00    -0.312 N 
ATOM      2  C   UNL     1      33.518 -13.792 -23.865  0.00  0.00    -0.043 C 
ATOM      3  C   UNL     1      33.743 -12.542 -24.444  0.00  0.00    -0.005 C 
ATOM      4  C   UNL     1      32.847 -13.919 -22.655  0.00  0.00    -0.005 C 
ATOM      5  C   UNL     1      33.274 -11.390 -23.781  0.00  0.00    +0.014 C 
ATOM      6  C   UNL     1      32.601 -11.541 -22.567  0.00  0.00    +0.048 C 
ATOM      7  C   UNL     1      32.373 -12.791 -21.980  0.00  0.00    +0.014 C 
ATOM      8  C   UNL     1      33.319  -9.996 -24.063  0.00  0.00    +0.016 C 
ATOM      9  C   UNL     1      32.684  -9.340 -23.034  0.00  0.00    +0.053 C 
ATOM     10  H   UNL     1      31.768 -10.083 -21.303  0.00  0.00    +0.152 HD
ENDROOT
BRANCH   9  13
ATOM     11  O   UNL     1      32.693  -8.227 -20.403  0.00  0.00    -0.270 OA
ATOM     12  N   UNL     1      32.190  -6.120 -21.153  0.00  0.00    -0.280 N 
ATOM     13  C   UNL     1      32.412  -7.964 -22.755  0.00  0.00    +0.067 C 
ATOM     14  C   UNL     1      32.130  -7.123 -23.764  0.00  0.00    +0.007 C 
ATOM     15  C   UNL     1      32.449  -7.465 -21.338  0.00  0.00    +0.251 C 
ATOM     16  C   UNL     1      31.856  -5.710 -23.515  0.00  0.00    +0.014 C 
ATOM     17  C   UNL     1      31.895  -5.233 -22.200  0.00  0.00    +0.051 C 
ATOM     18  C   UNL     1      31.560  -4.826 -24.556  0.00  0.00    +0.001 C 
ATOM     19  C   UNL     1      31.641  -3.888 -21.922  0.00  0.00    +0.015 C 
ATOM     20  C   UNL     1      31.307  -3.480 -24.280  0.00  0.00    +0.000 C 
ATOM     21  C   UNL     1      31.346  -3.013 -22.967  0.00  0.00    +0.001 C 
ATOM     22  H   UNL     1      32.213  -5.765 -20.235  0.00  0.00    +0.155 HD
ENDBRANCH   9  13
BRANCH   2  23
ATOM     23  C   UNL     1      34.013 -15.022 -24.567  0.00  0.00    -0.050 C 
BRANCH  23  24
ATOM     24  N   UNL     1      34.103 -16.169 -23.663  0.00  0.00    +0.390 N 
ATOM     25  C   UNL     1      35.401 -18.517 -22.480  0.00  0.00    -0.026 C 
ATOM     26  C   UNL     1      34.261 -18.633 -23.497  0.00  0.00    -0.025 C 
ATOM     27  C   UNL     1      35.309 -17.173 -21.750  0.00  0.00    -0.025 C 
ATOM     28  C   UNL     1      34.219 -17.419 -24.427  0.00  0.00    -0.077 C 
ATOM     29  C   UNL     1      35.233 -16.007 -22.738  0.00  0.00    -0.077 C 
ATOM     30  H   UNL     1      33.248 -16.217 -23.110  0.00  0.00    -0.079 HD
BRANCH  25  31
ATOM     31  C   UNL     1      35.376 -19.681 -21.492  0.00  0.00    -0.086 C 
BRANCH  31  32
ATOM     32  N   UNL     1      36.061 -19.329 -20.258  0.00  0.00    +0.380 N 
ATOM     33  H   UNL     1      35.836 -20.014 -19.538  0.00  0.00    -0.089 HD
ATOM     34  H   UNL     1      35.757 -18.403 -19.953  0.00  0.00    -0.089 HD
ATOM     35  H   UNL     1      37.068 -19.321 -20.418  0.00  0.00    -0.089 HD
ENDBRANCH  31  32
ENDBRANCH  25  31
ENDBRANCH  23  24
ENDBRANCH   2  23
TORSDOF 5
ENDMDL
MODEL 9
REMARK VINA RESULT:     -10.5      7.035     11.732
REMARK  Name = 10156987
REMARK  5 active torsions:
REMARK  status: ('A' for Active; 'I' for Inactive)
REMARK    1  A    between atoms: C_2  and  C_23
REMARK    2  A    between atoms: C_9  and  C_13
REMARK    3  A    between atoms: C_23  and  N_24
REMARK    4  A    between atoms: C_25  and  C_31
REMARK    5  A    between atoms: C_31  and  N_32
REMARK                            x       y       z     vdW  Elec       q    Type
REMARK                         _______ _______ _______ _____ _____    ______ ____
ROOT
ATOM      1  N   UNL     1      32.586 -11.590 -22.609  0.00  0.00    -0.312 N 
ATOM      2  C   UNL     1      32.994  -7.497 -22.631  0.00  0.00    -0.043 C 
ATOM      3  C   UNL     1      33.869  -8.346 -23.309  0.00  0.00    -0.005 C 
ATOM      4  C   UNL     1      31.921  -7.995 -21.903  0.00  0.00    -0.005 C 
ATOM      5  C   UNL     1      33.653  -9.738 -23.247  0.00  0.00    +0.014 C 
ATOM      6  C   UNL     1      32.570 -10.216 -22.508  0.00  0.00    +0.048 C 
ATOM      7  C   UNL     1      31.688  -9.371 -21.826  0.00  0.00    +0.014 C 
ATOM      8  C   UNL     1      34.319 -10.870 -23.793  0.00  0.00    +0.016 C 
ATOM      9  C   UNL     1      33.640 -11.993 -23.383  0.00  0.00    +0.053 C 
ATOM     10  H   UNL     1      31.935 -12.194 -22.184  0.00  0.00    +0.152 HD
ENDROOT
BRANCH   9  13
ATOM     11  O   UNL     1      32.809 -13.347 -25.758  0.00  0.00    -0.270 OA
ATOM     12  N   UNL     1      33.584 -15.376 -25.027  0.00  0.00    -0.280 N 
ATOM     13  C   UNL     1      33.820 -13.395 -23.601  0.00  0.00    +0.067 C 
ATOM     14  C   UNL     1      34.408 -14.146 -22.653  0.00  0.00    +0.007 C 
ATOM     15  C   UNL     1      33.360 -14.020 -24.888  0.00  0.00    +0.251 C 
ATOM     16  C   UNL     1      34.616 -15.579 -22.847  0.00  0.00    +0.014 C 
ATOM     17  C   UNL     1      34.197 -16.169 -24.044  0.00  0.00    +0.051 C 
ATOM     18  C   UNL     1      35.224 -16.370 -21.869  0.00  0.00    +0.001 C 
ATOM     19  C   UNL     1      34.381 -17.536 -24.267  0.00  0.00    +0.015 C 
ATOM     20  C   UNL     1      35.409 -17.737 -22.090  0.00  0.00    +0.000 C 
ATOM     21  C   UNL     1      34.988 -18.318 -23.285  0.00  0.00    +0.001 C 
ATOM     22  H   UNL     1      33.297 -15.811 -25.863  0.00  0.00    +0.155 HD
ENDBRANCH   9  13
BRANCH   2  23
ATOM     23  C   UNL     1      33.218  -6.014 -22.693  0.00  0.00    -0.050 C 
BRANCH  23  24
ATOM     24  N   UNL     1      33.054  -5.491 -24.049  0.00  0.00    +0.390 N 
ATOM     25  C   UNL     1      33.377  -3.505 -26.182  0.00  0.00    -0.026 C 
ATOM     26  C   UNL     1      32.049  -3.713 -25.446  0.00  0.00    -0.025 C 
ATOM     27  C   UNL     1      34.209  -4.790 -26.122  0.00  0.00    -0.025 C 
ATOM     28  C   UNL     1      32.276  -4.245 -24.029  0.00  0.00    -0.077 C 
ATOM     29  C   UNL     1      34.364  -5.287 -24.683  0.00  0.00    -0.077 C 
ATOM     30  H   UNL     1      32.540  -6.175 -24.603  0.00  0.00    -0.079 HD
BRANCH  25  31
ATOM     31  C   UNL     1      33.142  -3.070 -27.626  0.00  0.00    -0.086 C 
BRANCH  31  32
ATOM     32  N   UNL     1      31.839  -2.442 -27.773  0.00  0.00    +0.380 N 
ATOM     33  H   UNL     1      31.827  -1.879 -28.624  0.00  0.00    -0.089 HD
ATOM     34  H   UNL     1      31.657  -1.843 -26.968  0.00  0.00    -0.089 HD
ATOM     35  H   UNL     1      31.118  -3.162 -27.832  0.00  0.00    -0.089 HD
ENDBRANCH  31  32
ENDBRANCH  25  31
ENDBRANCH  23  24
ENDBRANCH   2  23
TORSDOF 5
ENDMDL
