MODEL 1
REMARK VINA RESULT:     -11.6      0.000      0.000
REMARK  Name = 25243828
REMARK  6 active torsions:
REMARK  status: ('A' for Active; 'I' for Inactive)
REMARK    1  A    between atoms: C_1  and  C_18
REMARK    2  A    between atoms: C_4  and  O_7
REMARK    3  A    between atoms: O_7  and  C_9
REMARK    4  A    between atoms: C_11  and  C_17
REMARK    5  A    between atoms: C_18  and  C_21
REMARK    6  A    between atoms: C_26  and  O_27
REMARK                            x       y       z     vdW  Elec       q    Type
REMARK                         _______ _______ _______ _____ _____    ______ ____
ROOT
ATOM      1  C   UNL     1      33.859 -23.464 -14.698  0.00  0.00    -0.019 C 
ATOM      2  C   UNL     1      34.022 -23.550 -16.081  0.00  0.00    +0.033 C 
ATOM      3  C   UNL     1      32.608 -23.166 -14.159  0.00  0.00    -0.004 C 
ATOM      4  C   UNL     1      32.932 -23.337 -16.925  0.00  0.00    +0.147 C 
ATOM      5  C   UNL     1      31.518 -22.953 -15.004  0.00  0.00    +0.003 C 
ATOM      6  C   UNL     1      31.680 -23.039 -16.387  0.00  0.00    +0.038 C 
ENDROOT
BRANCH   4   7
ATOM      7  O   UNL     1      33.090 -23.419 -18.275  0.00  0.00    -0.436 OA
BRANCH   7   9
ATOM      8  N   UNL     1      35.100 -22.449 -18.952  0.00  0.00    -0.210 NA
ATOM      9  C   UNL     1      33.751 -22.380 -18.910  0.00  0.00    +0.230 C 
ATOM     10  C   UNL     1      33.008 -21.348 -19.459  0.00  0.00    +0.058 C 
ATOM     11  C   UNL     1      35.084 -20.354 -20.158  0.00  0.00    +0.091 C 
ATOM     12  C   UNL     1      33.695 -20.319 -20.095  0.00  0.00    +0.010 C 
ATOM     13  C   UNL     1      35.734 -21.430 -19.577  0.00  0.00    +0.106 C 
BRANCH  11  17
ATOM     14  F   UNL     1      35.791 -19.316 -22.195  0.00  0.00    -0.166 F 
ATOM     15  F   UNL     1      35.418 -18.010 -20.503  0.00  0.00    -0.166 F 
ATOM     16  F   UNL     1      37.178 -19.287 -20.521  0.00  0.00    -0.166 F 
ATOM     17  C   UNL     1      35.848 -19.267 -20.829  0.00  0.00    +0.420 C 
ENDBRANCH  11  17
ENDBRANCH   7   9
ENDBRANCH   4   7
BRANCH   1  18
ATOM     18  C   UNL     1      35.034 -23.692 -13.786  0.00  0.00    +0.027 C 
BRANCH  18  21
ATOM     19  O   UNL     1      41.098 -24.748 -14.076  0.00  0.00    -0.226 OA
ATOM     20  N   UNL     1      38.909 -25.380 -14.550  0.00  0.00    -0.246 N 
ATOM     21  C   UNL     1      36.193 -24.363 -14.518  0.00  0.00    +0.008 C 
ATOM     22  C   UNL     1      37.411 -23.428 -14.590  0.00  0.00    +0.022 C 
ATOM     23  C   UNL     1      36.574 -25.689 -13.839  0.00  0.00    +0.022 C 
ATOM     24  C   UNL     1      38.606 -24.123 -15.240  0.00  0.00    +0.097 C 
ATOM     25  C   UNL     1      37.786 -26.326 -14.516  0.00  0.00    +0.097 C 
ATOM     26  C   UNL     1      40.186 -25.573 -14.012  0.00  0.00    +0.402 C 
BRANCH  26  27
ATOM     27  O   UNL     1      40.402 -26.759 -13.374  0.00  0.00    -0.466 OA
ATOM     28  H   UNL     1      40.401 -26.793 -12.439  0.00  0.00    +0.297 HD
ENDBRANCH  26  27
ENDBRANCH  18  21
ENDBRANCH   1  18
TORSDOF 6
ENDMDL
MODEL 2
REMARK VINA RESULT:     -11.1      5.224      8.686
REMARK  Name = 25243828
REMARK  6 active torsions:
REMARK  status: ('A' for Active; 'I' for Inactive)
REMARK    1  A    between atoms: C_1  and  C_18
REMARK    2  A    between atoms: C_4  and  O_7
REMARK    3  A    between atoms: O_7  and  C_9
REMARK    4  A    between atoms: C_11  and  C_17
REMARK    5  A    between atoms: C_18  and  C_21
REMARK    6  A    between atoms: C_26  and  O_27
REMARK                            x       y       z     vdW  Elec       q    Type
REMARK                         _______ _______ _______ _____ _____    ______ ____
ROOT
ATOM      1  C   UNL     1      35.251 -18.618 -21.881  0.00  0.00    -0.019 C 
ATOM      2  C   UNL     1      35.484 -17.255 -22.064  0.00  0.00    +0.033 C 
ATOM      3  C   UNL     1      34.581 -19.350 -22.861  0.00  0.00    -0.004 C 
ATOM      4  C   UNL     1      35.045 -16.623 -23.227  0.00  0.00    +0.147 C 
ATOM      5  C   UNL     1      34.141 -18.717 -24.025  0.00  0.00    +0.003 C 
ATOM      6  C   UNL     1      34.374 -17.354 -24.208  0.00  0.00    +0.038 C 
ENDROOT
BRANCH   4   7
ATOM      7  O   UNL     1      35.269 -15.292 -23.405  0.00  0.00    -0.436 OA
BRANCH   7   9
ATOM      8  N   UNL     1      33.856 -13.441 -23.542  0.00  0.00    -0.210 NA
ATOM      9  C   UNL     1      34.414 -14.404 -22.775  0.00  0.00    +0.230 C 
ATOM     10  C   UNL     1      34.178 -14.548 -21.417  0.00  0.00    +0.058 C 
ATOM     11  C   UNL     1      32.720 -12.641 -21.565  0.00  0.00    +0.091 C 
ATOM     12  C   UNL     1      33.312 -13.646 -20.808  0.00  0.00    +0.010 C 
ATOM     13  C   UNL     1      33.021 -12.582 -22.915  0.00  0.00    +0.106 C 
BRANCH  11  17
ATOM     14  F   UNL     1      32.035 -10.363 -21.305  0.00  0.00    -0.166 F 
ATOM     15  F   UNL     1      30.476 -11.872 -21.252  0.00  0.00    -0.166 F 
ATOM     16  F   UNL     1      31.848 -11.670 -19.577  0.00  0.00    -0.166 F 
ATOM     17  C   UNL     1      31.791 -11.659 -20.941  0.00  0.00    +0.420 C 
ENDBRANCH  11  17
ENDBRANCH   7   9
ENDBRANCH   4   7
BRANCH   1  18
ATOM     18  C   UNL     1      35.722 -19.301 -20.626  0.00  0.00    +0.027 C 
BRANCH  18  21
ATOM     19  O   UNL     1      33.507 -23.329 -16.523  0.00  0.00    -0.226 OA
ATOM     20  N   UNL     1      33.431 -22.333 -18.625  0.00  0.00    -0.246 N 
ATOM     21  C   UNL     1      34.964 -20.602 -20.375  0.00  0.00    +0.008 C 
ATOM     22  C   UNL     1      35.626 -21.413 -19.250  0.00  0.00    +0.022 C 
ATOM     23  C   UNL     1      33.491 -20.320 -20.037  0.00  0.00    +0.022 C 
ATOM     24  C   UNL     1      34.824 -22.673 -18.929  0.00  0.00    +0.097 C 
ATOM     25  C   UNL     1      32.745 -21.611 -19.704  0.00  0.00    +0.097 C 
ATOM     26  C   UNL     1      32.889 -22.714 -17.393  0.00  0.00    +0.402 C 
BRANCH  26  27
ATOM     27  O   UNL     1      31.592 -22.360 -17.166  0.00  0.00    -0.466 OA
ATOM     28  H   UNL     1      31.396 -21.551 -16.738  0.00  0.00    +0.297 HD
ENDBRANCH  26  27
ENDBRANCH  18  21
ENDBRANCH   1  18
TORSDOF 6
ENDMDL
MODEL 3
REMARK VINA RESULT:     -10.9      3.195      5.860
REMARK  Name = 25243828
REMARK  6 active torsions:
REMARK  status: ('A' for Active; 'I' for Inactive)
REMARK    1  A    between atoms: C_1  and  C_18
REMARK    2  A    between atoms: C_4  and  O_7
REMARK    3  A    between atoms: O_7  and  C_9
REMARK    4  A    between atoms: C_11  and  C_17
REMARK    5  A    between atoms: C_18  and  C_21
REMARK    6  A    between atoms: C_26  and  O_27
REMARK                            x       y       z     vdW  Elec       q    Type
REMARK                         _______ _______ _______ _____ _____    ______ ____
ROOT
ATOM      1  C   UNL     1      33.504 -24.082 -14.232  0.00  0.00    -0.019 C 
ATOM      2  C   UNL     1      33.186 -24.121 -15.590  0.00  0.00    +0.033 C 
ATOM      3  C   UNL     1      34.638 -23.395 -13.800  0.00  0.00    -0.004 C 
ATOM      4  C   UNL     1      34.004 -23.473 -16.516  0.00  0.00    +0.147 C 
ATOM      5  C   UNL     1      35.457 -22.747 -14.726  0.00  0.00    +0.003 C 
ATOM      6  C   UNL     1      35.139 -22.786 -16.084  0.00  0.00    +0.038 C 
ENDROOT
BRANCH   4   7
ATOM      7  O   UNL     1      33.697 -23.512 -17.841  0.00  0.00    -0.436 OA
BRANCH   7   9
ATOM      8  N   UNL     1      35.434 -22.333 -18.858  0.00  0.00    -0.210 NA
ATOM      9  C   UNL     1      34.107 -22.450 -18.629  0.00  0.00    +0.230 C 
ATOM     10  C   UNL     1      33.154 -21.580 -19.133  0.00  0.00    +0.058 C 
ATOM     11  C   UNL     1      34.948 -20.370 -20.182  0.00  0.00    +0.091 C 
ATOM     12  C   UNL     1      33.591 -20.523 -19.925  0.00  0.00    +0.010 C 
ATOM     13  C   UNL     1      35.822 -21.294 -19.631  0.00  0.00    +0.106 C 
BRANCH  11  17
ATOM     14  F   UNL     1      34.951 -19.253 -22.298  0.00  0.00    -0.166 F 
ATOM     15  F   UNL     1      35.140 -18.011 -20.528  0.00  0.00    -0.166 F 
ATOM     16  F   UNL     1      36.806 -19.256 -21.163  0.00  0.00    -0.166 F 
ATOM     17  C   UNL     1      35.447 -19.249 -21.023  0.00  0.00    +0.420 C 
ENDBRANCH  11  17
ENDBRANCH   7   9
ENDBRANCH   4   7
BRANCH   1  18
ATOM     18  C   UNL     1      32.624 -24.781 -13.233  0.00  0.00    +0.027 C 
BRANCH  18  21
ATOM     19  O   UNL     1      28.296 -22.225 -16.798  0.00  0.00    -0.226 OA
ATOM     20  N   UNL     1      28.913 -23.698 -15.105  0.00  0.00    -0.246 N 
ATOM     21  C   UNL     1      31.157 -24.394 -13.406  0.00  0.00    +0.008 C 
ATOM     22  C   UNL     1      31.030 -23.008 -14.056  0.00  0.00    +0.022 C 
ATOM     23  C   UNL     1      30.408 -25.448 -14.237  0.00  0.00    +0.022 C 
ATOM     24  C   UNL     1      29.567 -22.650 -14.317  0.00  0.00    +0.097 C 
ATOM     25  C   UNL     1      28.960 -25.028 -14.484  0.00  0.00    +0.097 C 
ATOM     26  C   UNL     1      28.316 -23.361 -16.324  0.00  0.00    +0.402 C 
BRANCH  26  27
ATOM     27  O   UNL     1      27.733 -24.382 -17.015  0.00  0.00    -0.466 OA
ATOM     28  H   UNL     1      27.359 -24.222 -17.859  0.00  0.00    +0.297 HD
ENDBRANCH  26  27
ENDBRANCH  18  21
ENDBRANCH   1  18
TORSDOF 6
ENDMDL
MODEL 4
REMARK VINA RESULT:     -10.9      6.095     10.957
REMARK  Name = 25243828
REMARK  6 active torsions:
REMARK  status: ('A' for Active; 'I' for Inactive)
REMARK    1  A    between atoms: C_1  and  C_18
REMARK    2  A    between atoms: C_4  and  O_7
REMARK    3  A    between atoms: O_7  and  C_9
REMARK    4  A    between atoms: C_11  and  C_17
REMARK    5  A    between atoms: C_18  and  C_21
REMARK    6  A    between atoms: C_26  and  O_27
REMARK                            x       y       z     vdW  Elec       q    Type
REMARK                         _______ _______ _______ _____ _____    ______ ____
ROOT
ATOM      1  C   UNL     1      34.937 -16.433 -22.907  0.00  0.00    -0.019 C 
ATOM      2  C   UNL     1      35.634 -17.181 -21.959  0.00  0.00    +0.033 C 
ATOM      3  C   UNL     1      34.250 -17.077 -23.937  0.00  0.00    -0.004 C 
ATOM      4  C   UNL     1      35.645 -18.574 -22.040  0.00  0.00    +0.147 C 
ATOM      5  C   UNL     1      34.262 -18.470 -24.018  0.00  0.00    +0.003 C 
ATOM      6  C   UNL     1      34.959 -19.219 -23.069  0.00  0.00    +0.038 C 
ENDROOT
BRANCH   4   7
ATOM      7  O   UNL     1      36.327 -19.305 -21.116  0.00  0.00    -0.436 OA
BRANCH   7   9
ATOM      8  N   UNL     1      36.295 -20.905 -19.420  0.00  0.00    -0.210 NA
ATOM      9  C   UNL     1      35.597 -20.143 -20.291  0.00  0.00    +0.230 C 
ATOM     10  C   UNL     1      34.216 -20.156 -20.399  0.00  0.00    +0.058 C 
ATOM     11  C   UNL     1      34.188 -21.803 -18.647  0.00  0.00    +0.091 C 
ATOM     12  C   UNL     1      33.505 -21.004 -19.557  0.00  0.00    +0.010 C 
ATOM     13  C   UNL     1      35.570 -21.718 -18.618  0.00  0.00    +0.106 C 
BRANCH  11  17
ATOM     14  F   UNL     1      32.150 -22.372 -17.529  0.00  0.00    -0.166 F 
ATOM     15  F   UNL     1      33.408 -24.016 -18.178  0.00  0.00    -0.166 F 
ATOM     16  F   UNL     1      34.014 -22.787 -16.489  0.00  0.00    -0.166 F 
ATOM     17  C   UNL     1      33.456 -22.723 -17.734  0.00  0.00    +0.420 C 
ENDBRANCH  11  17
ENDBRANCH   7   9
ENDBRANCH   4   7
BRANCH   1  18
ATOM     18  C   UNL     1      34.925 -14.932 -22.822  0.00  0.00    +0.027 C 
BRANCH  18  21
ATOM     19  O   UNL     1      32.046 -11.026 -19.024  0.00  0.00    -0.226 OA
ATOM     20  N   UNL     1      32.059 -12.343 -20.943  0.00  0.00    -0.246 N 
ATOM     21  C   UNL     1      33.601 -14.409 -22.269  0.00  0.00    +0.008 C 
ATOM     22  C   UNL     1      33.698 -14.169 -20.754  0.00  0.00    +0.022 C 
ATOM     23  C   UNL     1      33.178 -13.120 -22.992  0.00  0.00    +0.022 C 
ATOM     24  C   UNL     1      32.408 -13.560 -20.206  0.00  0.00    +0.097 C 
ATOM     25  C   UNL     1      31.897 -12.546 -22.388  0.00  0.00    +0.097 C 
ATOM     26  C   UNL     1      31.907 -11.142 -20.242  0.00  0.00    +0.402 C 
BRANCH  26  27
ATOM     27  O   UNL     1      31.592 -10.042 -20.985  0.00  0.00    -0.466 OA
ATOM     28  H   UNL     1      32.270  -9.553 -21.407  0.00  0.00    +0.297 HD
ENDBRANCH  26  27
ENDBRANCH  18  21
ENDBRANCH   1  18
TORSDOF 6
ENDMDL
MODEL 5
REMARK VINA RESULT:     -10.6      6.516     11.339
REMARK  Name = 25243828
REMARK  6 active torsions:
REMARK  status: ('A' for Active; 'I' for Inactive)
REMARK    1  A    between atoms: C_1  and  C_18
REMARK    2  A    between atoms: C_4  and  O_7
REMARK    3  A    between atoms: O_7  and  C_9
REMARK    4  A    between atoms: C_11  and  C_17
REMARK    5  A    between atoms: C_18  and  C_21
REMARK    6  A    between atoms: C_26  and  O_27
REMARK                            x       y       z     vdW  Elec       q    Type
REMARK                         _______ _______ _______ _____ _____    ______ ____
ROOT
ATOM      1  C   UNL     1      34.926 -16.177 -21.557  0.00  0.00    -0.019 C 
ATOM      2  C   UNL     1      35.560 -17.215 -20.876  0.00  0.00    +0.033 C 
ATOM      3  C   UNL     1      34.644 -16.304 -22.918  0.00  0.00    -0.004 C 
ATOM      4  C   UNL     1      35.913 -18.381 -21.555  0.00  0.00    +0.147 C 
ATOM      5  C   UNL     1      34.997 -17.470 -23.597  0.00  0.00    +0.003 C 
ATOM      6  C   UNL     1      35.632 -18.509 -22.916  0.00  0.00    +0.038 C 
ENDROOT
BRANCH   4   7
ATOM      7  O   UNL     1      36.534 -19.395 -20.892  0.00  0.00    -0.436 OA
BRANCH   7   9
ATOM      8  N   UNL     1      36.389 -20.940 -19.150  0.00  0.00    -0.210 NA
ATOM      9  C   UNL     1      35.753 -20.223 -20.105  0.00  0.00    +0.230 C 
ATOM     10  C   UNL     1      34.387 -20.273 -20.330  0.00  0.00    +0.058 C 
ATOM     11  C   UNL     1      34.242 -21.863 -18.532  0.00  0.00    +0.091 C 
ATOM     12  C   UNL     1      33.624 -21.111 -19.524  0.00  0.00    +0.010 C 
ATOM     13  C   UNL     1      35.615 -21.743 -18.387  0.00  0.00    +0.106 C 
BRANCH  11  17
ATOM     14  F   UNL     1      33.344 -24.045 -18.136  0.00  0.00    -0.166 F 
ATOM     15  F   UNL     1      33.976 -22.911 -16.398  0.00  0.00    -0.166 F 
ATOM     16  F   UNL     1      32.170 -22.341 -17.467  0.00  0.00    -0.166 F 
ATOM     17  C   UNL     1      33.454 -22.770 -17.654  0.00  0.00    +0.420 C 
ENDBRANCH  11  17
ENDBRANCH   7   9
ENDBRANCH   4   7
BRANCH   1  18
ATOM     18  C   UNL     1      34.545 -14.918 -20.827  0.00  0.00    +0.027 C 
BRANCH  18  21
ATOM     19  O   UNL     1      31.600  -9.546 -21.481  0.00  0.00    -0.226 OA
ATOM     20  N   UNL     1      32.463 -11.504 -22.394  0.00  0.00    -0.246 N 
ATOM     21  C   UNL     1      33.553 -14.080 -21.628  0.00  0.00    +0.008 C 
ATOM     22  C   UNL     1      32.636 -13.274 -20.694  0.00  0.00    +0.022 C 
ATOM     23  C   UNL     1      34.288 -13.141 -22.598  0.00  0.00    +0.022 C 
ATOM     24  C   UNL     1      31.699 -12.363 -21.486  0.00  0.00    +0.097 C 
ATOM     25  C   UNL     1      33.306 -12.241 -23.345  0.00  0.00    +0.097 C 
ATOM     26  C   UNL     1      32.329 -10.115 -22.293  0.00  0.00    +0.402 C 
BRANCH  26  27
ATOM     27  O   UNL     1      33.073  -9.370 -23.159  0.00  0.00    -0.466 OA
ATOM     28  H   UNL     1      32.653  -8.898 -23.850  0.00  0.00    +0.297 HD
ENDBRANCH  26  27
ENDBRANCH  18  21
ENDBRANCH   1  18
TORSDOF 6
ENDMDL
MODEL 6
REMARK VINA RESULT:     -10.3      4.963      9.288
REMARK  Name = 25243828
REMARK  6 active torsions:
REMARK  status: ('A' for Active; 'I' for Inactive)
REMARK    1  A    between atoms: C_1  and  C_18
REMARK    2  A    between atoms: C_4  and  O_7
REMARK    3  A    between atoms: O_7  and  C_9
REMARK    4  A    between atoms: C_11  and  C_17
REMARK    5  A    between atoms: C_18  and  C_21
REMARK    6  A    between atoms: C_26  and  O_27
REMARK                            x       y       z     vdW  Elec       q    Type
REMARK                         _______ _______ _______ _____ _____    ______ ____
ROOT
ATOM      1  C   UNL     1      34.693 -21.147 -19.232  0.00  0.00    -0.019 C 
ATOM      2  C   UNL     1      34.102 -21.976 -18.278  0.00  0.00    +0.033 C 
ATOM      3  C   UNL     1      36.071 -20.927 -19.208  0.00  0.00    -0.004 C 
ATOM      4  C   UNL     1      34.889 -22.584 -17.299  0.00  0.00    +0.147 C 
ATOM      5  C   UNL     1      36.857 -21.535 -18.230  0.00  0.00    +0.003 C 
ATOM      6  C   UNL     1      36.267 -22.364 -17.275  0.00  0.00    +0.038 C 
ENDROOT
BRANCH   4   7
ATOM      7  O   UNL     1      34.313 -23.391 -16.367  0.00  0.00    -0.436 OA
BRANCH   7   9
ATOM      8  N   UNL     1      35.553 -25.102 -15.378  0.00  0.00    -0.210 NA
ATOM      9  C   UNL     1      35.104 -23.828 -15.317  0.00  0.00    +0.230 C 
ATOM     10  C   UNL     1      35.388 -22.954 -14.281  0.00  0.00    +0.058 C 
ATOM     11  C   UNL     1      36.667 -24.721 -13.267  0.00  0.00    +0.091 C 
ATOM     12  C   UNL     1      36.187 -23.416 -13.240  0.00  0.00    +0.010 C 
ATOM     13  C   UNL     1      36.325 -25.516 -14.349  0.00  0.00    +0.106 C 
BRANCH  11  17
ATOM     14  F   UNL     1      38.856 -25.263 -12.468  0.00  0.00    -0.166 F 
ATOM     15  F   UNL     1      37.430 -24.525 -11.009  0.00  0.00    -0.166 F 
ATOM     16  F   UNL     1      37.211 -26.530 -11.823  0.00  0.00    -0.166 F 
ATOM     17  C   UNL     1      37.522 -25.245 -12.168  0.00  0.00    +0.420 C 
ENDBRANCH  11  17
ENDBRANCH   7   9
ENDBRANCH   4   7
BRANCH   1  18
ATOM     18  C   UNL     1      33.846 -20.489 -20.286  0.00  0.00    +0.027 C 
BRANCH  18  21
ATOM     19  O   UNL     1      34.186 -16.509 -24.979  0.00  0.00    -0.226 OA
ATOM     20  N   UNL     1      35.204 -17.703 -23.260  0.00  0.00    -0.246 N 
ATOM     21  C   UNL     1      34.702 -19.852 -21.379  0.00  0.00    +0.008 C 
ATOM     22  C   UNL     1      33.906 -19.713 -22.686  0.00  0.00    +0.022 C 
ATOM     23  C   UNL     1      35.234 -18.482 -20.926  0.00  0.00    +0.022 C 
ATOM     24  C   UNL     1      34.723 -18.994 -23.759  0.00  0.00    +0.097 C 
ATOM     25  C   UNL     1      36.022 -17.801 -22.044  0.00  0.00    +0.097 C 
ATOM     26  C   UNL     1      34.870 -16.536 -23.955  0.00  0.00    +0.402 C 
BRANCH  26  27
ATOM     27  O   UNL     1      35.339 -15.366 -23.435  0.00  0.00    -0.466 OA
ATOM     28  H   UNL     1      36.053 -14.924 -23.850  0.00  0.00    +0.297 HD
ENDBRANCH  26  27
ENDBRANCH  18  21
ENDBRANCH   1  18
TORSDOF 6
ENDMDL
MODEL 7
REMARK VINA RESULT:     -10.2      7.396     12.298
REMARK  Name = 25243828
REMARK  6 active torsions:
REMARK  status: ('A' for Active; 'I' for Inactive)
REMARK    1  A    between atoms: C_1  and  C_18
REMARK    2  A    between atoms: C_4  and  O_7
REMARK    3  A    between atoms: O_7  and  C_9
REMARK    4  A    between atoms: C_11  and  C_17
REMARK    5  A    between atoms: C_18  and  C_21
REMARK    6  A    between atoms: C_26  and  O_27
REMARK                            x       y       z     vdW  Elec       q    Type
REMARK                         _______ _______ _______ _____ _____    ______ ____
ROOT
ATOM      1  C   UNL     1      34.163 -15.003 -22.485  0.00  0.00    -0.019 C 
ATOM      2  C   UNL     1      35.023 -16.022 -22.078  0.00  0.00    +0.033 C 
ATOM      3  C   UNL     1      33.633 -15.010 -23.776  0.00  0.00    -0.004 C 
ATOM      4  C   UNL     1      35.355 -17.049 -22.961  0.00  0.00    +0.147 C 
ATOM      5  C   UNL     1      33.965 -16.037 -24.659  0.00  0.00    +0.003 C 
ATOM      6  C   UNL     1      34.826 -17.057 -24.252  0.00  0.00    +0.038 C 
ENDROOT
BRANCH   4   7
ATOM      7  O   UNL     1      36.196 -18.043 -22.566  0.00  0.00    -0.436 OA
BRANCH   7   9
ATOM      8  N   UNL     1      34.435 -19.362 -21.793  0.00  0.00    -0.210 NA
ATOM      9  C   UNL     1      35.719 -18.965 -21.649  0.00  0.00    +0.230 C 
ATOM     10  C   UNL     1      36.566 -19.423 -20.654  0.00  0.00    +0.058 C 
ATOM     11  C   UNL     1      34.747 -20.784 -19.863  0.00  0.00    +0.091 C 
ATOM     12  C   UNL     1      36.063 -20.351 -19.748  0.00  0.00    +0.010 C 
ATOM     13  C   UNL     1      33.981 -20.264 -20.894  0.00  0.00    +0.106 C 
BRANCH  11  17
ATOM     14  F   UNL     1      33.983 -23.013 -19.451  0.00  0.00    -0.166 F 
ATOM     15  F   UNL     1      34.964 -21.990 -17.809  0.00  0.00    -0.166 F 
ATOM     16  F   UNL     1      32.962 -21.397 -18.416  0.00  0.00    -0.166 F 
ATOM     17  C   UNL     1      34.179 -21.774 -18.908  0.00  0.00    +0.420 C 
ENDBRANCH  11  17
ENDBRANCH   7   9
ENDBRANCH   4   7
BRANCH   1  18
ATOM     18  C   UNL     1      33.806 -13.893 -21.534  0.00  0.00    +0.027 C 
BRANCH  18  21
ATOM     19  O   UNL     1      31.690  -8.107 -21.435  0.00  0.00    -0.226 OA
ATOM     20  N   UNL     1      32.294 -10.020 -22.613  0.00  0.00    -0.246 N 
ATOM     21  C   UNL     1      32.973 -12.812 -22.218  0.00  0.00    +0.008 C 
ATOM     22  C   UNL     1      32.150 -12.021 -21.189  0.00  0.00    +0.022 C 
ATOM     23  C   UNL     1      33.870 -11.863 -23.030  0.00  0.00    +0.022 C 
ATOM     24  C   UNL     1      31.383 -10.878 -21.852  0.00  0.00    +0.097 C 
ATOM     25  C   UNL     1      33.054 -10.730 -23.650  0.00  0.00    +0.097 C 
ATOM     26  C   UNL     1      32.358  -8.656 -22.311  0.00  0.00    +0.402 C 
BRANCH  26  27
ATOM     27  O   UNL     1      33.232  -7.912 -23.049  0.00  0.00    -0.466 OA
ATOM     28  H   UNL     1      32.915  -7.214 -23.585  0.00  0.00    +0.297 HD
ENDBRANCH  26  27
ENDBRANCH  18  21
ENDBRANCH   1  18
TORSDOF 6
ENDMDL
MODEL 8
REMARK VINA RESULT:     -10.2     10.661     15.690
REMARK  Name = 25243828
REMARK  6 active torsions:
REMARK  status: ('A' for Active; 'I' for Inactive)
REMARK    1  A    between atoms: C_1  and  C_18
REMARK    2  A    between atoms: C_4  and  O_7
REMARK    3  A    between atoms: O_7  and  C_9
REMARK    4  A    between atoms: C_11  and  C_17
REMARK    5  A    between atoms: C_18  and  C_21
REMARK    6  A    between atoms: C_26  and  O_27
REMARK                            x       y       z     vdW  Elec       q    Type
REMARK                         _______ _______ _______ _____ _____    ______ ____
ROOT
ATOM      1  C   UNL     1      34.599 -10.362 -24.659  0.00  0.00    -0.019 C 
ATOM      2  C   UNL     1      33.851 -11.517 -24.432  0.00  0.00    +0.033 C 
ATOM      3  C   UNL     1      35.251 -10.181 -25.879  0.00  0.00    -0.004 C 
ATOM      4  C   UNL     1      33.756 -12.493 -25.425  0.00  0.00    +0.147 C 
ATOM      5  C   UNL     1      35.156 -11.156 -26.872  0.00  0.00    +0.003 C 
ATOM      6  C   UNL     1      34.408 -12.312 -26.646  0.00  0.00    +0.038 C 
ENDROOT
BRANCH   4   7
ATOM      7  O   UNL     1      33.029 -13.622 -25.204  0.00  0.00    -0.436 OA
BRANCH   7   9
ATOM      8  N   UNL     1      33.801 -15.820 -25.098  0.00  0.00    -0.210 NA
ATOM      9  C   UNL     1      33.621 -14.636 -24.471  0.00  0.00    +0.230 C 
ATOM     10  C   UNL     1      33.992 -14.389 -23.159  0.00  0.00    +0.058 C 
ATOM     11  C   UNL     1      34.789 -16.656 -23.056  0.00  0.00    +0.091 C 
ATOM     12  C   UNL     1      34.587 -15.423 -22.445  0.00  0.00    +0.010 C 
ATOM     13  C   UNL     1      34.383 -16.802 -24.372  0.00  0.00    +0.106 C 
BRANCH  11  17
ATOM     14  F   UNL     1      35.710 -17.493 -21.013  0.00  0.00    -0.166 F 
ATOM     15  F   UNL     1      34.649 -18.910 -22.268  0.00  0.00    -0.166 F 
ATOM     16  F   UNL     1      36.606 -18.179 -22.871  0.00  0.00    -0.166 F 
ATOM     17  C   UNL     1      35.422 -17.782 -22.318  0.00  0.00    +0.420 C 
ENDBRANCH  11  17
ENDBRANCH   7   9
ENDBRANCH   4   7
BRANCH   1  18
ATOM     18  C   UNL     1      34.704  -9.311 -23.589  0.00  0.00    +0.027 C 
BRANCH  18  21
ATOM     19  O   UNL     1      30.255  -5.462 -21.755  0.00  0.00    -0.226 OA
ATOM     20  N   UNL     1      32.141  -5.907 -23.043  0.00  0.00    -0.246 N 
ATOM     21  C   UNL     1      33.836  -8.095 -23.907  0.00  0.00    +0.008 C 
ATOM     22  C   UNL     1      32.387  -8.321 -23.450  0.00  0.00    +0.022 C 
ATOM     23  C   UNL     1      34.413  -6.827 -23.256  0.00  0.00    +0.022 C 
ATOM     24  C   UNL     1      31.531  -7.077 -23.682  0.00  0.00    +0.097 C 
ATOM     25  C   UNL     1      33.507  -5.621 -23.501  0.00  0.00    +0.097 C 
ATOM     26  C   UNL     1      31.404  -5.185 -22.099  0.00  0.00    +0.402 C 
BRANCH  26  27
ATOM     27  O   UNL     1      32.029  -4.113 -21.532  0.00  0.00    -0.466 OA
ATOM     28  H   UNL     1      32.964  -4.054 -21.551  0.00  0.00    +0.297 HD
ENDBRANCH  26  27
ENDBRANCH  18  21
ENDBRANCH   1  18
TORSDOF 6
ENDMDL
MODEL 9
REMARK VINA RESULT:     -10.1     10.179     14.659
REMARK  Name = 25243828
REMARK  6 active torsions:
REMARK  status: ('A' for Active; 'I' for Inactive)
REMARK    1  A    between atoms: C_1  and  C_18
REMARK    2  A    between atoms: C_4  and  O_7
REMARK    3  A    between atoms: O_7  and  C_9
REMARK    4  A    between atoms: C_11  and  C_17
REMARK    5  A    between atoms: C_18  and  C_21
REMARK    6  A    between atoms: C_26  and  O_27
REMARK                            x       y       z     vdW  Elec       q    Type
REMARK                         _______ _______ _______ _____ _____    ______ ____
ROOT
ATOM      1  C   UNL     1      31.924 -11.368 -21.766  0.00  0.00    -0.019 C 
ATOM      2  C   UNL     1      32.800 -11.925 -22.697  0.00  0.00    +0.033 C 
ATOM      3  C   UNL     1      31.723 -11.993 -20.536  0.00  0.00    -0.004 C 
ATOM      4  C   UNL     1      33.475 -13.109 -22.398  0.00  0.00    +0.147 C 
ATOM      5  C   UNL     1      32.397 -13.177 -20.237  0.00  0.00    +0.003 C 
ATOM      6  C   UNL     1      33.274 -13.735 -21.168  0.00  0.00    +0.038 C 
ENDROOT
BRANCH   4   7
ATOM      7  O   UNL     1      34.328 -13.655 -23.307  0.00  0.00    -0.436 OA
BRANCH   7   9
ATOM      8  N   UNL     1      35.141 -15.591 -22.290  0.00  0.00    -0.210 NA
ATOM      9  C   UNL     1      34.462 -15.033 -23.318  0.00  0.00    +0.230 C 
ATOM     10  C   UNL     1      33.904 -15.754 -24.361  0.00  0.00    +0.058 C 
ATOM     11  C   UNL     1      34.741 -17.747 -23.307  0.00  0.00    +0.091 C 
ATOM     12  C   UNL     1      34.050 -17.137 -24.348  0.00  0.00    +0.010 C 
ATOM     13  C   UNL     1      35.263 -16.937 -22.311  0.00  0.00    +0.106 C 
BRANCH  11  17
ATOM     14  F   UNL     1      34.166 -19.841 -22.302  0.00  0.00    -0.166 F 
ATOM     15  F   UNL     1      34.575 -19.851 -24.432  0.00  0.00    -0.166 F 
ATOM     16  F   UNL     1      36.205 -19.598 -23.015  0.00  0.00    -0.166 F 
ATOM     17  C   UNL     1      34.916 -19.224 -23.265  0.00  0.00    +0.420 C 
ENDBRANCH  11  17
ENDBRANCH   7   9
ENDBRANCH   4   7
BRANCH   1  18
ATOM     18  C   UNL     1      31.194 -10.093 -22.088  0.00  0.00    +0.027 C 
BRANCH  18  21
ATOM     19  O   UNL     1      32.071  -4.227 -23.760  0.00  0.00    -0.226 OA
ATOM     20  N   UNL     1      32.614  -6.053 -22.423  0.00  0.00    -0.246 N 
ATOM     21  C   UNL     1      32.149  -8.904 -22.174  0.00  0.00    +0.008 C 
ATOM     22  C   UNL     1      31.987  -8.168 -23.513  0.00  0.00    +0.022 C 
ATOM     23  C   UNL     1      31.925  -7.937 -21.000  0.00  0.00    +0.022 C 
ATOM     24  C   UNL     1      32.873  -6.924 -23.573  0.00  0.00    +0.097 C 
ATOM     25  C   UNL     1      32.819  -6.705 -21.123  0.00  0.00    +0.097 C 
ATOM     26  C   UNL     1      32.221  -4.729 -22.646  0.00  0.00    +0.402 C 
BRANCH  26  27
ATOM     27  O   UNL     1      31.986  -3.972 -21.536  0.00  0.00    -0.466 OA
ATOM     28  H   UNL     1      31.467  -4.316 -20.836  0.00  0.00    +0.297 HD
ENDBRANCH  26  27
ENDBRANCH  18  21
ENDBRANCH   1  18
TORSDOF 6
ENDMDL
