MODEL 1
REMARK VINA RESULT:     -12.0      0.000      0.000
REMARK  Name = 3822
REMARK  5 active torsions:
REMARK  status: ('A' for Active; 'I' for Inactive)
REMARK    1  A    between atoms: N_1  and  C_17
REMARK    2  A    between atoms: C_2  and  C_9
REMARK    3  A    between atoms: C_9  and  C_11
REMARK    4  A    between atoms: C_17  and  C_18
REMARK    5  A    between atoms: C_18  and  N_21
REMARK                            x       y       z     vdW  Elec       q    Type
REMARK                         _______ _______ _______ _____ _____    ______ ____
ROOT
ATOM      1  N   UNL     1      36.059 -20.417 -20.149  0.00  0.00    +0.388 N 
ATOM      2  C   UNL     1      35.929 -18.282 -22.161  0.00  0.00    +0.058 C 
ATOM      3  C   UNL     1      37.232 -18.677 -21.467  0.00  0.00    -0.015 C 
ATOM      4  C   UNL     1      34.887 -19.396 -22.073  0.00  0.00    -0.015 C 
ATOM      5  C   UNL     1      37.008 -19.297 -20.085  0.00  0.00    -0.077 C 
ATOM      6  C   UNL     1      34.758 -19.973 -20.661  0.00  0.00    -0.077 C 
ATOM      7  H   UNL     1      36.433 -21.113 -20.795  0.00  0.00    -0.080 HD
ENDROOT
BRANCH   2   9
ATOM      8  O   UNL     1      35.419 -16.783 -20.387  0.00  0.00    -0.291 OA
ATOM      9  C   UNL     1      35.376 -17.007 -21.594  0.00  0.00    +0.172 C 
BRANCH   9  11
ATOM     10  F   UNL     1      33.097 -13.261 -25.051  0.00  0.00    -0.204 F 
ATOM     11  C   UNL     1      34.768 -16.007 -22.517  0.00  0.00    +0.035 C 
ATOM     12  C   UNL     1      34.557 -16.362 -23.830  0.00  0.00    +0.005 C 
ATOM     13  C   UNL     1      34.438 -14.765 -22.021  0.00  0.00    +0.005 C 
ATOM     14  C   UNL     1      33.988 -15.426 -24.694  0.00  0.00    +0.030 C 
ATOM     15  C   UNL     1      33.869 -13.829 -22.885  0.00  0.00    +0.030 C 
ATOM     16  C   UNL     1      33.644 -14.159 -24.221  0.00  0.00    +0.140 C 
ENDBRANCH   9  11
ENDBRANCH   2   9
BRANCH   1  17
ATOM     17  C   UNL     1      35.907 -21.034 -18.831  0.00  0.00    -0.052 C 
BRANCH  17  18
ATOM     18  C   UNL     1      35.270 -22.409 -18.961  0.00  0.00    +0.091 C 
BRANCH  18  21
ATOM     19  O   UNL     1      35.739 -23.220 -16.352  0.00  0.00    -0.267 OA
ATOM     20  O   UNL     1      32.559 -21.954 -19.537  0.00  0.00    -0.246 OA
ATOM     21  N   UNL     1      34.212 -22.586 -18.005  0.00  0.00    -0.251 N 
ATOM     22  N   UNL     1      31.899 -22.519 -17.433  0.00  0.00    -0.306 N 
ATOM     23  C   UNL     1      34.580 -23.006 -16.703  0.00  0.00    +0.265 A 
ATOM     24  C   UNL     1      32.871 -22.328 -18.403  0.00  0.00    +0.330 A 
ATOM     25  C   UNL     1      33.484 -23.185 -15.731  0.00  0.00    +0.072 A 
ATOM     26  C   UNL     1      32.174 -22.935 -16.128  0.00  0.00    +0.065 A 
ATOM     27  C   UNL     1      33.752 -23.602 -14.423  0.00  0.00    +0.006 C 
ATOM     28  C   UNL     1      31.122 -23.100 -15.223  0.00  0.00    +0.017 C 
ATOM     29  C   UNL     1      32.701 -23.767 -13.519  0.00  0.00    +0.000 C 
ATOM     30  C   UNL     1      31.389 -23.516 -13.918  0.00  0.00    +0.001 C 
ATOM     31  H   UNL     1      30.961 -22.349 -17.678  0.00  0.00    +0.170 HD
ENDBRANCH  18  21
ENDBRANCH  17  18
ENDBRANCH   1  17
TORSDOF 5
ENDMDL
MODEL 2
REMARK VINA RESULT:     -11.9      0.692      2.025
REMARK  Name = 3822
REMARK  5 active torsions:
REMARK  status: ('A' for Active; 'I' for Inactive)
REMARK    1  A    between atoms: N_1  and  C_17
REMARK    2  A    between atoms: C_2  and  C_9
REMARK    3  A    between atoms: C_9  and  C_11
REMARK    4  A    between atoms: C_17  and  C_18
REMARK    5  A    between atoms: C_18  and  N_21
REMARK                            x       y       z     vdW  Elec       q    Type
REMARK                         _______ _______ _______ _____ _____    ______ ____
ROOT
ATOM      1  N   UNL     1      36.112 -20.454 -20.111  0.00  0.00    +0.388 N 
ATOM      2  C   UNL     1      35.901 -18.329 -22.127  0.00  0.00    +0.058 C 
ATOM      3  C   UNL     1      37.230 -18.716 -21.477  0.00  0.00    -0.015 C 
ATOM      4  C   UNL     1      34.868 -19.447 -21.996  0.00  0.00    -0.015 C 
ATOM      5  C   UNL     1      37.057 -19.330 -20.085  0.00  0.00    -0.077 C 
ATOM      6  C   UNL     1      34.791 -20.018 -20.578  0.00  0.00    -0.077 C 
ATOM      7  H   UNL     1      36.466 -21.152 -20.766  0.00  0.00    -0.080 HD
ENDROOT
BRANCH   2   9
ATOM      8  O   UNL     1      35.412 -16.842 -20.337  0.00  0.00    -0.291 OA
ATOM      9  C   UNL     1      35.363 -17.054 -21.546  0.00  0.00    +0.172 C 
BRANCH   9  11
ATOM     10  F   UNL     1      33.119 -13.253 -24.966  0.00  0.00    -0.204 F 
ATOM     11  C   UNL     1      34.763 -16.039 -22.458  0.00  0.00    +0.035 C 
ATOM     12  C   UNL     1      34.435 -14.803 -21.949  0.00  0.00    +0.005 C 
ATOM     13  C   UNL     1      34.561 -16.376 -23.778  0.00  0.00    +0.005 C 
ATOM     14  C   UNL     1      33.875 -13.853 -22.803  0.00  0.00    +0.030 C 
ATOM     15  C   UNL     1      34.000 -15.426 -24.633  0.00  0.00    +0.030 C 
ATOM     16  C   UNL     1      33.657 -14.165 -24.146  0.00  0.00    +0.140 C 
ENDBRANCH   9  11
ENDBRANCH   2   9
BRANCH   1  17
ATOM     17  C   UNL     1      36.010 -21.066 -18.785  0.00  0.00    -0.052 C 
BRANCH  17  18
ATOM     18  C   UNL     1      35.217 -22.362 -18.861  0.00  0.00    +0.091 C 
BRANCH  18  21
ATOM     19  O   UNL     1      32.452 -22.423 -18.677  0.00  0.00    -0.267 OA
ATOM     20  O   UNL     1      36.526 -22.878 -16.430  0.00  0.00    -0.246 OA
ATOM     21  N   UNL     1      34.530 -22.625 -17.626  0.00  0.00    -0.251 N 
ATOM     22  N   UNL     1      34.568 -23.119 -15.295  0.00  0.00    -0.306 N 
ATOM     23  C   UNL     1      33.114 -22.627 -17.662  0.00  0.00    +0.265 A 
ATOM     24  C   UNL     1      35.292 -22.874 -16.451  0.00  0.00    +0.330 A 
ATOM     25  C   UNL     1      32.420 -22.897 -16.387  0.00  0.00    +0.072 A 
ATOM     26  C   UNL     1      33.172 -23.135 -15.240  0.00  0.00    +0.065 A 
ATOM     27  C   UNL     1      31.024 -22.915 -16.325  0.00  0.00    +0.006 C 
ATOM     28  C   UNL     1      32.534 -23.392 -14.023  0.00  0.00    +0.017 C 
ATOM     29  C   UNL     1      30.387 -23.171 -15.109  0.00  0.00    +0.000 C 
ATOM     30  C   UNL     1      31.141 -23.410 -13.961  0.00  0.00    +0.001 C 
ATOM     31  H   UNL     1      35.067 -23.294 -14.464  0.00  0.00    +0.170 HD
ENDBRANCH  18  21
ENDBRANCH  17  18
ENDBRANCH   1  17
TORSDOF 5
ENDMDL
MODEL 3
REMARK VINA RESULT:     -11.8      5.050     10.200
REMARK  Name = 3822
REMARK  5 active torsions:
REMARK  status: ('A' for Active; 'I' for Inactive)
REMARK    1  A    between atoms: N_1  and  C_17
REMARK    2  A    between atoms: C_2  and  C_9
REMARK    3  A    between atoms: C_9  and  C_11
REMARK    4  A    between atoms: C_17  and  C_18
REMARK    5  A    between atoms: C_18  and  N_21
REMARK                            x       y       z     vdW  Elec       q    Type
REMARK                         _______ _______ _______ _____ _____    ______ ____
ROOT
ATOM      1  N   UNL     1      34.970 -23.180 -13.419  0.00  0.00    +0.388 N 
ATOM      2  C   UNL     1      37.200 -24.162 -11.778  0.00  0.00    +0.058 C 
ATOM      3  C   UNL     1      37.416 -23.387 -13.078  0.00  0.00    -0.015 C 
ATOM      4  C   UNL     1      35.801 -23.925 -11.211  0.00  0.00    -0.015 C 
ATOM      5  C   UNL     1      36.247 -23.526 -14.057  0.00  0.00    -0.077 C 
ATOM      6  C   UNL     1      34.704 -24.055 -12.272  0.00  0.00    -0.077 C 
ATOM      7  H   UNL     1      35.036 -22.220 -13.077  0.00  0.00    -0.080 HD
ENDROOT
BRANCH   2   9
ATOM      8  O   UNL     1      36.917 -26.460 -11.235  0.00  0.00    -0.291 OA
ATOM      9  C   UNL     1      37.439 -25.631 -11.976  0.00  0.00    +0.172 C 
BRANCH   9  11
ATOM     10  F   UNL     1      40.751 -27.305 -16.147  0.00  0.00    -0.204 F 
ATOM     11  C   UNL     1      38.323 -26.077 -13.089  0.00  0.00    +0.035 C 
ATOM     12  C   UNL     1      39.661 -25.755 -13.041  0.00  0.00    +0.005 C 
ATOM     13  C   UNL     1      37.769 -26.797 -14.124  0.00  0.00    +0.005 C 
ATOM     14  C   UNL     1      40.489 -26.173 -14.084  0.00  0.00    +0.030 C 
ATOM     15  C   UNL     1      38.597 -27.216 -15.167  0.00  0.00    +0.030 C 
ATOM     16  C   UNL     1      39.956 -26.904 -15.147  0.00  0.00    +0.140 C 
ENDBRANCH   9  11
ENDBRANCH   2   9
BRANCH   1  17
ATOM     17  C   UNL     1      33.876 -23.259 -14.388  0.00  0.00    -0.052 C 
BRANCH  17  18
ATOM     18  C   UNL     1      34.371 -23.859 -15.695  0.00  0.00    +0.091 C 
BRANCH  18  21
ATOM     19  O   UNL     1      36.243 -22.607 -17.312  0.00  0.00    -0.267 OA
ATOM     20  O   UNL     1      31.712 -23.392 -16.469  0.00  0.00    -0.246 OA
ATOM     21  N   UNL     1      33.999 -23.041 -16.817  0.00  0.00    -0.251 N 
ATOM     22  N   UNL     1      32.332 -22.068 -18.214  0.00  0.00    -0.306 N 
ATOM     23  C   UNL     1      35.050 -22.453 -17.565  0.00  0.00    +0.265 A 
ATOM     24  C   UNL     1      32.620 -22.870 -17.121  0.00  0.00    +0.330 A 
ATOM     25  C   UNL     1      34.655 -21.614 -18.713  0.00  0.00    +0.072 A 
ATOM     26  C   UNL     1      33.304 -21.448 -19.002  0.00  0.00    +0.065 A 
ATOM     27  C   UNL     1      35.623 -20.990 -19.506  0.00  0.00    +0.006 C 
ATOM     28  C   UNL     1      32.910 -20.656 -20.084  0.00  0.00    +0.017 C 
ATOM     29  C   UNL     1      35.229 -20.199 -20.587  0.00  0.00    +0.000 C 
ATOM     30  C   UNL     1      33.875 -20.034 -20.876  0.00  0.00    +0.001 C 
ATOM     31  H   UNL     1      31.386 -21.930 -18.449  0.00  0.00    +0.170 HD
ENDBRANCH  18  21
ENDBRANCH  17  18
ENDBRANCH   1  17
TORSDOF 5
ENDMDL
MODEL 4
REMARK VINA RESULT:     -10.8      3.946      9.054
REMARK  Name = 3822
REMARK  5 active torsions:
REMARK  status: ('A' for Active; 'I' for Inactive)
REMARK    1  A    between atoms: N_1  and  C_17
REMARK    2  A    between atoms: C_2  and  C_9
REMARK    3  A    between atoms: C_9  and  C_11
REMARK    4  A    between atoms: C_17  and  C_18
REMARK    5  A    between atoms: C_18  and  N_21
REMARK                            x       y       z     vdW  Elec       q    Type
REMARK                         _______ _______ _______ _____ _____    ______ ____
ROOT
ATOM      1  N   UNL     1      33.189 -23.313 -13.922  0.00  0.00    +0.388 N 
ATOM      2  C   UNL     1      30.593 -24.458 -13.164  0.00  0.00    +0.058 C 
ATOM      3  C   UNL     1      31.912 -25.199 -12.947  0.00  0.00    -0.015 C 
ATOM      4  C   UNL     1      30.815 -22.955 -13.325  0.00  0.00    -0.015 C 
ATOM      5  C   UNL     1      33.007 -24.770 -13.928  0.00  0.00    -0.077 C 
ATOM      6  C   UNL     1      31.948 -22.627 -14.301  0.00  0.00    -0.077 C 
ATOM      7  H   UNL     1      33.431 -23.027 -12.972  0.00  0.00    -0.080 HD
ENDROOT
BRANCH   2   9
ATOM      8  O   UNL     1      30.023 -26.162 -14.722  0.00  0.00    -0.291 OA
ATOM      9  C   UNL     1      29.852 -25.004 -14.350  0.00  0.00    +0.172 C 
BRANCH   9  11
ATOM     10  F   UNL     1      26.273 -21.692 -17.070  0.00  0.00    -0.204 F 
ATOM     11  C   UNL     1      28.897 -24.120 -15.076  0.00  0.00    +0.035 C 
ATOM     12  C   UNL     1      28.727 -24.301 -16.430  0.00  0.00    +0.005 C 
ATOM     13  C   UNL     1      28.218 -23.155 -14.365  0.00  0.00    +0.005 C 
ATOM     14  C   UNL     1      27.833 -23.473 -17.110  0.00  0.00    +0.030 C 
ATOM     15  C   UNL     1      27.324 -22.327 -15.044  0.00  0.00    +0.030 C 
ATOM     16  C   UNL     1      27.132 -22.486 -16.417  0.00  0.00    +0.140 C 
ENDBRANCH   9  11
ENDBRANCH   2   9
BRANCH   1  17
ATOM     17  C   UNL     1      34.280 -22.930 -14.819  0.00  0.00    -0.052 C 
BRANCH  17  18
ATOM     18  C   UNL     1      34.177 -23.694 -16.131  0.00  0.00    +0.091 C 
BRANCH  18  21
ATOM     19  O   UNL     1      36.445 -22.563 -17.255  0.00  0.00    -0.267 OA
ATOM     20  O   UNL     1      31.787 -22.938 -17.397  0.00  0.00    -0.246 OA
ATOM     21  N   UNL     1      34.119 -22.797 -17.252  0.00  0.00    -0.251 N 
ATOM     22  N   UNL     1      32.868 -21.609 -18.896  0.00  0.00    -0.306 N 
ATOM     23  C   UNL     1      35.349 -22.284 -17.735  0.00  0.00    +0.265 A 
ATOM     24  C   UNL     1      32.853 -22.480 -17.818  0.00  0.00    +0.330 A 
ATOM     25  C   UNL     1      35.275 -21.363 -18.886  0.00  0.00    +0.072 A 
ATOM     26  C   UNL     1      34.032 -21.053 -19.431  0.00  0.00    +0.065 A 
ATOM     27  C   UNL     1      36.436 -20.803 -19.427  0.00  0.00    +0.006 C 
ATOM     28  C   UNL     1      33.942 -20.183 -20.521  0.00  0.00    +0.017 C 
ATOM     29  C   UNL     1      36.345 -19.933 -20.515  0.00  0.00    +0.000 C 
ATOM     30  C   UNL     1      35.100 -19.624 -21.061  0.00  0.00    +0.001 C 
ATOM     31  H   UNL     1      32.007 -21.369 -19.309  0.00  0.00    +0.170 HD
ENDBRANCH  18  21
ENDBRANCH  17  18
ENDBRANCH   1  17
TORSDOF 5
ENDMDL
MODEL 5
REMARK VINA RESULT:     -10.8      5.984      9.331
REMARK  Name = 3822
REMARK  5 active torsions:
REMARK  status: ('A' for Active; 'I' for Inactive)
REMARK    1  A    between atoms: N_1  and  C_17
REMARK    2  A    between atoms: C_2  and  C_9
REMARK    3  A    between atoms: C_9  and  C_11
REMARK    4  A    between atoms: C_17  and  C_18
REMARK    5  A    between atoms: C_18  and  N_21
REMARK                            x       y       z     vdW  Elec       q    Type
REMARK                         _______ _______ _______ _____ _____    ______ ____
ROOT
ATOM      1  N   UNL     1      32.238 -12.199 -21.731  0.00  0.00    +0.388 N 
ATOM      2  C   UNL     1      31.363  -9.400 -21.904  0.00  0.00    +0.058 C 
ATOM      3  C   UNL     1      31.916 -10.164 -23.107  0.00  0.00    -0.015 C 
ATOM      4  C   UNL     1      30.869 -10.352 -20.815  0.00  0.00    -0.015 C 
ATOM      5  C   UNL     1      32.862 -11.300 -22.710  0.00  0.00    -0.077 C 
ATOM      6  C   UNL     1      31.870 -11.470 -20.511  0.00  0.00    -0.077 C 
ATOM      7  H   UNL     1      31.385 -12.576 -22.145  0.00  0.00    -0.080 HD
ENDROOT
BRANCH   2   9
ATOM      8  O   UNL     1      32.648  -8.450 -20.143  0.00  0.00    -0.291 OA
ATOM      9  C   UNL     1      32.386  -8.455 -21.343  0.00  0.00    +0.172 C 
BRANCH   9  11
ATOM     10  F   UNL     1      35.010  -4.937 -24.794  0.00  0.00    -0.204 F 
ATOM     11  C   UNL     1      33.086  -7.516 -22.265  0.00  0.00    +0.035 C 
ATOM     12  C   UNL     1      32.363  -6.499 -22.848  0.00  0.00    +0.005 C 
ATOM     13  C   UNL     1      34.431  -7.700 -22.498  0.00  0.00    +0.005 C 
ATOM     14  C   UNL     1      33.019  -5.620 -23.710  0.00  0.00    +0.030 C 
ATOM     15  C   UNL     1      35.087  -6.821 -23.360  0.00  0.00    +0.030 C 
ATOM     16  C   UNL     1      34.381  -5.781 -23.967  0.00  0.00    +0.140 C 
ENDBRANCH   9  11
ENDBRANCH   2   9
BRANCH   1  17
ATOM     17  C   UNL     1      33.135 -13.310 -21.412  0.00  0.00    -0.052 C 
BRANCH  17  18
ATOM     18  C   UNL     1      34.194 -13.461 -22.494  0.00  0.00    +0.091 C 
BRANCH  18  21
ATOM     19  O   UNL     1      35.168 -15.548 -20.950  0.00  0.00    -0.267 OA
ATOM     20  O   UNL     1      33.336 -14.247 -25.050  0.00  0.00    -0.246 OA
ATOM     21  N   UNL     1      34.257 -14.814 -22.975  0.00  0.00    -0.251 N 
ATOM     22  N   UNL     1      33.886 -16.426 -24.690  0.00  0.00    -0.306 N 
ATOM     23  C   UNL     1      34.778 -15.791 -22.090  0.00  0.00    +0.265 A 
ATOM     24  C   UNL     1      33.795 -15.103 -24.289  0.00  0.00    +0.330 A 
ATOM     25  C   UNL     1      34.839 -17.176 -22.596  0.00  0.00    +0.072 A 
ATOM     26  C   UNL     1      34.390 -17.450 -23.885  0.00  0.00    +0.065 A 
ATOM     27  C   UNL     1      35.342 -18.206 -21.796  0.00  0.00    +0.006 C 
ATOM     28  C   UNL     1      34.441 -18.755 -24.383  0.00  0.00    +0.017 C 
ATOM     29  C   UNL     1      35.393 -19.510 -22.294  0.00  0.00    +0.000 C 
ATOM     30  C   UNL     1      34.942 -19.783 -23.585  0.00  0.00    +0.001 C 
ATOM     31  H   UNL     1      33.576 -16.657 -25.595  0.00  0.00    +0.170 HD
ENDBRANCH  18  21
ENDBRANCH  17  18
ENDBRANCH   1  17
TORSDOF 5
ENDMDL
MODEL 6
REMARK VINA RESULT:     -10.8      4.498     10.259
REMARK  Name = 3822
REMARK  5 active torsions:
REMARK  status: ('A' for Active; 'I' for Inactive)
REMARK    1  A    between atoms: N_1  and  C_17
REMARK    2  A    between atoms: C_2  and  C_9
REMARK    3  A    between atoms: C_9  and  C_11
REMARK    4  A    between atoms: C_17  and  C_18
REMARK    5  A    between atoms: C_18  and  N_21
REMARK                            x       y       z     vdW  Elec       q    Type
REMARK                         _______ _______ _______ _____ _____    ______ ____
ROOT
ATOM      1  N   UNL     1      35.279 -15.978 -21.784  0.00  0.00    +0.388 N 
ATOM      2  C   UNL     1      35.634 -18.868 -22.167  0.00  0.00    +0.058 C 
ATOM      3  C   UNL     1      35.404 -17.907 -23.333  0.00  0.00    -0.015 C 
ATOM      4  C   UNL     1      36.140 -18.132 -20.927  0.00  0.00    -0.015 C 
ATOM      5  C   UNL     1      34.639 -16.645 -22.926  0.00  0.00    -0.077 C 
ATOM      6  C   UNL     1      35.332 -16.869 -20.619  0.00  0.00    -0.077 C 
ATOM      7  H   UNL     1      36.236 -15.743 -22.049  0.00  0.00    -0.080 HD
ENDROOT
BRANCH   2   9
ATOM      8  O   UNL     1      33.406 -19.590 -22.582  0.00  0.00    -0.291 OA
ATOM      9  C   UNL     1      34.385 -19.636 -21.842  0.00  0.00    +0.172 C 
BRANCH   9  11
ATOM     10  F   UNL     1      34.237 -22.727 -17.194  0.00  0.00    -0.204 F 
ATOM     11  C   UNL     1      34.346 -20.462 -20.601  0.00  0.00    +0.035 C 
ATOM     12  C   UNL     1      35.531 -20.936 -20.084  0.00  0.00    +0.005 C 
ATOM     13  C   UNL     1      33.125 -20.718 -20.017  0.00  0.00    +0.005 C 
ATOM     14  C   UNL     1      35.494 -21.708 -18.923  0.00  0.00    +0.030 C 
ATOM     15  C   UNL     1      33.088 -21.490 -18.855  0.00  0.00    +0.030 C 
ATOM     16  C   UNL     1      34.272 -21.985 -18.309  0.00  0.00    +0.140 C 
ENDBRANCH   9  11
ENDBRANCH   2   9
BRANCH   1  17
ATOM     17  C   UNL     1      34.568 -14.742 -21.451  0.00  0.00    -0.052 C 
BRANCH  17  18
ATOM     18  C   UNL     1      33.702 -14.299 -22.620  0.00  0.00    +0.091 C 
BRANCH  18  21
ATOM     19  O   UNL     1      34.157 -12.106 -24.254  0.00  0.00    -0.267 OA
ATOM     20  O   UNL     1      31.975 -13.771 -20.469  0.00  0.00    -0.246 OA
ATOM     21  N   UNL     1      33.109 -13.014 -22.371  0.00  0.00    -0.251 N 
ATOM     22  N   UNL     1      31.711 -11.591 -21.067  0.00  0.00    -0.306 N 
ATOM     23  C   UNL     1      33.421 -11.971 -23.278  0.00  0.00    +0.265 A 
ATOM     24  C   UNL     1      32.248 -12.855 -21.250  0.00  0.00    +0.330 A 
ATOM     25  C   UNL     1      32.807 -10.655 -23.010  0.00  0.00    +0.072 A 
ATOM     26  C   UNL     1      31.969 -10.507 -21.909  0.00  0.00    +0.065 A 
ATOM     27  C   UNL     1      33.061  -9.566 -23.849  0.00  0.00    +0.006 C 
ATOM     28  C   UNL     1      31.379  -9.269 -21.639  0.00  0.00    +0.017 C 
ATOM     29  C   UNL     1      32.472  -8.330 -23.578  0.00  0.00    +0.000 C 
ATOM     30  C   UNL     1      31.632  -8.182 -22.475  0.00  0.00    +0.001 C 
ATOM     31  H   UNL     1      31.112 -11.450 -20.299  0.00  0.00    +0.170 HD
ENDBRANCH  18  21
ENDBRANCH  17  18
ENDBRANCH   1  17
TORSDOF 5
ENDMDL
MODEL 7
REMARK VINA RESULT:     -10.7      5.068     10.990
REMARK  Name = 3822
REMARK  5 active torsions:
REMARK  status: ('A' for Active; 'I' for Inactive)
REMARK    1  A    between atoms: N_1  and  C_17
REMARK    2  A    between atoms: C_2  and  C_9
REMARK    3  A    between atoms: C_9  and  C_11
REMARK    4  A    between atoms: C_17  and  C_18
REMARK    5  A    between atoms: C_18  and  N_21
REMARK                            x       y       z     vdW  Elec       q    Type
REMARK                         _______ _______ _______ _____ _____    ______ ____
ROOT
ATOM      1  N   UNL     1      34.403 -14.890 -22.564  0.00  0.00    +0.388 N 
ATOM      2  C   UNL     1      35.407 -17.565 -23.243  0.00  0.00    +0.058 C 
ATOM      3  C   UNL     1      34.902 -16.585 -24.301  0.00  0.00    -0.015 C 
ATOM      4  C   UNL     1      35.786 -16.847 -21.949  0.00  0.00    -0.015 C 
ATOM      5  C   UNL     1      33.884 -15.583 -23.750  0.00  0.00    -0.077 C 
ATOM      6  C   UNL     1      34.720 -15.845 -21.495  0.00  0.00    -0.077 C 
ATOM      7  H   UNL     1      35.264 -14.411 -22.827  0.00  0.00    -0.080 HD
ENDROOT
BRANCH   2   9
ATOM      8  O   UNL     1      33.456 -18.832 -23.736  0.00  0.00    -0.291 OA
ATOM      9  C   UNL     1      34.391 -18.635 -22.964  0.00  0.00    +0.172 C 
BRANCH   9  11
ATOM     10  F   UNL     1      34.912 -21.736 -18.350  0.00  0.00    -0.204 F 
ATOM     11  C   UNL     1      34.529 -19.462 -21.732  0.00  0.00    +0.035 C 
ATOM     12  C   UNL     1      33.390 -19.938 -21.123  0.00  0.00    +0.005 C 
ATOM     13  C   UNL     1      35.793 -19.722 -21.250  0.00  0.00    +0.005 C 
ATOM     14  C   UNL     1      33.521 -20.712 -19.970  0.00  0.00    +0.030 C 
ATOM     15  C   UNL     1      35.924 -20.497 -20.098  0.00  0.00    +0.030 C 
ATOM     16  C   UNL     1      34.788 -20.992 -19.457  0.00  0.00    +0.140 C 
ENDBRANCH   9  11
ENDBRANCH   2   9
BRANCH   1  17
ATOM     17  C   UNL     1      33.439 -13.895 -22.090  0.00  0.00    -0.052 C 
BRANCH  17  18
ATOM     18  C   UNL     1      32.914 -13.073 -23.257  0.00  0.00    +0.091 C 
BRANCH  18  21
ATOM     19  O   UNL     1      34.609 -11.288 -24.532  0.00  0.00    -0.267 OA
ATOM     20  O   UNL     1      31.236 -11.876 -21.349  0.00  0.00    -0.246 OA
ATOM     21  N   UNL     1      32.928 -11.668 -22.952  0.00  0.00    -0.251 N 
ATOM     22  N   UNL     1      32.102  -9.804 -21.719  0.00  0.00    -0.306 N 
ATOM     23  C   UNL     1      33.843 -10.860 -23.672  0.00  0.00    +0.265 A 
ATOM     24  C   UNL     1      32.035 -11.166 -21.966  0.00  0.00    +0.330 A 
ATOM     25  C   UNL     1      33.850  -9.420 -23.348  0.00  0.00    +0.072 A 
ATOM     26  C   UNL     1      32.976  -8.936 -22.379  0.00  0.00    +0.065 A 
ATOM     27  C   UNL     1      34.721  -8.545 -24.004  0.00  0.00    +0.006 C 
ATOM     28  C   UNL     1      32.968  -7.576 -22.058  0.00  0.00    +0.017 C 
ATOM     29  C   UNL     1      34.713  -7.187 -23.683  0.00  0.00    +0.000 C 
ATOM     30  C   UNL     1      33.837  -6.703 -22.712  0.00  0.00    +0.001 C 
ATOM     31  H   UNL     1      31.497  -9.426 -21.041  0.00  0.00    +0.170 HD
ENDBRANCH  18  21
ENDBRANCH  17  18
ENDBRANCH   1  17
TORSDOF 5
ENDMDL
MODEL 8
REMARK VINA RESULT:     -10.7      3.966      9.164
REMARK  Name = 3822
REMARK  5 active torsions:
REMARK  status: ('A' for Active; 'I' for Inactive)
REMARK    1  A    between atoms: N_1  and  C_17
REMARK    2  A    between atoms: C_2  and  C_9
REMARK    3  A    between atoms: C_9  and  C_11
REMARK    4  A    between atoms: C_17  and  C_18
REMARK    5  A    between atoms: C_18  and  N_21
REMARK                            x       y       z     vdW  Elec       q    Type
REMARK                         _______ _______ _______ _____ _____    ______ ____
ROOT
ATOM      1  N   UNL     1      33.204 -23.303 -13.855  0.00  0.00    +0.388 N 
ATOM      2  C   UNL     1      30.534 -24.340 -13.208  0.00  0.00    +0.058 C 
ATOM      3  C   UNL     1      31.814 -25.108 -12.881  0.00  0.00    -0.015 C 
ATOM      4  C   UNL     1      30.812 -22.852 -13.420  0.00  0.00    -0.015 C 
ATOM      5  C   UNL     1      32.978 -24.754 -13.811  0.00  0.00    -0.077 C 
ATOM      6  C   UNL     1      32.010 -22.600 -14.339  0.00  0.00    -0.077 C 
ATOM      7  H   UNL     1      33.399 -22.983 -12.906  0.00  0.00    -0.080 HD
ENDROOT
BRANCH   2   9
ATOM      8  O   UNL     1      30.090 -26.061 -14.789  0.00  0.00    -0.291 OA
ATOM      9  C   UNL     1      29.847 -24.917 -14.413  0.00  0.00    +0.172 C 
BRANCH   9  11
ATOM     10  F   UNL     1      26.148 -21.784 -17.184  0.00  0.00    -0.204 F 
ATOM     11  C   UNL     1      28.860 -24.081 -15.153  0.00  0.00    +0.035 C 
ATOM     12  C   UNL     1      28.673 -24.312 -16.497  0.00  0.00    +0.005 C 
ATOM     13  C   UNL     1      28.171 -23.107 -14.464  0.00  0.00    +0.005 C 
ATOM     14  C   UNL     1      27.749 -23.530 -17.189  0.00  0.00    +0.030 C 
ATOM     15  C   UNL     1      27.246 -22.325 -15.156  0.00  0.00    +0.030 C 
ATOM     16  C   UNL     1      27.035 -22.535 -16.519  0.00  0.00    +0.140 C 
ENDBRANCH   9  11
ENDBRANCH   2   9
BRANCH   1  17
ATOM     17  C   UNL     1      34.358 -22.992 -14.701  0.00  0.00    -0.052 C 
BRANCH  17  18
ATOM     18  C   UNL     1      34.215 -23.665 -16.058  0.00  0.00    +0.091 C 
BRANCH  18  21
ATOM     19  O   UNL     1      32.379 -22.640 -17.864  0.00  0.00    -0.267 OA
ATOM     20  O   UNL     1      36.847 -22.788 -16.497  0.00  0.00    -0.246 OA
ATOM     21  N   UNL     1      34.592 -22.775 -17.122  0.00  0.00    -0.251 N 
ATOM     22  N   UNL     1      36.251 -21.537 -18.302  0.00  0.00    -0.306 N 
ATOM     23  C   UNL     1      33.560 -22.322 -17.981  0.00  0.00    +0.265 A 
ATOM     24  C   UNL     1      35.956 -22.395 -17.254  0.00  0.00    +0.330 A 
ATOM     25  C   UNL     1      33.960 -21.410 -19.071  0.00  0.00    +0.072 A 
ATOM     26  C   UNL     1      35.297 -21.046 -19.197  0.00  0.00    +0.065 A 
ATOM     27  C   UNL     1      33.012 -20.915 -19.970  0.00  0.00    +0.006 C 
ATOM     28  C   UNL     1      35.696 -20.184 -20.223  0.00  0.00    +0.017 C 
ATOM     29  C   UNL     1      33.410 -20.055 -20.996  0.00  0.00    +0.000 C 
ATOM     30  C   UNL     1      34.750 -19.690 -21.121  0.00  0.00    +0.001 C 
ATOM     31  H   UNL     1      37.187 -21.256 -18.421  0.00  0.00    +0.170 HD
ENDBRANCH  18  21
ENDBRANCH  17  18
ENDBRANCH   1  17
TORSDOF 5
ENDMDL
MODEL 9
REMARK VINA RESULT:     -10.4      6.709     10.734
REMARK  Name = 3822
REMARK  5 active torsions:
REMARK  status: ('A' for Active; 'I' for Inactive)
REMARK    1  A    between atoms: N_1  and  C_17
REMARK    2  A    between atoms: C_2  and  C_9
REMARK    3  A    between atoms: C_9  and  C_11
REMARK    4  A    between atoms: C_17  and  C_18
REMARK    5  A    between atoms: C_18  and  N_21
REMARK                            x       y       z     vdW  Elec       q    Type
REMARK                         _______ _______ _______ _____ _____    ______ ____
ROOT
ATOM      1  N   UNL     1      33.748 -10.245 -22.880  0.00  0.00    +0.388 N 
ATOM      2  C   UNL     1      32.798  -7.553 -22.187  0.00  0.00    +0.058 C 
ATOM      3  C   UNL     1      32.275  -8.812 -21.495  0.00  0.00    -0.015 C 
ATOM      4  C   UNL     1      34.146  -7.803 -22.861  0.00  0.00    -0.015 C 
ATOM      5  C   UNL     1      32.382 -10.063 -22.371  0.00  0.00    -0.077 C 
ATOM      6  C   UNL     1      34.163  -9.092 -23.688  0.00  0.00    -0.077 C 
ATOM      7  H   UNL     1      34.378 -10.316 -22.081  0.00  0.00    -0.080 HD
ENDROOT
BRANCH   2   9
ATOM      8  O   UNL     1      30.893  -7.742 -23.598  0.00  0.00    -0.291 OA
ATOM      9  C   UNL     1      31.807  -7.032 -23.187  0.00  0.00    +0.172 C 
BRANCH   9  11
ATOM     10  F   UNL     1      32.322  -1.787 -25.032  0.00  0.00    -0.204 F 
ATOM     11  C   UNL     1      31.944  -5.632 -23.679  0.00  0.00    +0.035 C 
ATOM     12  C   UNL     1      31.886  -4.601 -22.768  0.00  0.00    +0.005 C 
ATOM     13  C   UNL     1      32.124  -5.420 -25.028  0.00  0.00    +0.005 C 
ATOM     14  C   UNL     1      32.015  -3.291 -23.229  0.00  0.00    +0.030 C 
ATOM     15  C   UNL     1      32.253  -4.110 -25.489  0.00  0.00    +0.030 C 
ATOM     16  C   UNL     1      32.198  -3.045 -24.590  0.00  0.00    +0.140 C 
ENDBRANCH   9  11
ENDBRANCH   2   9
BRANCH   1  17
ATOM     17  C   UNL     1      33.842 -11.478 -23.663  0.00  0.00    -0.052 C 
BRANCH  17  18
ATOM     18  C   UNL     1      32.933 -12.547 -23.076  0.00  0.00    +0.091 C 
BRANCH  18  21
ATOM     19  O   UNL     1      34.041 -13.914 -20.933  0.00  0.00    -0.267 OA
ATOM     20  O   UNL     1      33.040 -13.961 -25.500  0.00  0.00    -0.246 OA
ATOM     21  N   UNL     1      33.514 -13.855 -23.211  0.00  0.00    -0.251 N 
ATOM     22  N   UNL     1      34.091 -15.741 -24.548  0.00  0.00    -0.306 N 
ATOM     23  C   UNL     1      34.049 -14.448 -22.040  0.00  0.00    +0.265 A 
ATOM     24  C   UNL     1      33.515 -14.482 -24.487  0.00  0.00    +0.330 A 
ATOM     25  C   UNL     1      34.644 -15.791 -22.193  0.00  0.00    +0.072 A 
ATOM     26  C   UNL     1      34.646 -16.396 -23.446  0.00  0.00    +0.065 A 
ATOM     27  C   UNL     1      35.201 -16.452 -21.094  0.00  0.00    +0.006 C 
ATOM     28  C   UNL     1      35.205 -17.666 -23.611  0.00  0.00    +0.017 C 
ATOM     29  C   UNL     1      35.759 -17.721 -21.259  0.00  0.00    +0.000 C 
ATOM     30  C   UNL     1      35.761 -18.327 -22.515  0.00  0.00    +0.001 C 
ATOM     31  H   UNL     1      34.109 -16.200 -25.418  0.00  0.00    +0.170 HD
ENDBRANCH  18  21
ENDBRANCH  17  18
ENDBRANCH   1  17
TORSDOF 5
ENDMDL
