MODEL 1
REMARK VINA RESULT:     -12.4      0.000      0.000
REMARK  Name = 9999276
REMARK  5 active torsions:
REMARK  status: ('A' for Active; 'I' for Inactive)
REMARK    1  A    between atoms: C_3  and  C_11
REMARK    2  A    between atoms: C_6  and  C_20
REMARK    3  A    between atoms: C_14  and  N_19
REMARK    4  A    between atoms: C_25  and  C_27
REMARK    5  A    between atoms: C_27  and  O_28
REMARK                            x       y       z     vdW  Elec       q    Type
REMARK                         _______ _______ _______ _____ _____    ______ ____
ROOT
ATOM      1  N   UNL     1      34.645 -23.216 -16.175  0.00  0.00    -0.400 NA
ATOM      2  N   UNL     1      32.747 -24.955 -13.586  0.00  0.00    -0.242 NA
ATOM      3  C   UNL     1      34.298 -23.935 -15.081  0.00  0.00    +0.149 C 
ATOM      4  C   UNL     1      33.001 -24.230 -14.693  0.00  0.00    +0.107 C 
ATOM      5  C   UNL     1      31.977 -23.732 -15.517  0.00  0.00    +0.005 C 
ATOM      6  C   UNL     1      33.632 -22.758 -16.937  0.00  0.00    +0.131 C 
ATOM      7  C   UNL     1      32.296 -22.984 -16.658  0.00  0.00    +0.030 C 
ATOM      8  C   UNL     1      30.651 -24.009 -15.159  0.00  0.00    +0.056 C 
ATOM      9  C   UNL     1      30.379 -24.755 -14.020  0.00  0.00    -0.001 C 
ATOM     10  C   UNL     1      31.453 -25.201 -13.275  0.00  0.00    +0.095 C 
ENDROOT
BRANCH   3  11
ATOM     11  C   UNL     1      35.438 -24.393 -14.314  0.00  0.00    +0.033 C 
ATOM     12  C   UNL     1      35.874 -23.661 -13.211  0.00  0.00    +0.027 C 
ATOM     13  C   UNL     1      36.098 -25.565 -14.682  0.00  0.00    +0.003 C 
ATOM     14  C   UNL     1      36.972 -24.103 -12.473  0.00  0.00    +0.143 C 
ATOM     15  C   UNL     1      37.196 -26.007 -13.944  0.00  0.00    +0.002 C 
ATOM     16  C   UNL     1      37.634 -25.275 -12.840  0.00  0.00    +0.024 C 
BRANCH  14  19
ATOM     17  O   UNL     1      38.228 -22.419 -11.531  0.00  0.00    -0.126 OA
ATOM     18  O   UNL     1      36.986 -23.664 -10.213  0.00  0.00    -0.126 OA
ATOM     19  N   UNL     1      37.418 -23.358 -11.348  0.00  0.00    +0.058 N 
ENDBRANCH  14  19
ENDBRANCH   3  11
BRANCH   6  20
ATOM     20  C   UNL     1      34.034 -21.995 -18.094  0.00  0.00    +0.030 C 
ATOM     21  C   UNL     1      35.387 -21.879 -18.424  0.00  0.00    +0.003 C 
ATOM     22  C   UNL     1      33.071 -21.368 -18.888  0.00  0.00    +0.003 C 
ATOM     23  C   UNL     1      35.774 -21.143 -19.544  0.00  0.00    +0.007 C 
ATOM     24  C   UNL     1      33.459 -20.631 -20.008  0.00  0.00    +0.007 C 
ATOM     25  C   UNL     1      34.810 -20.518 -20.335  0.00  0.00    +0.075 C 
BRANCH  25  27
ATOM     26  O   UNL     1      34.627 -19.736 -22.589  0.00  0.00    -0.245 OA
ATOM     27  C   UNL     1      35.213 -19.748 -21.502  0.00  0.00    +0.338 C 
BRANCH  27  28
ATOM     28  O   UNL     1      36.337 -19.014 -21.278  0.00  0.00    -0.477 OA
ATOM     29  H   UNL     1      36.599 -18.813 -20.401  0.00  0.00    +0.295 HD
ENDBRANCH  27  28
ENDBRANCH  25  27
ENDBRANCH   6  20
TORSDOF 5
ENDMDL
MODEL 2
REMARK VINA RESULT:     -11.6      1.746      2.193
REMARK  Name = 9999276
REMARK  5 active torsions:
REMARK  status: ('A' for Active; 'I' for Inactive)
REMARK    1  A    between atoms: C_3  and  C_11
REMARK    2  A    between atoms: C_6  and  C_20
REMARK    3  A    between atoms: C_14  and  N_19
REMARK    4  A    between atoms: C_25  and  C_27
REMARK    5  A    between atoms: C_27  and  O_28
REMARK                            x       y       z     vdW  Elec       q    Type
REMARK                         _______ _______ _______ _____ _____    ______ ____
ROOT
ATOM      1  N   UNL     1      34.734 -22.950 -16.321  0.00  0.00    -0.400 NA
ATOM      2  N   UNL     1      33.028 -24.811 -13.685  0.00  0.00    -0.242 NA
ATOM      3  C   UNL     1      34.463 -23.670 -15.207  0.00  0.00    +0.149 C 
ATOM      4  C   UNL     1      33.206 -24.096 -14.813  0.00  0.00    +0.107 C 
ATOM      5  C   UNL     1      32.138 -23.742 -15.655  0.00  0.00    +0.005 C 
ATOM      6  C   UNL     1      33.681 -22.633 -17.100  0.00  0.00    +0.131 C 
ATOM      7  C   UNL     1      32.378 -22.999 -16.818  0.00  0.00    +0.030 C 
ATOM      8  C   UNL     1      30.849 -24.156 -15.292  0.00  0.00    +0.056 C 
ATOM      9  C   UNL     1      30.656 -24.893 -14.131  0.00  0.00    -0.001 C 
ATOM     10  C   UNL     1      31.768 -25.192 -13.369  0.00  0.00    +0.095 C 
ENDROOT
BRANCH   3  11
ATOM     11  C   UNL     1      35.643 -23.973 -14.423  0.00  0.00    +0.033 C 
ATOM     12  C   UNL     1      36.441 -25.065 -14.760  0.00  0.00    +0.027 C 
ATOM     13  C   UNL     1      35.978 -23.172 -13.332  0.00  0.00    +0.003 C 
ATOM     14  C   UNL     1      37.577 -25.356 -14.005  0.00  0.00    +0.143 C 
ATOM     15  C   UNL     1      37.114 -23.463 -12.577  0.00  0.00    +0.002 C 
ATOM     16  C   UNL     1      37.913 -24.556 -12.912  0.00  0.00    +0.024 C 
BRANCH  14  19
ATOM     17  O   UNL     1      38.061 -27.177 -15.328  0.00  0.00    -0.126 OA
ATOM     18  O   UNL     1      39.410 -26.704 -13.659  0.00  0.00    -0.126 OA
ATOM     19  N   UNL     1      38.391 -26.469 -14.347  0.00  0.00    +0.058 N 
ENDBRANCH  14  19
ENDBRANCH   3  11
BRANCH   6  20
ATOM     20  C   UNL     1      34.002 -21.865 -18.280  0.00  0.00    +0.030 C 
ATOM     21  C   UNL     1      32.984 -21.274 -19.032  0.00  0.00    +0.003 C 
ATOM     22  C   UNL     1      35.333 -21.712 -18.675  0.00  0.00    +0.003 C 
ATOM     23  C   UNL     1      33.295 -20.532 -20.171  0.00  0.00    +0.007 C 
ATOM     24  C   UNL     1      35.644 -20.969 -19.815  0.00  0.00    +0.007 C 
ATOM     25  C   UNL     1      34.626 -20.380 -20.562  0.00  0.00    +0.075 C 
BRANCH  25  27
ATOM     26  O   UNL     1      34.211 -19.451 -22.728  0.00  0.00    -0.245 OA
ATOM     27  C   UNL     1      34.951 -19.607 -21.751  0.00  0.00    +0.338 C 
BRANCH  27  28
ATOM     28  O   UNL     1      36.190 -19.048 -21.685  0.00  0.00    -0.477 OA
ATOM     29  H   UNL     1      36.585 -18.689 -22.456  0.00  0.00    +0.295 HD
ENDBRANCH  27  28
ENDBRANCH  25  27
ENDBRANCH   6  20
TORSDOF 5
ENDMDL
MODEL 3
REMARK VINA RESULT:     -11.3      3.299      5.345
REMARK  Name = 9999276
REMARK  5 active torsions:
REMARK  status: ('A' for Active; 'I' for Inactive)
REMARK    1  A    between atoms: C_3  and  C_11
REMARK    2  A    between atoms: C_6  and  C_20
REMARK    3  A    between atoms: C_14  and  N_19
REMARK    4  A    between atoms: C_25  and  C_27
REMARK    5  A    between atoms: C_27  and  O_28
REMARK                            x       y       z     vdW  Elec       q    Type
REMARK                         _______ _______ _______ _____ _____    ______ ____
ROOT
ATOM      1  N   UNL     1      33.113 -22.762 -16.902  0.00  0.00    -0.400 NA
ATOM      2  N   UNL     1      33.898 -24.518 -13.800  0.00  0.00    -0.242 NA
ATOM      3  C   UNL     1      33.019 -23.459 -15.746  0.00  0.00    +0.149 C 
ATOM      4  C   UNL     1      34.084 -23.822 -14.938  0.00  0.00    +0.107 C 
ATOM      5  C   UNL     1      35.359 -23.423 -15.375  0.00  0.00    +0.005 C 
ATOM      6  C   UNL     1      34.353 -22.399 -17.284  0.00  0.00    +0.131 C 
ATOM      7  C   UNL     1      35.497 -22.700 -16.567  0.00  0.00    +0.030 C 
ATOM      8  C   UNL     1      36.463 -23.771 -14.586  0.00  0.00    +0.056 C 
ATOM      9  C   UNL     1      36.281 -24.488 -13.411  0.00  0.00    -0.001 C 
ATOM     10  C   UNL     1      34.990 -24.834 -13.066  0.00  0.00    +0.095 C 
ENDROOT
BRANCH   3  11
ATOM     11  C   UNL     1      31.656 -23.812 -15.401  0.00  0.00    +0.033 C 
ATOM     12  C   UNL     1      30.596 -23.298 -16.145  0.00  0.00    +0.027 C 
ATOM     13  C   UNL     1      31.409 -24.664 -14.325  0.00  0.00    +0.003 C 
ATOM     14  C   UNL     1      29.284 -23.637 -15.813  0.00  0.00    +0.143 C 
ATOM     15  C   UNL     1      30.098 -25.003 -13.994  0.00  0.00    +0.002 C 
ATOM     16  C   UNL     1      29.035 -24.489 -14.737  0.00  0.00    +0.024 C 
BRANCH  14  19
ATOM     17  O   UNL     1      27.916 -21.900 -16.451  0.00  0.00    -0.126 OA
ATOM     18  O   UNL     1      27.572 -23.884 -17.331  0.00  0.00    -0.126 OA
ATOM     19  N   UNL     1      28.202 -23.114 -16.570  0.00  0.00    +0.058 N 
ENDBRANCH  14  19
ENDBRANCH   3  11
BRANCH   6  20
ATOM     20  C   UNL     1      34.421 -21.658 -18.521  0.00  0.00    +0.030 C 
ATOM     21  C   UNL     1      33.249 -21.233 -19.150  0.00  0.00    +0.003 C 
ATOM     22  C   UNL     1      35.661 -21.364 -19.094  0.00  0.00    +0.003 C 
ATOM     23  C   UNL     1      33.315 -20.516 -20.345  0.00  0.00    +0.007 C 
ATOM     24  C   UNL     1      35.727 -20.647 -20.289  0.00  0.00    +0.007 C 
ATOM     25  C   UNL     1      34.555 -20.224 -20.914  0.00  0.00    +0.075 C 
BRANCH  25  27
ATOM     26  O   UNL     1      33.707 -19.364 -22.980  0.00  0.00    -0.245 OA
ATOM     27  C   UNL     1      34.625 -19.477 -22.161  0.00  0.00    +0.338 C 
BRANCH  27  28
ATOM     28  O   UNL     1      35.839 -18.893 -22.350  0.00  0.00    -0.477 OA
ATOM     29  H   UNL     1      36.022 -18.057 -21.967  0.00  0.00    +0.295 HD
ENDBRANCH  27  28
ENDBRANCH  25  27
ENDBRANCH   6  20
TORSDOF 5
ENDMDL
MODEL 4
REMARK VINA RESULT:     -10.2      2.185      4.516
REMARK  Name = 9999276
REMARK  5 active torsions:
REMARK  status: ('A' for Active; 'I' for Inactive)
REMARK    1  A    between atoms: C_3  and  C_11
REMARK    2  A    between atoms: C_6  and  C_20
REMARK    3  A    between atoms: C_14  and  N_19
REMARK    4  A    between atoms: C_25  and  C_27
REMARK    5  A    between atoms: C_27  and  O_28
REMARK                            x       y       z     vdW  Elec       q    Type
REMARK                         _______ _______ _______ _____ _____    ______ ____
ROOT
ATOM      1  N   UNL     1      34.400 -22.012 -17.676  0.00  0.00    -0.400 NA
ATOM      2  N   UNL     1      35.715 -23.771 -14.760  0.00  0.00    -0.242 NA
ATOM      3  C   UNL     1      34.510 -22.732 -16.534  0.00  0.00    +0.149 C 
ATOM      4  C   UNL     1      35.699 -23.048 -15.897  0.00  0.00    +0.107 C 
ATOM      5  C   UNL     1      36.874 -22.573 -16.503  0.00  0.00    +0.005 C 
ATOM      6  C   UNL     1      35.551 -21.576 -18.223  0.00  0.00    +0.131 C 
ATOM      7  C   UNL     1      36.801 -21.825 -17.685  0.00  0.00    +0.030 C 
ATOM      8  C   UNL     1      38.098 -22.871 -15.889  0.00  0.00    +0.056 C 
ATOM      9  C   UNL     1      38.125 -23.616 -14.717  0.00  0.00    -0.001 C 
ATOM     10  C   UNL     1      36.917 -24.038 -14.198  0.00  0.00    +0.095 C 
ENDROOT
BRANCH   3  11
ATOM     11  C   UNL     1      33.232 -23.164 -16.007  0.00  0.00    +0.033 C 
ATOM     12  C   UNL     1      33.157 -23.710 -14.727  0.00  0.00    +0.027 C 
ATOM     13  C   UNL     1      32.080 -23.032 -16.781  0.00  0.00    +0.003 C 
ATOM     14  C   UNL     1      31.926 -24.126 -14.219  0.00  0.00    +0.143 C 
ATOM     15  C   UNL     1      30.849 -23.448 -16.273  0.00  0.00    +0.002 C 
ATOM     16  C   UNL     1      30.772 -23.996 -14.993  0.00  0.00    +0.024 C 
BRANCH  14  19
ATOM     17  O   UNL     1      32.911 -24.995 -12.329  0.00  0.00    -0.126 OA
ATOM     18  O   UNL     1      30.719 -24.845 -12.396  0.00  0.00    -0.126 OA
ATOM     19  N   UNL     1      31.847 -24.683 -12.915  0.00  0.00    +0.058 N 
ENDBRANCH  14  19
ENDBRANCH   3  11
BRANCH   6  20
ATOM     20  C   UNL     1      35.401 -20.813 -19.440  0.00  0.00    +0.030 C 
ATOM     21  C   UNL     1      36.506 -20.183 -20.015  0.00  0.00    +0.003 C 
ATOM     22  C   UNL     1      34.147 -20.702 -20.045  0.00  0.00    +0.003 C 
ATOM     23  C   UNL     1      36.360 -19.446 -21.190  0.00  0.00    +0.007 C 
ATOM     24  C   UNL     1      34.001 -19.965 -21.221  0.00  0.00    +0.007 C 
ATOM     25  C   UNL     1      35.107 -19.338 -21.793  0.00  0.00    +0.075 C 
BRANCH  25  27
ATOM     26  O   UNL     1      34.169 -18.834 -23.936  0.00  0.00    -0.245 OA
ATOM     27  C   UNL     1      34.953 -18.569 -23.019  0.00  0.00    +0.338 C 
BRANCH  27  28
ATOM     28  O   UNL     1      35.782 -17.491 -23.064  0.00  0.00    -0.477 OA
ATOM     29  H   UNL     1      36.359 -17.372 -23.794  0.00  0.00    +0.295 HD
ENDBRANCH  27  28
ENDBRANCH  25  27
ENDBRANCH   6  20
TORSDOF 5
ENDMDL
MODEL 5
REMARK VINA RESULT:     -10.2      2.198      7.037
REMARK  Name = 9999276
REMARK  5 active torsions:
REMARK  status: ('A' for Active; 'I' for Inactive)
REMARK    1  A    between atoms: C_3  and  C_11
REMARK    2  A    between atoms: C_6  and  C_20
REMARK    3  A    between atoms: C_14  and  N_19
REMARK    4  A    between atoms: C_25  and  C_27
REMARK    5  A    between atoms: C_27  and  O_28
REMARK                            x       y       z     vdW  Elec       q    Type
REMARK                         _______ _______ _______ _____ _____    ______ ____
ROOT
ATOM      1  N   UNL     1      34.891 -23.222 -16.543  0.00  0.00    -0.400 NA
ATOM      2  N   UNL     1      31.297 -22.612 -16.728  0.00  0.00    -0.242 NA
ATOM      3  C   UNL     1      33.664 -22.796 -16.927  0.00  0.00    +0.149 C 
ATOM      4  C   UNL     1      32.476 -23.080 -16.274  0.00  0.00    +0.107 C 
ATOM      5  C   UNL     1      32.575 -23.878 -15.121  0.00  0.00    +0.005 C 
ATOM      6  C   UNL     1      34.940 -23.984 -15.432  0.00  0.00    +0.131 C 
ATOM      7  C   UNL     1      33.826 -24.338 -14.692  0.00  0.00    +0.030 C 
ATOM      8  C   UNL     1      31.395 -24.187 -14.432  0.00  0.00    +0.056 C 
ATOM      9  C   UNL     1      30.175 -23.710 -14.892  0.00  0.00    -0.001 C 
ATOM     10  C   UNL     1      30.180 -22.933 -16.034  0.00  0.00    +0.095 C 
ENDROOT
BRANCH   3  11
ATOM     11  C   UNL     1      33.692 -21.984 -18.125  0.00  0.00    +0.033 C 
ATOM     12  C   UNL     1      34.906 -21.499 -18.609  0.00  0.00    +0.027 C 
ATOM     13  C   UNL     1      32.504 -21.686 -18.792  0.00  0.00    +0.003 C 
ATOM     14  C   UNL     1      34.932 -20.717 -19.764  0.00  0.00    +0.143 C 
ATOM     15  C   UNL     1      32.530 -20.904 -19.946  0.00  0.00    +0.002 C 
ATOM     16  C   UNL     1      33.744 -20.418 -20.431  0.00  0.00    +0.024 C 
BRANCH  14  19
ATOM     17  O   UNL     1      37.234 -20.695 -19.796  0.00  0.00    -0.126 OA
ATOM     18  O   UNL     1      36.152 -19.333 -21.140  0.00  0.00    -0.126 OA
ATOM     19  N   UNL     1      36.168 -20.222 -20.259  0.00  0.00    +0.058 N 
ENDBRANCH  14  19
ENDBRANCH   3  11
BRANCH   6  20
ATOM     20  C   UNL     1      36.261 -24.423 -15.050  0.00  0.00    +0.030 C 
ATOM     21  C   UNL     1      37.356 -23.570 -15.201  0.00  0.00    +0.003 C 
ATOM     22  C   UNL     1      36.448 -25.706 -14.528  0.00  0.00    +0.003 C 
ATOM     23  C   UNL     1      38.632 -23.995 -14.830  0.00  0.00    +0.007 C 
ATOM     24  C   UNL     1      37.725 -26.131 -14.157  0.00  0.00    +0.007 C 
ATOM     25  C   UNL     1      38.816 -25.276 -14.308  0.00  0.00    +0.075 C 
BRANCH  25  27
ATOM     26  O   UNL     1      40.411 -26.800 -13.382  0.00  0.00    -0.245 OA
ATOM     27  C   UNL     1      40.146 -25.721 -13.922  0.00  0.00    +0.338 C 
BRANCH  27  28
ATOM     28  O   UNL     1      41.108 -24.806 -14.223  0.00  0.00    -0.477 OA
ATOM     29  H   UNL     1      40.970 -23.899 -14.030  0.00  0.00    +0.295 HD
ENDBRANCH  27  28
ENDBRANCH  25  27
ENDBRANCH   6  20
TORSDOF 5
ENDMDL
MODEL 6
REMARK VINA RESULT:      -9.4      3.475      6.486
REMARK  Name = 9999276
REMARK  5 active torsions:
REMARK  status: ('A' for Active; 'I' for Inactive)
REMARK    1  A    between atoms: C_3  and  C_11
REMARK    2  A    between atoms: C_6  and  C_20
REMARK    3  A    between atoms: C_14  and  N_19
REMARK    4  A    between atoms: C_25  and  C_27
REMARK    5  A    between atoms: C_27  and  O_28
REMARK                            x       y       z     vdW  Elec       q    Type
REMARK                         _______ _______ _______ _____ _____    ______ ____
ROOT
ATOM      1  N   UNL     1      33.938 -23.053 -15.062  0.00  0.00    -0.400 NA
ATOM      2  N   UNL     1      37.025 -23.638 -13.204  0.00  0.00    -0.242 NA
ATOM      3  C   UNL     1      35.234 -23.073 -14.672  0.00  0.00    +0.149 C 
ATOM      4  C   UNL     1      35.714 -23.665 -13.515  0.00  0.00    +0.107 C 
ATOM      5  C   UNL     1      34.759 -24.289 -12.694  0.00  0.00    +0.005 C 
ATOM      6  C   UNL     1      33.056 -23.663 -14.246  0.00  0.00    +0.131 C 
ATOM      7  C   UNL     1      33.409 -24.289 -13.064  0.00  0.00    +0.030 C 
ATOM      8  C   UNL     1      35.205 -24.900 -11.514  0.00  0.00    +0.056 C 
ATOM      9  C   UNL     1      36.554 -24.878 -11.185  0.00  0.00    -0.001 C 
ATOM     10  C   UNL     1      37.415 -24.240 -12.056  0.00  0.00    +0.095 C 
ENDROOT
BRANCH   3  11
ATOM     11  C   UNL     1      36.120 -22.400 -15.599  0.00  0.00    +0.033 C 
ATOM     12  C   UNL     1      35.722 -22.198 -16.919  0.00  0.00    +0.027 C 
ATOM     13  C   UNL     1      37.370 -21.956 -15.168  0.00  0.00    +0.003 C 
ATOM     14  C   UNL     1      36.576 -21.550 -17.812  0.00  0.00    +0.143 C 
ATOM     15  C   UNL     1      38.224 -21.308 -16.061  0.00  0.00    +0.002 C 
ATOM     16  C   UNL     1      37.827 -21.106 -17.383  0.00  0.00    +0.024 C 
BRANCH  14  19
ATOM     17  O   UNL     1      35.486 -22.227 -19.722  0.00  0.00    -0.126 OA
ATOM     18  O   UNL     1      36.514 -20.285 -19.734  0.00  0.00    -0.126 OA
ATOM     19  N   UNL     1      36.172 -21.343 -19.157  0.00  0.00    +0.058 N 
ENDBRANCH  14  19
ENDBRANCH   3  11
BRANCH   6  20
ATOM     20  C   UNL     1      31.683 -23.623 -14.689  0.00  0.00    +0.030 C 
ATOM     21  C   UNL     1      30.697 -24.317 -13.984  0.00  0.00    +0.003 C 
ATOM     22  C   UNL     1      31.336 -22.890 -15.827  0.00  0.00    +0.003 C 
ATOM     23  C   UNL     1      29.370 -24.277 -14.412  0.00  0.00    +0.007 C 
ATOM     24  C   UNL     1      30.008 -22.851 -16.255  0.00  0.00    +0.007 C 
ATOM     25  C   UNL     1      29.026 -23.544 -15.548  0.00  0.00    +0.075 C 
BRANCH  25  27
ATOM     26  O   UNL     1      26.731 -22.876 -15.446  0.00  0.00    -0.245 OA
ATOM     27  C   UNL     1      27.643 -23.502 -15.996  0.00  0.00    +0.338 C 
BRANCH  27  28
ATOM     28  O   UNL     1      27.437 -24.243 -17.120  0.00  0.00    -0.477 OA
ATOM     29  H   UNL     1      28.168 -24.578 -17.602  0.00  0.00    +0.295 HD
ENDBRANCH  27  28
ENDBRANCH  25  27
ENDBRANCH   6  20
TORSDOF 5
ENDMDL
