MODEL 1
REMARK VINA RESULT:     -12.4      0.000      0.000
REMARK  Name = 10172943
REMARK  7 active torsions:
REMARK  status: ('A' for Active; 'I' for Inactive)
REMARK    1  A    between atoms: O_1  and  C_3
REMARK    2  A    between atoms: O_1  and  C_19
REMARK    3  A    between atoms: C_4  and  C_11
REMARK    4  A    between atoms: C_19  and  C_20
REMARK    5  A    between atoms: C_20  and  N_21
REMARK    6  A    between atoms: C_20  and  C_25
REMARK    7  A    between atoms: C_25  and  C_27
REMARK                            x       y       z     vdW  Elec       q    Type
REMARK                         _______ _______ _______ _____ _____    ______ ____
ROOT
ATOM      1  O   UNL     1      35.293 -16.561 -22.233  0.00  0.00    -0.476 OA
ENDROOT
BRANCH   1   3
ATOM      2  N   UNL     1      33.706 -15.194 -25.215  0.00  0.00    -0.239 NA
ATOM      3  C   UNL     1      34.625 -15.684 -23.048  0.00  0.00    +0.158 C 
ATOM      4  C   UNL     1      33.528 -13.591 -23.414  0.00  0.00    +0.022 C 
ATOM      5  C   UNL     1      34.205 -14.458 -22.564  0.00  0.00    +0.040 C 
ATOM      6  C   UNL     1      34.361 -16.011 -24.360  0.00  0.00    +0.136 C 
ATOM      7  C   UNL     1      33.306 -14.001 -24.719  0.00  0.00    +0.099 C 
BRANCH   4  11
ATOM      8  N   UNL     1      32.722  -7.933 -22.428  0.00  0.00    -0.280 N 
ATOM      9  N   UNL     1      31.826  -8.613 -21.685  0.00  0.00    -0.173 NA
ATOM     10  C   UNL     1      33.154  -9.993 -22.907  0.00  0.00    +0.032 A 
ATOM     11  C   UNL     1      33.070 -12.302 -22.951  0.00  0.00    +0.002 C 
ATOM     12  C   UNL     1      32.068  -9.906 -21.960  0.00  0.00    +0.102 A 
ATOM     13  C   UNL     1      33.709 -11.145 -23.448  0.00  0.00    +0.003 C 
ATOM     14  C   UNL     1      33.546  -8.713 -23.184  0.00  0.00    +0.053 A 
ATOM     15  C   UNL     1      31.988 -12.263 -22.009  0.00  0.00    +0.002 C 
ATOM     16  C   UNL     1      31.445 -11.072 -21.478  0.00  0.00    +0.021 C 
ATOM     17  C   UNL     1      34.582  -8.138 -24.058  0.00  0.00    +0.051 C 
ATOM     18  H   UNL     1      32.776  -6.950 -22.426  0.00  0.00    +0.189 HD
ENDBRANCH   4  11
ENDBRANCH   1   3
BRANCH   1  19
ATOM     19  C   UNL     1      35.206 -17.940 -22.568  0.00  0.00    +0.184 C 
BRANCH  19  20
ATOM     20  C   UNL     1      35.759 -18.834 -21.451  0.00  0.00    -0.017 C 
BRANCH  20  21
ATOM     21  N   UNL     1      36.009 -18.004 -20.266  0.00  0.00    +0.384 N 
ATOM     22  H   UNL     1      36.732 -17.316 -20.480  0.00  0.00    -0.089 HD
ATOM     23  H   UNL     1      36.320 -18.596 -19.496  0.00  0.00    -0.089 HD
ATOM     24  H   UNL     1      35.150 -17.524 -20.000  0.00  0.00    -0.089 HD
ENDBRANCH  20  21
BRANCH  20  25
ATOM     25  C   UNL     1      34.816 -20.006 -21.068  0.00  0.00    +0.009 C 
BRANCH  25  27
ATOM     26  N   UNL     1      36.562 -21.772 -18.392  0.00  0.00    -0.312 N 
ATOM     27  C   UNL     1      35.261 -20.792 -19.900  0.00  0.00    -0.008 C 
ATOM     28  C   UNL     1      34.428 -21.478 -18.973  0.00  0.00    +0.011 C 
ATOM     29  C   UNL     1      35.269 -22.084 -18.037  0.00  0.00    +0.048 C 
ATOM     30  C   UNL     1      36.568 -20.992 -19.517  0.00  0.00    +0.058 C 
ATOM     31  C   UNL     1      33.035 -21.641 -18.838  0.00  0.00    +0.001 C 
ATOM     32  C   UNL     1      34.784 -22.849 -16.969  0.00  0.00    +0.015 C 
ATOM     33  C   UNL     1      32.536 -22.403 -17.776  0.00  0.00    +0.000 C 
ATOM     34  C   UNL     1      33.399 -22.996 -16.856  0.00  0.00    +0.001 C 
ATOM     35  H   UNL     1      37.366 -22.068 -17.907  0.00  0.00    +0.152 HD
ENDBRANCH  25  27
ENDBRANCH  20  25
ENDBRANCH  19  20
ENDBRANCH   1  19
TORSDOF 7
ENDMDL
MODEL 2
REMARK VINA RESULT:     -12.3      1.192      1.597
REMARK  Name = 10172943
REMARK  7 active torsions:
REMARK  status: ('A' for Active; 'I' for Inactive)
REMARK    1  A    between atoms: O_1  and  C_3
REMARK    2  A    between atoms: O_1  and  C_19
REMARK    3  A    between atoms: C_4  and  C_11
REMARK    4  A    between atoms: C_19  and  C_20
REMARK    5  A    between atoms: C_20  and  N_21
REMARK    6  A    between atoms: C_20  and  C_25
REMARK    7  A    between atoms: C_25  and  C_27
REMARK                            x       y       z     vdW  Elec       q    Type
REMARK                         _______ _______ _______ _____ _____    ______ ____
ROOT
ATOM      1  O   UNL     1      35.186 -16.473 -21.999  0.00  0.00    -0.476 OA
ENDROOT
BRANCH   1   3
ATOM      2  N   UNL     1      33.775 -15.123 -25.076  0.00  0.00    -0.239 NA
ATOM      3  C   UNL     1      34.571 -15.599 -22.857  0.00  0.00    +0.158 C 
ATOM      4  C   UNL     1      33.513 -13.501 -23.302  0.00  0.00    +0.022 C 
ATOM      5  C   UNL     1      34.135 -14.365 -22.409  0.00  0.00    +0.040 C 
ATOM      6  C   UNL     1      34.375 -15.937 -24.179  0.00  0.00    +0.136 C 
ATOM      7  C   UNL     1      33.359 -13.922 -24.614  0.00  0.00    +0.099 C 
BRANCH   4  11
ATOM      8  N   UNL     1      32.684  -7.826 -22.442  0.00  0.00    -0.280 N 
ATOM      9  N   UNL     1      31.762  -8.492 -21.719  0.00  0.00    -0.173 NA
ATOM     10  C   UNL     1      33.128  -9.894 -22.871  0.00  0.00    +0.032 A 
ATOM     11  C   UNL     1      33.042 -12.203 -22.878  0.00  0.00    +0.002 C 
ATOM     12  C   UNL     1      32.011  -9.790 -21.963  0.00  0.00    +0.102 A 
ATOM     13  C   UNL     1      33.700 -11.056 -23.373  0.00  0.00    +0.003 C 
ATOM     14  C   UNL     1      33.532  -8.620 -23.156  0.00  0.00    +0.053 A 
ATOM     15  C   UNL     1      31.928 -12.148 -21.975  0.00  0.00    +0.002 C 
ATOM     16  C   UNL     1      31.370 -10.947 -21.483  0.00  0.00    +0.021 C 
ATOM     17  C   UNL     1      34.599  -8.061 -24.003  0.00  0.00    +0.051 C 
ATOM     18  H   UNL     1      32.740  -6.843 -22.455  0.00  0.00    +0.189 HD
ENDBRANCH   4  11
ENDBRANCH   1   3
BRANCH   1  19
ATOM     19  C   UNL     1      35.753 -17.643 -22.574  0.00  0.00    +0.184 C 
BRANCH  19  20
ATOM     20  C   UNL     1      34.914 -18.892 -22.269  0.00  0.00    -0.017 C 
BRANCH  20  21
ATOM     21  N   UNL     1      34.880 -19.737 -23.469  0.00  0.00    +0.384 N 
ATOM     22  H   UNL     1      34.140 -20.433 -23.372  0.00  0.00    -0.089 HD
ATOM     23  H   UNL     1      35.778 -20.207 -23.579  0.00  0.00    -0.089 HD
ATOM     24  H   UNL     1      34.696 -19.157 -24.288  0.00  0.00    -0.089 HD
ENDBRANCH  20  21
BRANCH  20  25
ATOM     25  C   UNL     1      35.448 -19.721 -21.071  0.00  0.00    +0.009 C 
BRANCH  25  27
ATOM     26  N   UNL     1      32.414 -21.102 -19.581  0.00  0.00    -0.312 N 
ATOM     27  C   UNL     1      34.399 -20.404 -20.285  0.00  0.00    -0.008 C 
ATOM     28  C   UNL     1      34.599 -21.243 -19.154  0.00  0.00    +0.011 C 
ATOM     29  C   UNL     1      33.337 -21.668 -18.731  0.00  0.00    +0.048 C 
ATOM     30  C   UNL     1      33.045 -20.336 -20.523  0.00  0.00    +0.058 C 
ATOM     31  C   UNL     1      35.735 -21.684 -18.447  0.00  0.00    +0.001 C 
ATOM     32  C   UNL     1      33.155 -22.515 -17.632  0.00  0.00    +0.015 C 
ATOM     33  C   UNL     1      35.568 -22.531 -17.346  0.00  0.00    +0.000 C 
ATOM     34  C   UNL     1      34.297 -22.940 -16.946  0.00  0.00    +0.001 C 
ATOM     35  H   UNL     1      31.439 -21.230 -19.518  0.00  0.00    +0.152 HD
ENDBRANCH  25  27
ENDBRANCH  20  25
ENDBRANCH  19  20
ENDBRANCH   1  19
TORSDOF 7
ENDMDL
MODEL 3
REMARK VINA RESULT:     -12.2      1.891     10.707
REMARK  Name = 10172943
REMARK  7 active torsions:
REMARK  status: ('A' for Active; 'I' for Inactive)
REMARK    1  A    between atoms: O_1  and  C_3
REMARK    2  A    between atoms: O_1  and  C_19
REMARK    3  A    between atoms: C_4  and  C_11
REMARK    4  A    between atoms: C_19  and  C_20
REMARK    5  A    between atoms: C_20  and  N_21
REMARK    6  A    between atoms: C_20  and  C_25
REMARK    7  A    between atoms: C_25  and  C_27
REMARK                            x       y       z     vdW  Elec       q    Type
REMARK                         _______ _______ _______ _____ _____    ______ ____
ROOT
ATOM      1  O   UNL     1      34.247 -13.655 -23.019  0.00  0.00    -0.476 OA
ENDROOT
BRANCH   1   3
ATOM      2  N   UNL     1      34.124 -16.714 -24.995  0.00  0.00    -0.239 NA
ATOM      3  C   UNL     1      34.364 -14.981 -23.345  0.00  0.00    +0.158 C 
ATOM      4  C   UNL     1      34.930 -17.234 -22.775  0.00  0.00    +0.022 C 
ATOM      5  C   UNL     1      34.820 -15.896 -22.414  0.00  0.00    +0.040 C 
ATOM      6  C   UNL     1      34.031 -15.423 -24.607  0.00  0.00    +0.136 C 
ATOM      7  C   UNL     1      34.572 -17.589 -24.066  0.00  0.00    +0.099 C 
BRANCH   4  11
ATOM      8  N   UNL     1      35.435 -21.550 -18.935  0.00  0.00    -0.280 N 
ATOM      9  N   UNL     1      36.666 -21.052 -19.160  0.00  0.00    -0.173 NA
ATOM     10  C   UNL     1      35.070 -19.976 -20.366  0.00  0.00    +0.032 A 
ATOM     11  C   UNL     1      35.403 -18.223 -21.834  0.00  0.00    +0.002 C 
ATOM     12  C   UNL     1      36.476 -20.064 -20.051  0.00  0.00    +0.102 A 
ATOM     13  C   UNL     1      34.458 -19.089 -21.242  0.00  0.00    +0.003 C 
ATOM     14  C   UNL     1      34.436 -20.941 -19.635  0.00  0.00    +0.053 A 
ATOM     15  C   UNL     1      36.808 -18.274 -21.552  0.00  0.00    +0.002 C 
ATOM     16  C   UNL     1      37.400 -19.190 -20.654  0.00  0.00    +0.021 C 
ATOM     17  C   UNL     1      33.029 -21.358 -19.514  0.00  0.00    +0.051 C 
ATOM     18  H   UNL     1      35.269 -22.296 -18.314  0.00  0.00    +0.189 HD
ENDBRANCH   4  11
ENDBRANCH   1   3
BRANCH   1  19
ATOM     19  C   UNL     1      32.934 -13.166 -22.786  0.00  0.00    +0.184 C 
BRANCH  19  20
ATOM     20  C   UNL     1      32.927 -11.656 -22.514  0.00  0.00    -0.017 C 
BRANCH  20  21
ATOM     21  N   UNL     1      33.137 -10.949 -23.784  0.00  0.00    +0.384 N 
ATOM     22  H   UNL     1      32.237 -10.789 -24.236  0.00  0.00    -0.089 HD
ATOM     23  H   UNL     1      33.728 -11.515 -24.393  0.00  0.00    -0.089 HD
ATOM     24  H   UNL     1      33.592 -10.055 -23.603  0.00  0.00    -0.089 HD
ENDBRANCH  20  21
BRANCH  20  25
ATOM     25  C   UNL     1      31.617 -11.149 -21.854  0.00  0.00    +0.009 C 
BRANCH  25  27
ATOM     26  N   UNL     1      32.042  -9.046 -18.899  0.00  0.00    -0.312 N 
ATOM     27  C   UNL     1      31.812 -10.086 -20.846  0.00  0.00    -0.008 C 
ATOM     28  C   UNL     1      32.000  -8.699 -21.102  0.00  0.00    +0.011 C 
ATOM     29  C   UNL     1      32.142  -8.069 -19.864  0.00  0.00    +0.048 C 
ATOM     30  C   UNL     1      31.842 -10.268 -19.482  0.00  0.00    +0.058 C 
ATOM     31  C   UNL     1      32.065  -7.917 -22.272  0.00  0.00    +0.001 C 
ATOM     32  C   UNL     1      32.346  -6.690 -19.737  0.00  0.00    +0.015 C 
ATOM     33  C   UNL     1      32.268  -6.537 -22.161  0.00  0.00    +0.000 C 
ATOM     34  C   UNL     1      32.407  -5.935 -20.912  0.00  0.00    +0.001 C 
ATOM     35  H   UNL     1      32.104  -8.888 -17.929  0.00  0.00    +0.152 HD
ENDBRANCH  25  27
ENDBRANCH  20  25
ENDBRANCH  19  20
ENDBRANCH   1  19
TORSDOF 7
ENDMDL
MODEL 4
REMARK VINA RESULT:     -12.1      1.791     11.175
REMARK  Name = 10172943
REMARK  7 active torsions:
REMARK  status: ('A' for Active; 'I' for Inactive)
REMARK    1  A    between atoms: O_1  and  C_3
REMARK    2  A    between atoms: O_1  and  C_19
REMARK    3  A    between atoms: C_4  and  C_11
REMARK    4  A    between atoms: C_19  and  C_20
REMARK    5  A    between atoms: C_20  and  N_21
REMARK    6  A    between atoms: C_20  and  C_25
REMARK    7  A    between atoms: C_25  and  C_27
REMARK                            x       y       z     vdW  Elec       q    Type
REMARK                         _______ _______ _______ _____ _____    ______ ____
ROOT
ATOM      1  O   UNL     1      34.467 -14.012 -23.256  0.00  0.00    -0.476 OA
ENDROOT
BRANCH   1   3
ATOM      2  N   UNL     1      34.101 -17.212 -24.960  0.00  0.00    -0.239 NA
ATOM      3  C   UNL     1      34.499 -15.365 -23.473  0.00  0.00    +0.158 C 
ATOM      4  C   UNL     1      34.964 -17.591 -22.733  0.00  0.00    +0.022 C 
ATOM      5  C   UNL     1      34.941 -16.224 -22.483  0.00  0.00    +0.040 C 
ATOM      6  C   UNL     1      34.093 -15.890 -24.680  0.00  0.00    +0.136 C 
ATOM      7  C   UNL     1      34.537 -18.031 -23.976  0.00  0.00    +0.099 C 
BRANCH   4  11
ATOM      8  N   UNL     1      35.407 -21.722 -18.687  0.00  0.00    -0.280 N 
ATOM      9  N   UNL     1      36.634 -21.196 -18.877  0.00  0.00    -0.173 NA
ATOM     10  C   UNL     1      35.067 -20.222 -20.202  0.00  0.00    +0.032 A 
ATOM     11  C   UNL     1      35.419 -18.524 -21.729  0.00  0.00    +0.002 C 
ATOM     12  C   UNL     1      36.459 -20.254 -19.818  0.00  0.00    +0.102 A 
ATOM     13  C   UNL     1      34.472 -19.392 -21.143  0.00  0.00    +0.003 C 
ATOM     14  C   UNL     1      34.426 -21.173 -19.459  0.00  0.00    +0.053 A 
ATOM     15  C   UNL     1      36.810 -18.521 -21.380  0.00  0.00    +0.002 C 
ATOM     16  C   UNL     1      37.385 -19.379 -20.416  0.00  0.00    +0.021 C 
ATOM     17  C   UNL     1      33.027 -21.628 -19.384  0.00  0.00    +0.051 C 
ATOM     18  H   UNL     1      35.234 -22.445 -18.043  0.00  0.00    +0.189 HD
ENDBRANCH   4  11
ENDBRANCH   1   3
BRANCH   1  19
ATOM     19  C   UNL     1      33.418 -13.287 -23.885  0.00  0.00    +0.184 C 
BRANCH  19  20
ATOM     20  C   UNL     1      33.813 -11.828 -24.152  0.00  0.00    -0.017 C 
BRANCH  20  21
ATOM     21  N   UNL     1      33.609 -11.541 -25.577  0.00  0.00    +0.384 N 
ATOM     22  H   UNL     1      33.990 -12.305 -26.135  0.00  0.00    -0.089 HD
ATOM     23  H   UNL     1      34.085 -10.672 -25.819  0.00  0.00    -0.089 HD
ATOM     24  H   UNL     1      32.611 -11.445 -25.765  0.00  0.00    -0.089 HD
ENDBRANCH  20  21
BRANCH  20  25
ATOM     25  C   UNL     1      33.017 -10.803 -23.301  0.00  0.00    +0.009 C 
BRANCH  25  27
ATOM     26  N   UNL     1      34.923  -7.705 -23.622  0.00  0.00    -0.312 N 
ATOM     27  C   UNL     1      33.545  -9.424 -23.354  0.00  0.00    -0.008 C 
ATOM     28  C   UNL     1      32.827  -8.230 -23.067  0.00  0.00    +0.011 C 
ATOM     29  C   UNL     1      33.714  -7.166 -23.242  0.00  0.00    +0.048 C 
ATOM     30  C   UNL     1      34.831  -9.069 -23.691  0.00  0.00    +0.058 C 
ATOM     31  C   UNL     1      31.503  -7.952 -22.674  0.00  0.00    +0.001 C 
ATOM     32  C   UNL     1      33.341  -5.831 -23.044  0.00  0.00    +0.015 C 
ATOM     33  C   UNL     1      31.116  -6.622 -22.472  0.00  0.00    +0.000 C 
ATOM     34  C   UNL     1      32.023  -5.579 -22.655  0.00  0.00    +0.001 C 
ATOM     35  H   UNL     1      35.736  -7.184 -23.814  0.00  0.00    +0.152 HD
ENDBRANCH  25  27
ENDBRANCH  20  25
ENDBRANCH  19  20
ENDBRANCH   1  19
TORSDOF 7
ENDMDL
MODEL 5
REMARK VINA RESULT:     -11.8      3.047      6.221
REMARK  Name = 10172943
REMARK  7 active torsions:
REMARK  status: ('A' for Active; 'I' for Inactive)
REMARK    1  A    between atoms: O_1  and  C_3
REMARK    2  A    between atoms: O_1  and  C_19
REMARK    3  A    between atoms: C_4  and  C_11
REMARK    4  A    between atoms: C_19  and  C_20
REMARK    5  A    between atoms: C_20  and  N_21
REMARK    6  A    between atoms: C_20  and  C_25
REMARK    7  A    between atoms: C_25  and  C_27
REMARK                            x       y       z     vdW  Elec       q    Type
REMARK                         _______ _______ _______ _____ _____    ______ ____
ROOT
ATOM      1  O   UNL     1      34.905 -21.913 -19.431  0.00  0.00    -0.476 OA
ENDROOT
BRANCH   1   3
ATOM      2  N   UNL     1      37.493 -19.366 -19.731  0.00  0.00    -0.239 NA
ATOM      3  C   UNL     1      35.566 -20.797 -19.873  0.00  0.00    +0.158 C 
ATOM      4  C   UNL     1      35.713 -18.877 -21.292  0.00  0.00    +0.022 C 
ATOM      5  C   UNL     1      35.018 -20.002 -20.863  0.00  0.00    +0.040 C 
ATOM      6  C   UNL     1      36.789 -20.451 -19.340  0.00  0.00    +0.136 C 
ATOM      7  C   UNL     1      36.935 -18.604 -20.699  0.00  0.00    +0.099 C 
BRANCH   4  11
ATOM      8  N   UNL     1      33.730 -14.421 -24.430  0.00  0.00    -0.280 N 
ATOM      9  N   UNL     1      33.667 -15.527 -25.198  0.00  0.00    -0.173 NA
ATOM     10  C   UNL     1      34.494 -15.964 -23.128  0.00  0.00    +0.032 A 
ATOM     11  C   UNL     1      35.177 -18.020 -22.324  0.00  0.00    +0.002 C 
ATOM     12  C   UNL     1      34.138 -16.513 -24.414  0.00  0.00    +0.102 A 
ATOM     13  C   UNL     1      35.017 -16.646 -22.037  0.00  0.00    +0.003 C 
ATOM     14  C   UNL     1      34.221 -14.626 -23.174  0.00  0.00    +0.053 A 
ATOM     15  C   UNL     1      34.837 -18.608 -23.587  0.00  0.00    +0.002 C 
ATOM     16  C   UNL     1      34.307 -17.884 -24.678  0.00  0.00    +0.021 C 
ATOM     17  C   UNL     1      34.361 -13.529 -22.202  0.00  0.00    +0.051 C 
ATOM     18  H   UNL     1      33.445 -13.535 -24.751  0.00  0.00    +0.189 HD
ENDBRANCH   4  11
ENDBRANCH   1   3
BRANCH   1  19
ATOM     19  C   UNL     1      33.678 -21.703 -18.747  0.00  0.00    +0.184 C 
BRANCH  19  20
ATOM     20  C   UNL     1      33.411 -22.796 -17.704  0.00  0.00    -0.017 C 
BRANCH  20  21
ATOM     21  N   UNL     1      33.414 -24.099 -18.380  0.00  0.00    +0.384 N 
ATOM     22  H   UNL     1      33.760 -24.813 -17.738  0.00  0.00    -0.089 HD
ATOM     23  H   UNL     1      34.019 -24.055 -19.199  0.00  0.00    -0.089 HD
ATOM     24  H   UNL     1      32.465 -24.333 -18.670  0.00  0.00    -0.089 HD
ENDBRANCH  20  21
BRANCH  20  25
ATOM     25  C   UNL     1      34.442 -22.815 -16.545  0.00  0.00    +0.009 C 
BRANCH  25  27
ATOM     26  N   UNL     1      34.147 -25.094 -13.707  0.00  0.00    -0.312 N 
ATOM     27  C   UNL     1      34.052 -23.652 -15.392  0.00  0.00    -0.008 C 
ATOM     28  C   UNL     1      32.761 -23.729 -14.800  0.00  0.00    +0.011 C 
ATOM     29  C   UNL     1      32.847 -24.641 -13.745  0.00  0.00    +0.048 C 
ATOM     30  C   UNL     1      34.883 -24.503 -14.699  0.00  0.00    +0.058 C 
ATOM     31  C   UNL     1      31.523 -23.109 -15.059  0.00  0.00    +0.001 C 
ATOM     32  C   UNL     1      31.753 -24.964 -12.934  0.00  0.00    +0.015 C 
ATOM     33  C   UNL     1      30.420 -23.422 -14.257  0.00  0.00    +0.000 C 
ATOM     34  C   UNL     1      30.536 -24.336 -13.210  0.00  0.00    +0.001 C 
ATOM     35  H   UNL     1      34.496 -25.749 -13.061  0.00  0.00    +0.152 HD
ENDBRANCH  25  27
ENDBRANCH  20  25
ENDBRANCH  19  20
ENDBRANCH   1  19
TORSDOF 7
ENDMDL
MODEL 6
REMARK VINA RESULT:     -11.7      1.623      2.551
REMARK  Name = 10172943
REMARK  7 active torsions:
REMARK  status: ('A' for Active; 'I' for Inactive)
REMARK    1  A    between atoms: O_1  and  C_3
REMARK    2  A    between atoms: O_1  and  C_19
REMARK    3  A    between atoms: C_4  and  C_11
REMARK    4  A    between atoms: C_19  and  C_20
REMARK    5  A    between atoms: C_20  and  N_21
REMARK    6  A    between atoms: C_20  and  C_25
REMARK    7  A    between atoms: C_25  and  C_27
REMARK                            x       y       z     vdW  Elec       q    Type
REMARK                         _______ _______ _______ _____ _____    ______ ____
ROOT
ATOM      1  O   UNL     1      33.439 -15.042 -23.664  0.00  0.00    -0.476 OA
ENDROOT
BRANCH   1   3
ATOM      2  N   UNL     1      33.579 -12.428 -26.200  0.00  0.00    -0.239 NA
ATOM      3  C   UNL     1      33.418 -13.792 -24.225  0.00  0.00    +0.158 C 
ATOM      4  C   UNL     1      33.201 -11.418 -24.036  0.00  0.00    +0.022 C 
ATOM      5  C   UNL     1      33.220 -12.672 -23.438  0.00  0.00    +0.040 C 
ATOM      6  C   UNL     1      33.591 -13.631 -25.583  0.00  0.00    +0.136 C 
ATOM      7  C   UNL     1      33.385 -11.349 -25.408  0.00  0.00    +0.099 C 
BRANCH   4  11
ATOM      8  N   UNL     1      33.235  -6.033 -21.884  0.00  0.00    -0.280 N 
ATOM      9  N   UNL     1      32.463  -6.793 -21.082  0.00  0.00    -0.173 NA
ATOM     10  C   UNL     1      33.330  -7.977 -22.816  0.00  0.00    +0.032 A 
ATOM     11  C   UNL     1      32.997 -10.222 -23.252  0.00  0.00    +0.002 C 
ATOM     12  C   UNL     1      32.500  -8.017 -21.635  0.00  0.00    +0.102 A 
ATOM     13  C   UNL     1      33.626  -9.029 -23.672  0.00  0.00    +0.003 C 
ATOM     14  C   UNL     1      33.782  -6.694 -22.944  0.00  0.00    +0.053 A 
ATOM     15  C   UNL     1      32.164 -10.308 -22.087  0.00  0.00    +0.002 C 
ATOM     16  C   UNL     1      31.882  -9.217 -21.235  0.00  0.00    +0.021 C 
ATOM     17  C   UNL     1      34.650  -6.019 -23.922  0.00  0.00    +0.051 C 
ATOM     18  H   UNL     1      33.391  -5.075 -21.718  0.00  0.00    +0.189 HD
ENDBRANCH   4  11
ENDBRANCH   1   3
BRANCH   1  19
ATOM     19  C   UNL     1      34.432 -15.941 -24.139  0.00  0.00    +0.184 C 
BRANCH  19  20
ATOM     20  C   UNL     1      35.204 -16.599 -22.988  0.00  0.00    -0.017 C 
BRANCH  20  21
ATOM     21  N   UNL     1      34.901 -15.877 -21.747  0.00  0.00    +0.384 N 
ATOM     22  H   UNL     1      35.548 -15.095 -21.642  0.00  0.00    -0.089 HD
ATOM     23  H   UNL     1      35.000 -16.509 -20.953  0.00  0.00    -0.089 HD
ATOM     24  H   UNL     1      33.945 -15.525 -21.784  0.00  0.00    -0.089 HD
ENDBRANCH  20  21
BRANCH  20  25
ATOM     25  C   UNL     1      34.875 -18.105 -22.801  0.00  0.00    +0.009 C 
BRANCH  25  27
ATOM     26  N   UNL     1      37.477 -19.436 -20.612  0.00  0.00    -0.312 N 
ATOM     27  C   UNL     1      35.716 -18.794 -21.801  0.00  0.00    -0.008 C 
ATOM     28  C   UNL     1      35.280 -19.749 -20.841  0.00  0.00    +0.011 C 
ATOM     29  C   UNL     1      36.404 -20.136 -20.108  0.00  0.00    +0.048 C 
ATOM     30  C   UNL     1      37.072 -18.622 -21.636  0.00  0.00    +0.058 C 
ATOM     31  C   UNL     1      34.034 -20.323 -20.523  0.00  0.00    +0.001 C 
ATOM     32  C   UNL     1      36.343 -21.072 -19.069  0.00  0.00    +0.015 C 
ATOM     33  C   UNL     1      33.957 -21.261 -19.486  0.00  0.00    +0.000 C 
ATOM     34  C   UNL     1      35.096 -21.628 -18.771  0.00  0.00    +0.001 C 
ATOM     35  H   UNL     1      38.402 -19.510 -20.284  0.00  0.00    +0.152 HD
ENDBRANCH  25  27
ENDBRANCH  20  25
ENDBRANCH  19  20
ENDBRANCH   1  19
TORSDOF 7
ENDMDL
MODEL 7
REMARK VINA RESULT:     -11.6      3.160      6.434
REMARK  Name = 10172943
REMARK  7 active torsions:
REMARK  status: ('A' for Active; 'I' for Inactive)
REMARK    1  A    between atoms: O_1  and  C_3
REMARK    2  A    between atoms: O_1  and  C_19
REMARK    3  A    between atoms: C_4  and  C_11
REMARK    4  A    between atoms: C_19  and  C_20
REMARK    5  A    between atoms: C_20  and  N_21
REMARK    6  A    between atoms: C_20  and  C_25
REMARK    7  A    between atoms: C_25  and  C_27
REMARK                            x       y       z     vdW  Elec       q    Type
REMARK                         _______ _______ _______ _____ _____    ______ ____
ROOT
ATOM      1  O   UNL     1      35.097 -22.146 -19.404  0.00  0.00    -0.476 OA
ENDROOT
BRANCH   1   3
ATOM      2  N   UNL     1      37.495 -19.405 -19.532  0.00  0.00    -0.239 NA
ATOM      3  C   UNL     1      35.693 -20.975 -19.796  0.00  0.00    +0.158 C 
ATOM      4  C   UNL     1      35.766 -19.026 -21.179  0.00  0.00    +0.022 C 
ATOM      5  C   UNL     1      35.137 -20.207 -20.803  0.00  0.00    +0.040 C 
ATOM      6  C   UNL     1      36.856 -20.547 -19.193  0.00  0.00    +0.136 C 
ATOM      7  C   UNL     1      36.931 -18.671 -20.519  0.00  0.00    +0.099 C 
BRANCH   4  11
ATOM      8  N   UNL     1      33.769 -14.646 -24.413  0.00  0.00    -0.280 N 
ATOM      9  N   UNL     1      33.686 -15.773 -25.148  0.00  0.00    -0.173 NA
ATOM     10  C   UNL     1      34.541 -16.157 -23.079  0.00  0.00    +0.032 A 
ATOM     11  C   UNL     1      35.221 -18.194 -22.227  0.00  0.00    +0.002 C 
ATOM     12  C   UNL     1      34.161 -16.739 -24.344  0.00  0.00    +0.102 A 
ATOM     13  C   UNL     1      35.075 -16.812 -21.977  0.00  0.00    +0.003 C 
ATOM     14  C   UNL     1      34.277 -14.818 -23.159  0.00  0.00    +0.053 A 
ATOM     15  C   UNL     1      34.857 -18.816 -23.468  0.00  0.00    +0.002 C 
ATOM     16  C   UNL     1      34.315 -18.119 -24.571  0.00  0.00    +0.021 C 
ATOM     17  C   UNL     1      34.441 -13.695 -22.221  0.00  0.00    +0.051 C 
ATOM     18  H   UNL     1      33.485 -13.767 -24.755  0.00  0.00    +0.189 HD
ENDBRANCH   4  11
ENDBRANCH   1   3
BRANCH   1  19
ATOM     19  C   UNL     1      34.933 -22.345 -18.006  0.00  0.00    +0.184 C 
BRANCH  19  20
ATOM     20  C   UNL     1      33.455 -22.322 -17.596  0.00  0.00    -0.017 C 
BRANCH  20  21
ATOM     21  N   UNL     1      32.638 -22.100 -18.795  0.00  0.00    +0.384 N 
ATOM     22  H   UNL     1      32.013 -21.310 -18.638  0.00  0.00    -0.089 HD
ATOM     23  H   UNL     1      32.089 -22.936 -18.992  0.00  0.00    -0.089 HD
ATOM     24  H   UNL     1      33.248 -21.900 -19.588  0.00  0.00    -0.089 HD
ENDBRANCH  20  21
BRANCH  20  25
ATOM     25  C   UNL     1      32.986 -23.621 -16.887  0.00  0.00    +0.009 C 
BRANCH  25  27
ATOM     26  N   UNL     1      32.633 -23.221 -13.275  0.00  0.00    -0.312 N 
ATOM     27  C   UNL     1      33.096 -23.587 -15.414  0.00  0.00    -0.008 C 
ATOM     28  C   UNL     1      34.175 -24.087 -14.634  0.00  0.00    +0.011 C 
ATOM     29  C   UNL     1      33.860 -23.845 -13.295  0.00  0.00    +0.048 C 
ATOM     30  C   UNL     1      32.163 -23.059 -14.551  0.00  0.00    +0.058 C 
ATOM     31  C   UNL     1      35.394 -24.726 -14.938  0.00  0.00    +0.001 C 
ATOM     32  C   UNL     1      34.706 -24.211 -12.241  0.00  0.00    +0.015 C 
ATOM     33  C   UNL     1      36.250 -25.098 -13.895  0.00  0.00    +0.000 C 
ATOM     34  C   UNL     1      35.908 -24.843 -12.567  0.00  0.00    +0.001 C 
ATOM     35  H   UNL     1      32.162 -22.931 -12.460  0.00  0.00    +0.152 HD
ENDBRANCH  25  27
ENDBRANCH  20  25
ENDBRANCH  19  20
ENDBRANCH   1  19
TORSDOF 7
ENDMDL
MODEL 8
REMARK VINA RESULT:     -11.4      3.405     11.604
REMARK  Name = 10172943
REMARK  7 active torsions:
REMARK  status: ('A' for Active; 'I' for Inactive)
REMARK    1  A    between atoms: O_1  and  C_3
REMARK    2  A    between atoms: O_1  and  C_19
REMARK    3  A    between atoms: C_4  and  C_11
REMARK    4  A    between atoms: C_19  and  C_20
REMARK    5  A    between atoms: C_20  and  N_21
REMARK    6  A    between atoms: C_20  and  C_25
REMARK    7  A    between atoms: C_25  and  C_27
REMARK                            x       y       z     vdW  Elec       q    Type
REMARK                         _______ _______ _______ _____ _____    ______ ____
ROOT
ATOM      1  O   UNL     1      35.465 -21.644 -19.467  0.00  0.00    -0.476 OA
ENDROOT
BRANCH   1   3
ATOM      2  N   UNL     1      36.920 -22.263 -16.184  0.00  0.00    -0.239 NA
ATOM      3  C   UNL     1      35.563 -22.031 -18.155  0.00  0.00    +0.158 C 
ATOM      4  C   UNL     1      34.597 -22.934 -16.163  0.00  0.00    +0.022 C 
ATOM      5  C   UNL     1      34.467 -22.552 -17.493  0.00  0.00    +0.040 C 
ATOM      6  C   UNL     1      36.755 -21.903 -17.476  0.00  0.00    +0.136 C 
ATOM      7  C   UNL     1      35.834 -22.772 -15.558  0.00  0.00    +0.099 C 
BRANCH   4  11
ATOM      8  N   UNL     1      29.344 -24.499 -14.269  0.00  0.00    -0.280 N 
ATOM      9  N   UNL     1      30.258 -25.005 -13.417  0.00  0.00    -0.173 NA
ATOM     10  C   UNL     1      31.217 -23.832 -15.109  0.00  0.00    +0.032 A 
ATOM     11  C   UNL     1      33.478 -23.482 -15.432  0.00  0.00    +0.002 C 
ATOM     12  C   UNL     1      31.442 -24.607 -13.912  0.00  0.00    +0.102 A 
ATOM     13  C   UNL     1      32.175 -23.239 -15.921  0.00  0.00    +0.003 C 
ATOM     14  C   UNL     1      29.866 -23.784 -15.306  0.00  0.00    +0.053 A 
ATOM     15  C   UNL     1      33.749 -24.247 -14.249  0.00  0.00    +0.002 C 
ATOM     16  C   UNL     1      32.749 -24.837 -13.444  0.00  0.00    +0.021 C 
ATOM     17  C   UNL     1      29.013 -23.161 -16.332  0.00  0.00    +0.051 C 
ATOM     18  H   UNL     1      28.376 -24.634 -14.151  0.00  0.00    +0.189 HD
ENDBRANCH   4  11
ENDBRANCH   1   3
BRANCH   1  19
ATOM     19  C   UNL     1      36.231 -20.514 -19.860  0.00  0.00    +0.184 C 
BRANCH  19  20
ATOM     20  C   UNL     1      35.490 -19.653 -20.892  0.00  0.00    -0.017 C 
BRANCH  20  21
ATOM     21  N   UNL     1      34.052 -19.929 -20.787  0.00  0.00    +0.384 N 
ATOM     22  H   UNL     1      33.785 -20.611 -21.496  0.00  0.00    -0.089 HD
ATOM     23  H   UNL     1      33.529 -19.065 -20.931  0.00  0.00    -0.089 HD
ATOM     24  H   UNL     1      33.845 -20.301 -19.860  0.00  0.00    -0.089 HD
ENDBRANCH  20  21
BRANCH  20  25
ATOM     25  C   UNL     1      35.736 -18.130 -20.723  0.00  0.00    +0.009 C 
BRANCH  25  27
ATOM     26  N   UNL     1      35.000 -16.679 -23.991  0.00  0.00    -0.312 N 
ATOM     27  C   UNL     1      35.357 -17.315 -21.895  0.00  0.00    -0.008 C 
ATOM     28  C   UNL     1      34.843 -15.989 -21.876  0.00  0.00    +0.011 C 
ATOM     29  C   UNL     1      34.628 -15.613 -23.203  0.00  0.00    +0.048 C 
ATOM     30  C   UNL     1      35.443 -17.712 -23.210  0.00  0.00    +0.058 C 
ATOM     31  C   UNL     1      34.538 -15.070 -20.853  0.00  0.00    +0.001 C 
ATOM     32  C   UNL     1      34.120 -14.358 -23.560  0.00  0.00    +0.015 C 
ATOM     33  C   UNL     1      34.031 -13.811 -21.195  0.00  0.00    +0.000 C 
ATOM     34  C   UNL     1      33.825 -13.463 -22.528  0.00  0.00    +0.001 C 
ATOM     35  H   UNL     1      34.955 -16.695 -24.975  0.00  0.00    +0.152 HD
ENDBRANCH  25  27
ENDBRANCH  20  25
ENDBRANCH  19  20
ENDBRANCH   1  19
TORSDOF 7
ENDMDL
MODEL 9
REMARK VINA RESULT:     -11.4      3.588      7.105
REMARK  Name = 10172943
REMARK  7 active torsions:
REMARK  status: ('A' for Active; 'I' for Inactive)
REMARK    1  A    between atoms: O_1  and  C_3
REMARK    2  A    between atoms: O_1  and  C_19
REMARK    3  A    between atoms: C_4  and  C_11
REMARK    4  A    between atoms: C_19  and  C_20
REMARK    5  A    between atoms: C_20  and  N_21
REMARK    6  A    between atoms: C_20  and  C_25
REMARK    7  A    between atoms: C_25  and  C_27
REMARK                            x       y       z     vdW  Elec       q    Type
REMARK                         _______ _______ _______ _____ _____    ______ ____
ROOT
ATOM      1  O   UNL     1      33.306 -22.051 -18.535  0.00  0.00    -0.476 OA
ENDROOT
BRANCH   1   3
ATOM      2  N   UNL     1      36.675 -20.854 -19.243  0.00  0.00    -0.239 NA
ATOM      3  C   UNL     1      34.327 -21.362 -19.139  0.00  0.00    +0.158 C 
ATOM      4  C   UNL     1      35.127 -19.837 -20.797  0.00  0.00    +0.022 C 
ATOM      5  C   UNL     1      34.071 -20.520 -20.205  0.00  0.00    +0.040 C 
ATOM      6  C   UNL     1      35.623 -21.501 -18.693  0.00  0.00    +0.136 C 
ATOM      7  C   UNL     1      36.399 -20.035 -20.284  0.00  0.00    +0.099 C 
BRANCH   4  11
ATOM      8  N   UNL     1      34.355 -15.255 -24.268  0.00  0.00    -0.280 N 
ATOM      9  N   UNL     1      34.284 -16.366 -25.028  0.00  0.00    -0.173 NA
ATOM     10  C   UNL     1      34.658 -16.845 -22.840  0.00  0.00    +0.032 A 
ATOM     11  C   UNL     1      34.905 -18.948 -21.914  0.00  0.00    +0.002 C 
ATOM     12  C   UNL     1      34.470 -17.381 -24.167  0.00  0.00    +0.102 A 
ATOM     13  C   UNL     1      34.880 -17.557 -21.668  0.00  0.00    +0.003 C 
ATOM     14  C   UNL     1      34.579 -15.485 -22.942  0.00  0.00    +0.053 A 
ATOM     15  C   UNL     1      34.724 -19.524 -23.215  0.00  0.00    +0.002 C 
ATOM     16  C   UNL     1      34.500 -18.770 -24.388  0.00  0.00    +0.021 C 
ATOM     17  C   UNL     1      34.686 -14.387 -21.966  0.00  0.00    +0.051 C 
ATOM     18  H   UNL     1      34.252 -14.350 -24.640  0.00  0.00    +0.189 HD
ENDBRANCH   4  11
ENDBRANCH   1   3
BRANCH   1  19
ATOM     19  C   UNL     1      33.662 -23.224 -17.815  0.00  0.00    +0.184 C 
BRANCH  19  20
ATOM     20  C   UNL     1      33.380 -23.079 -16.314  0.00  0.00    -0.017 C 
BRANCH  20  21
ATOM     21  N   UNL     1      31.928 -23.141 -16.102  0.00  0.00    +0.384 N 
ATOM     22  H   UNL     1      31.628 -24.116 -16.090  0.00  0.00    -0.089 HD
ATOM     23  H   UNL     1      31.454 -22.647 -16.858  0.00  0.00    -0.089 HD
ATOM     24  H   UNL     1      31.697 -22.702 -15.211  0.00  0.00    -0.089 HD
ENDBRANCH  20  21
BRANCH  20  25
ATOM     25  C   UNL     1      34.074 -24.161 -15.445  0.00  0.00    +0.009 C 
BRANCH  25  27
ATOM     26  N   UNL     1      37.306 -22.812 -14.415  0.00  0.00    -0.312 N 
ATOM     27  C   UNL     1      35.306 -23.705 -14.769  0.00  0.00    -0.008 C 
ATOM     28  C   UNL     1      35.615 -23.842 -13.387  0.00  0.00    +0.011 C 
ATOM     29  C   UNL     1      36.876 -23.274 -13.191  0.00  0.00    +0.048 C 
ATOM     30  C   UNL     1      36.365 -23.069 -15.375  0.00  0.00    +0.058 C 
ATOM     31  C   UNL     1      34.941 -24.395 -12.281  0.00  0.00    +0.001 C 
ATOM     32  C   UNL     1      37.498 -23.231 -11.938  0.00  0.00    +0.015 C 
ATOM     33  C   UNL     1      35.552 -24.360 -11.022  0.00  0.00    +0.000 C 
ATOM     34  C   UNL     1      36.811 -23.786 -10.855  0.00  0.00    +0.001 C 
ATOM     35  H   UNL     1      38.168 -22.364 -14.576  0.00  0.00    +0.152 HD
ENDBRANCH  25  27
ENDBRANCH  20  25
ENDBRANCH  19  20
ENDBRANCH   1  19
TORSDOF 7
ENDMDL
