MODEL 1
REMARK VINA RESULT:     -12.2      0.000      0.000
REMARK  Name = 448605
REMARK  6 active torsions:
REMARK  status: ('A' for Active; 'I' for Inactive)
REMARK    1  A    between atoms: C_3  and  N_11
REMARK    2  A    between atoms: C_4  and  C_27
REMARK    3  A    between atoms: C_9  and  C_21
REMARK    4  A    between atoms: N_26  and  C_29
REMARK    5  A    between atoms: C_30  and  C_35
REMARK    6  A    between atoms: C_35  and  N_36
REMARK                            x       y       z     vdW  Elec       q    Type
REMARK                         _______ _______ _______ _____ _____    ______ ____
ROOT
ATOM      1  C   UNL     1      34.273 -23.143 -15.891  0.00  0.00    +0.014 C 
ATOM      2  C   UNL     1      33.300 -22.866 -16.882  0.00  0.00    +0.001 C 
ATOM      3  C   UNL     1      35.606 -22.763 -16.112  0.00  0.00    +0.057 C 
ATOM      4  C   UNL     1      35.022 -21.849 -18.269  0.00  0.00    +0.055 C 
ATOM      5  C   UNL     1      33.692 -22.218 -18.066  0.00  0.00    +0.005 C 
ATOM      6  C   UNL     1      35.977 -22.120 -17.293  0.00  0.00    +0.020 C 
ATOM      7  C   UNL     1      33.882 -23.790 -14.708  0.00  0.00    +0.004 C 
ATOM      8  C   UNL     1      31.967 -23.246 -16.662  0.00  0.00    +0.000 C 
ATOM      9  C   UNL     1      32.551 -24.160 -14.505  0.00  0.00    +0.031 C 
ATOM     10  C   UNL     1      31.596 -23.888 -15.480  0.00  0.00    +0.003 C 
ENDROOT
BRANCH   3  11
ATOM     11  N   UNL     1      36.618 -23.014 -15.153  0.00  0.00    -0.257 N 
ATOM     12  N   UNL     1      36.629 -25.360 -15.086  0.00  0.00    -0.180 NA
ATOM     13  N   UNL     1      38.128 -24.075 -13.704  0.00  0.00    -0.203 NA
ATOM     14  C   UNL     1      37.149 -24.202 -14.624  0.00  0.00    +0.091 C 
ATOM     15  C   UNL     1      37.162 -26.480 -14.557  0.00  0.00    +0.108 C 
ATOM     16  C   UNL     1      38.615 -25.236 -13.216  0.00  0.00    +0.165 C 
ATOM     17  C   UNL     1      38.166 -26.480 -13.610  0.00  0.00    +0.022 C 
ATOM     18  H   UNL     1      37.028 -22.198 -14.786  0.00  0.00    +0.164 HD
ENDBRANCH   3  11
BRANCH   9  21
ATOM     19  N   UNL     1      30.840 -25.201 -13.038  0.00  0.00    -0.343 N 
ATOM     20  N   UNL     1      33.071 -25.092 -12.352  0.00  0.00    -0.285 NA
ATOM     21  C   UNL     1      32.162 -24.830 -13.274  0.00  0.00    +0.117 C 
ATOM     22  H   UNL     1      30.598 -25.653 -12.198  0.00  0.00    +0.144 HD
ATOM     23  H   UNL     1      30.147 -25.012 -13.712  0.00  0.00    +0.144 HD
ATOM     24  H   UNL     1      32.809 -25.545 -11.518  0.00  0.00    +0.188 HD
ENDBRANCH   9  21
BRANCH   4  27
ATOM     25  O   UNL     1      36.399 -21.592 -20.126  0.00  0.00    -0.270 OA
ATOM     26  N   UNL     1      34.597 -20.106 -19.894  0.00  0.00    -0.280 N 
ATOM     27  C   UNL     1      35.410 -21.178 -19.499  0.00  0.00    +0.250 C 
ATOM     28  H   UNL     1      33.848 -19.893 -19.293  0.00  0.00    +0.155 HD
BRANCH  26  29
ATOM     29  C   UNL     1      34.713 -19.289 -21.046  0.00  0.00    +0.051 C 
ATOM     30  C   UNL     1      34.939 -17.693 -23.296  0.00  0.00    -0.044 C 
ATOM     31  C   UNL     1      34.228 -19.754 -22.256  0.00  0.00    +0.014 C 
ATOM     32  C   UNL     1      35.310 -18.045 -20.935  0.00  0.00    +0.014 C 
ATOM     33  C   UNL     1      34.342 -18.950 -23.390  0.00  0.00    -0.005 C 
ATOM     34  C   UNL     1      35.423 -17.241 -22.069  0.00  0.00    -0.005 C 
BRANCH  30  35
ATOM     35  C   UNL     1      35.060 -16.834 -24.509  0.00  0.00    -0.059 C 
BRANCH  35  36
ATOM     36  N   UNL     1      34.176 -15.698 -24.466  0.00  0.00    +0.383 N 
ATOM     37  H   UNL     1      34.065 -15.388 -23.501  0.00  0.00    -0.089 HD
ATOM     38  H   UNL     1      33.266 -15.960 -24.845  0.00  0.00    -0.089 HD
ATOM     39  H   UNL     1      34.570 -14.939 -25.023  0.00  0.00    -0.089 HD
ENDBRANCH  35  36
ENDBRANCH  30  35
ENDBRANCH  26  29
ENDBRANCH   4  27
TORSDOF 6
ENDMDL
MODEL 2
REMARK VINA RESULT:      -9.8     10.261     18.015
REMARK  Name = 448605
REMARK  6 active torsions:
REMARK  status: ('A' for Active; 'I' for Inactive)
REMARK    1  A    between atoms: C_3  and  N_11
REMARK    2  A    between atoms: C_4  and  C_27
REMARK    3  A    between atoms: C_9  and  C_21
REMARK    4  A    between atoms: N_26  and  C_29
REMARK    5  A    between atoms: C_30  and  C_35
REMARK    6  A    between atoms: C_35  and  N_36
REMARK                            x       y       z     vdW  Elec       q    Type
REMARK                         _______ _______ _______ _____ _____    ______ ____
ROOT
ATOM      1  C   UNL     1      33.181  -5.834 -23.590  0.00  0.00    +0.014 C 
ATOM      2  C   UNL     1      32.487  -6.890 -22.951  0.00  0.00    +0.001 C 
ATOM      3  C   UNL     1      34.277  -6.131 -24.415  0.00  0.00    +0.057 C 
ATOM      4  C   UNL     1      34.004  -8.490 -23.981  0.00  0.00    +0.055 C 
ATOM      5  C   UNL     1      32.911  -8.214 -23.159  0.00  0.00    +0.005 C 
ATOM      6  C   UNL     1      34.685  -7.451 -24.609  0.00  0.00    +0.020 C 
ATOM      7  C   UNL     1      32.757  -4.511 -23.384  0.00  0.00    +0.004 C 
ATOM      8  C   UNL     1      31.391  -6.593 -22.126  0.00  0.00    +0.000 C 
ATOM      9  C   UNL     1      31.665  -4.233 -22.560  0.00  0.00    +0.031 C 
ATOM     10  C   UNL     1      30.983  -5.273 -21.933  0.00  0.00    +0.003 C 
ENDROOT
BRANCH   3  11
ATOM     11  N   UNL     1      35.006  -5.113 -25.077  0.00  0.00    -0.257 N 
ATOM     12  N   UNL     1      33.754  -4.841 -27.043  0.00  0.00    -0.180 NA
ATOM     13  N   UNL     1      35.727  -3.517 -26.640  0.00  0.00    -0.203 NA
ATOM     14  C   UNL     1      34.820  -4.461 -26.307  0.00  0.00    +0.091 C 
ATOM     15  C   UNL     1      33.606  -4.195 -28.217  0.00  0.00    +0.108 C 
ATOM     16  C   UNL     1      35.519  -2.912 -27.828  0.00  0.00    +0.165 C 
ATOM     17  C   UNL     1      34.465  -3.213 -28.666  0.00  0.00    +0.022 C 
ATOM     18  H   UNL     1      35.796  -4.802 -24.578  0.00  0.00    +0.164 HD
ENDBRANCH   3  11
BRANCH   9  21
ATOM     19  N   UNL     1      31.971  -1.789 -22.867  0.00  0.00    -0.343 N 
ATOM     20  N   UNL     1      30.136  -2.605 -21.673  0.00  0.00    -0.285 NA
ATOM     21  C   UNL     1      31.237  -2.858 -22.357  0.00  0.00    +0.117 C 
ATOM     22  H   UNL     1      31.664  -0.866 -22.718  0.00  0.00    +0.144 HD
ATOM     23  H   UNL     1      32.797  -1.956 -23.377  0.00  0.00    +0.144 HD
ATOM     24  H   UNL     1      29.845  -1.675 -21.535  0.00  0.00    +0.188 HD
ENDBRANCH   9  21
BRANCH   4  27
ATOM     25  O   UNL     1      35.548 -10.085 -24.676  0.00  0.00    -0.270 OA
ATOM     26  N   UNL     1      33.523 -10.854 -23.776  0.00  0.00    -0.280 N 
ATOM     27  C   UNL     1      34.430  -9.866 -24.185  0.00  0.00    +0.250 C 
ATOM     28  H   UNL     1      32.672 -10.526 -23.404  0.00  0.00    +0.155 HD
BRANCH  26  29
ATOM     29  C   UNL     1      33.670 -12.262 -23.826  0.00  0.00    +0.051 C 
ATOM     30  C   UNL     1      33.958 -15.013 -23.925  0.00  0.00    -0.044 C 
ATOM     31  C   UNL     1      34.096 -12.938 -22.696  0.00  0.00    +0.014 C 
ATOM     32  C   UNL     1      33.385 -12.930 -25.005  0.00  0.00    +0.014 C 
ATOM     33  C   UNL     1      34.242 -14.324 -22.746  0.00  0.00    -0.005 C 
ATOM     34  C   UNL     1      33.530 -14.316 -25.054  0.00  0.00    -0.005 C 
BRANCH  30  35
ATOM     35  C   UNL     1      34.113 -16.495 -23.978  0.00  0.00    -0.059 C 
BRANCH  35  36
ATOM     36  N   UNL     1      35.356 -16.937 -23.399  0.00  0.00    +0.383 N 
ATOM     37  H   UNL     1      35.723 -16.211 -22.784  0.00  0.00    -0.089 HD
ATOM     38  H   UNL     1      36.029 -17.125 -24.142  0.00  0.00    -0.089 HD
ATOM     39  H   UNL     1      35.197 -17.790 -22.862  0.00  0.00    -0.089 HD
ENDBRANCH  35  36
ENDBRANCH  30  35
ENDBRANCH  26  29
ENDBRANCH   4  27
TORSDOF 6
ENDMDL
MODEL 3
REMARK VINA RESULT:      -9.6     10.044     17.620
REMARK  Name = 448605
REMARK  6 active torsions:
REMARK  status: ('A' for Active; 'I' for Inactive)
REMARK    1  A    between atoms: C_3  and  N_11
REMARK    2  A    between atoms: C_4  and  C_27
REMARK    3  A    between atoms: C_9  and  C_21
REMARK    4  A    between atoms: N_26  and  C_29
REMARK    5  A    between atoms: C_30  and  C_35
REMARK    6  A    between atoms: C_35  and  N_36
REMARK                            x       y       z     vdW  Elec       q    Type
REMARK                         _______ _______ _______ _____ _____    ______ ____
ROOT
ATOM      1  C   UNL     1      32.581  -6.114 -23.054  0.00  0.00    +0.014 C 
ATOM      2  C   UNL     1      31.595  -6.765 -22.273  0.00  0.00    +0.001 C 
ATOM      3  C   UNL     1      33.554  -6.882 -23.712  0.00  0.00    +0.057 C 
ATOM      4  C   UNL     1      32.587  -8.914 -22.836  0.00  0.00    +0.055 C 
ATOM      5  C   UNL     1      31.612  -8.166 -22.176  0.00  0.00    +0.005 C 
ATOM      6  C   UNL     1      33.556  -8.273 -23.604  0.00  0.00    +0.020 C 
ATOM      7  C   UNL     1      32.564  -4.713 -23.152  0.00  0.00    +0.004 C 
ATOM      8  C   UNL     1      30.622  -5.996 -21.615  0.00  0.00    +0.000 C 
ATOM      9  C   UNL     1      31.588  -3.964 -22.491  0.00  0.00    +0.031 C 
ATOM     10  C   UNL     1      30.619  -4.605 -21.724  0.00  0.00    +0.003 C 
ENDROOT
BRANCH   3  11
ATOM     11  N   UNL     1      34.562  -6.282 -24.506  0.00  0.00    -0.257 N 
ATOM     12  N   UNL     1      33.285  -5.183 -26.138  0.00  0.00    -0.180 NA
ATOM     13  N   UNL     1      35.691  -5.068 -26.166  0.00  0.00    -0.203 NA
ATOM     14  C   UNL     1      34.510  -5.475 -25.654  0.00  0.00    +0.091 C 
ATOM     15  C   UNL     1      33.272  -4.407 -27.241  0.00  0.00    +0.108 C 
ATOM     16  C   UNL     1      35.605  -4.295 -27.269  0.00  0.00    +0.165 C 
ATOM     17  C   UNL     1      34.411  -3.928 -27.856  0.00  0.00    +0.022 C 
ATOM     18  H   UNL     1      35.477  -6.467 -24.191  0.00  0.00    +0.164 HD
ENDBRANCH   3  11
BRANCH   9  21
ATOM     19  N   UNL     1      32.234  -1.867 -23.652  0.00  0.00    -0.343 N 
ATOM     20  N   UNL     1      30.957  -1.786 -21.696  0.00  0.00    -0.285 NA
ATOM     21  C   UNL     1      31.584  -2.514 -22.603  0.00  0.00    +0.117 C 
ATOM     22  H   UNL     1      32.219  -0.885 -23.709  0.00  0.00    +0.144 HD
ATOM     23  H   UNL     1      32.709  -2.392 -24.336  0.00  0.00    +0.144 HD
ATOM     24  H   UNL     1      30.953  -0.804 -21.771  0.00  0.00    +0.188 HD
ENDBRANCH   9  21
BRANCH   4  27
ATOM     25  O   UNL     1      31.825 -10.908 -21.913  0.00  0.00    -0.270 OA
ATOM     26  N   UNL     1      33.468 -11.041 -23.583  0.00  0.00    -0.280 N 
ATOM     27  C   UNL     1      32.591 -10.364 -22.724  0.00  0.00    +0.250 C 
ATOM     28  H   UNL     1      34.015 -10.473 -24.171  0.00  0.00    +0.155 HD
BRANCH  26  29
ATOM     29  C   UNL     1      33.670 -12.437 -23.715  0.00  0.00    +0.051 C 
ATOM     30  C   UNL     1      34.065 -15.165 -23.973  0.00  0.00    -0.044 C 
ATOM     31  C   UNL     1      33.390 -13.049 -24.924  0.00  0.00    +0.014 C 
ATOM     32  C   UNL     1      34.142 -13.158 -22.631  0.00  0.00    +0.014 C 
ATOM     33  C   UNL     1      33.589 -14.424 -25.055  0.00  0.00    -0.005 C 
ATOM     34  C   UNL     1      34.341 -14.532 -22.762  0.00  0.00    -0.005 C 
BRANCH  30  35
ATOM     35  C   UNL     1      34.277 -16.634 -24.113  0.00  0.00    -0.059 C 
BRANCH  35  36
ATOM     36  N   UNL     1      35.477 -17.080 -23.452  0.00  0.00    +0.383 N 
ATOM     37  H   UNL     1      35.506 -18.099 -23.448  0.00  0.00    -0.089 HD
ATOM     38  H   UNL     1      35.484 -16.736 -22.491  0.00  0.00    -0.089 HD
ATOM     39  H   UNL     1      36.292 -16.719 -23.948  0.00  0.00    -0.089 HD
ENDBRANCH  35  36
ENDBRANCH  30  35
ENDBRANCH  26  29
ENDBRANCH   4  27
TORSDOF 6
ENDMDL
MODEL 4
REMARK VINA RESULT:      -9.4      1.974      2.779
REMARK  Name = 448605
REMARK  6 active torsions:
REMARK  status: ('A' for Active; 'I' for Inactive)
REMARK    1  A    between atoms: C_3  and  N_11
REMARK    2  A    between atoms: C_4  and  C_27
REMARK    3  A    between atoms: C_9  and  C_21
REMARK    4  A    between atoms: N_26  and  C_29
REMARK    5  A    between atoms: C_30  and  C_35
REMARK    6  A    between atoms: C_35  and  N_36
REMARK                            x       y       z     vdW  Elec       q    Type
REMARK                         _______ _______ _______ _____ _____    ______ ____
ROOT
ATOM      1  C   UNL     1      35.852 -23.456 -14.327  0.00  0.00    +0.014 C 
ATOM      2  C   UNL     1      34.478 -23.230 -14.583  0.00  0.00    +0.001 C 
ATOM      3  C   UNL     1      36.784 -23.256 -15.357  0.00  0.00    +0.057 C 
ATOM      4  C   UNL     1      35.018 -22.618 -16.875  0.00  0.00    +0.055 C 
ATOM      5  C   UNL     1      34.078 -22.811 -15.863  0.00  0.00    +0.005 C 
ATOM      6  C   UNL     1      36.369 -22.840 -16.623  0.00  0.00    +0.020 C 
ATOM      7  C   UNL     1      36.252 -23.874 -13.048  0.00  0.00    +0.004 C 
ATOM      8  C   UNL     1      33.545 -23.429 -13.553  0.00  0.00    +0.000 C 
ATOM      9  C   UNL     1      35.311 -24.067 -12.035  0.00  0.00    +0.031 C 
ATOM     10  C   UNL     1      33.960 -23.844 -12.287  0.00  0.00    +0.003 C 
ENDROOT
BRANCH   3  11
ATOM     11  N   UNL     1      38.171 -23.467 -15.155  0.00  0.00    -0.257 N 
ATOM     12  N   UNL     1      38.247 -25.786 -14.804  0.00  0.00    -0.180 NA
ATOM     13  N   UNL     1      40.258 -24.460 -14.750  0.00  0.00    -0.203 NA
ATOM     14  C   UNL     1      38.925 -24.622 -14.892  0.00  0.00    +0.091 C 
ATOM     15  C   UNL     1      39.002 -26.874 -14.550  0.00  0.00    +0.108 C 
ATOM     16  C   UNL     1      40.952 -25.589 -14.497  0.00  0.00    +0.165 C 
ATOM     17  C   UNL     1      40.372 -26.836 -14.386  0.00  0.00    +0.022 C 
ATOM     18  H   UNL     1      38.709 -22.645 -15.209  0.00  0.00    +0.164 HD
ENDBRANCH   3  11
BRANCH   9  21
ATOM     19  N   UNL     1      36.886 -23.974 -10.117  0.00  0.00    -0.343 N 
ATOM     20  N   UNL     1      35.044 -25.412 -10.061  0.00  0.00    -0.285 NA
ATOM     21  C   UNL     1      35.742 -24.500 -10.715  0.00  0.00    +0.117 C 
ATOM     22  H   UNL     1      37.159 -24.282  -9.223  0.00  0.00    +0.144 HD
ATOM     23  H   UNL     1      37.421 -23.295 -10.589  0.00  0.00    +0.144 HD
ATOM     24  H   UNL     1      35.334 -25.706  -9.167  0.00  0.00    +0.188 HD
ENDBRANCH   9  21
BRANCH   4  27
ATOM     25  O   UNL     1      33.636 -22.767 -18.740  0.00  0.00    -0.270 OA
ATOM     26  N   UNL     1      35.289 -21.101 -18.741  0.00  0.00    -0.280 N 
ATOM     27  C   UNL     1      34.587 -22.184 -18.195  0.00  0.00    +0.250 C 
ATOM     28  H   UNL     1      36.022 -20.744 -18.190  0.00  0.00    +0.155 HD
BRANCH  26  29
ATOM     29  C   UNL     1      35.081 -20.452 -19.984  0.00  0.00    +0.051 C 
ATOM     30  C   UNL     1      34.675 -19.185 -22.411  0.00  0.00    -0.044 C 
ATOM     31  C   UNL     1      36.149 -19.836 -20.611  0.00  0.00    +0.014 C 
ATOM     32  C   UNL     1      33.814 -20.449 -20.542  0.00  0.00    +0.014 C 
ATOM     33  C   UNL     1      35.945 -19.197 -21.835  0.00  0.00    -0.005 C 
ATOM     34  C   UNL     1      33.610 -19.812 -21.764  0.00  0.00    -0.005 C 
BRANCH  30  35
ATOM     35  C   UNL     1      34.457 -18.503 -23.719  0.00  0.00    -0.059 C 
BRANCH  35  36
ATOM     36  N   UNL     1      35.115 -17.223 -23.786  0.00  0.00    +0.383 N 
ATOM     37  H   UNL     1      34.446 -16.510 -24.074  0.00  0.00    -0.089 HD
ATOM     38  H   UNL     1      35.877 -17.268 -24.464  0.00  0.00    -0.089 HD
ATOM     39  H   UNL     1      35.491 -16.987 -22.868  0.00  0.00    -0.089 HD
ENDBRANCH  35  36
ENDBRANCH  30  35
ENDBRANCH  26  29
ENDBRANCH   4  27
TORSDOF 6
ENDMDL
