MODEL 1
REMARK VINA RESULT:     -12.0      0.000      0.000
REMARK  Name = 6918388
REMARK  5 active torsions:
REMARK  status: ('A' for Active; 'I' for Inactive)
REMARK    1  A    between atoms: N_1  and  C_4
REMARK    2  A    between atoms: N_1  and  C_15
REMARK    3  A    between atoms: C_4  and  C_6
REMARK    4  A    between atoms: C_15  and  C_17
REMARK    5  A    between atoms: C_19  and  C_23
REMARK                            x       y       z     vdW  Elec       q    Type
REMARK                         _______ _______ _______ _____ _____    ______ ____
ROOT
ATOM      1  N   UNL     1      36.047 -17.709 -22.822  0.00  0.00    +0.389 N 
ATOM      2  H   UNL     1      35.386 -18.200 -23.423  0.00  0.00    -0.084 HD
ATOM      3  H   UNL     1      36.785 -17.279 -23.379  0.00  0.00    -0.084 HD
ENDROOT
BRANCH   1   4
ATOM      4  C   UNL     1      36.654 -18.662 -21.904  0.00  0.00    -0.037 C 
BRANCH   4   6
ATOM      5  O   UNL     1      36.286 -20.190 -20.113  0.00  0.00    -0.482 OA
ATOM      6  C   UNL     1      35.624 -19.207 -20.923  0.00  0.00    +0.145 C 
ATOM      7  C   UNL     1      34.433 -19.811 -21.665  0.00  0.00    +0.046 C 
ATOM      8  C   UNL     1      33.404 -20.295 -20.651  0.00  0.00    +0.033 C 
ATOM      9  C   UNL     1      34.076 -21.061 -19.547  0.00  0.00    +0.012 C 
ATOM     10  C   UNL     1      35.457 -20.958 -19.336  0.00  0.00    +0.134 C 
ATOM     11  C   UNL     1      33.314 -21.871 -18.695  0.00  0.00    -0.001 C 
ATOM     12  C   UNL     1      36.070 -21.688 -18.315  0.00  0.00    +0.037 C 
ATOM     13  C   UNL     1      33.925 -22.588 -17.667  0.00  0.00    -0.000 C 
ATOM     14  C   UNL     1      35.303 -22.500 -17.480  0.00  0.00    +0.003 C 
ENDBRANCH   4   6
ENDBRANCH   1   4
BRANCH   1  15
ATOM     15  C   UNL     1      35.344 -16.660 -22.096  0.00  0.00    -0.053 C 
BRANCH  15  17
ATOM     16  N   UNL     1      33.742 -15.289 -25.218  0.00  0.00    -0.243 NA
ATOM     17  C   UNL     1      34.617 -15.725 -23.025  0.00  0.00    -0.025 C 
ATOM     18  C   UNL     1      34.175 -14.497 -22.573  0.00  0.00    -0.003 C 
ATOM     19  C   UNL     1      33.506 -13.654 -23.453  0.00  0.00    +0.019 C 
ATOM     20  C   UNL     1      34.387 -16.082 -24.334  0.00  0.00    +0.092 C 
ATOM     21  C   UNL     1      33.317 -14.093 -24.754  0.00  0.00    +0.099 C 
BRANCH  19  23
ATOM     22  F   UNL     1      31.639  -8.664 -21.808  0.00  0.00    -0.204 F 
ATOM     23  C   UNL     1      33.024 -12.361 -23.027  0.00  0.00    +0.002 C 
ATOM     24  C   UNL     1      32.173 -12.261 -21.924  0.00  0.00    +0.002 C 
ATOM     25  C   UNL     1      33.404 -11.209 -23.716  0.00  0.00    +0.002 C 
ATOM     26  C   UNL     1      31.706 -11.012 -21.513  0.00  0.00    +0.030 C 
ATOM     27  C   UNL     1      32.936  -9.960 -23.305  0.00  0.00    +0.030 C 
ATOM     28  C   UNL     1      32.087  -9.863 -22.203  0.00  0.00    +0.140 C 
ENDBRANCH  19  23
ENDBRANCH  15  17
ENDBRANCH   1  15
TORSDOF 5
ENDMDL
MODEL 2
REMARK VINA RESULT:     -11.9      3.885     10.050
REMARK  Name = 6918388
REMARK  5 active torsions:
REMARK  status: ('A' for Active; 'I' for Inactive)
REMARK    1  A    between atoms: N_1  and  C_4
REMARK    2  A    between atoms: N_1  and  C_15
REMARK    3  A    between atoms: C_4  and  C_6
REMARK    4  A    between atoms: C_15  and  C_17
REMARK    5  A    between atoms: C_19  and  C_23
REMARK                            x       y       z     vdW  Elec       q    Type
REMARK                         _______ _______ _______ _____ _____    ______ ____
ROOT
ATOM      1  N   UNL     1      33.204 -13.719 -23.215  0.00  0.00    +0.389 N 
ATOM      2  H   UNL     1      32.567 -14.483 -23.437  0.00  0.00    -0.084 HD
ATOM      3  H   UNL     1      32.900 -13.235 -22.370  0.00  0.00    -0.084 HD
ENDROOT
BRANCH   1   4
ATOM      4  C   UNL     1      33.211 -12.768 -24.317  0.00  0.00    -0.037 C 
BRANCH   4   6
ATOM      5  O   UNL     1      32.965 -10.640 -23.273  0.00  0.00    -0.482 OA
ATOM      6  C   UNL     1      33.927 -11.482 -23.924  0.00  0.00    +0.145 C 
ATOM      7  C   UNL     1      34.525 -10.796 -25.152  0.00  0.00    +0.046 C 
ATOM      8  C   UNL     1      35.277  -9.547 -24.710  0.00  0.00    +0.033 C 
ATOM      9  C   UNL     1      34.456  -8.761 -23.727  0.00  0.00    +0.012 C 
ATOM     10  C   UNL     1      33.369  -9.346 -23.066  0.00  0.00    +0.134 C 
ATOM     11  C   UNL     1      34.792  -7.430 -23.443  0.00  0.00    -0.001 C 
ATOM     12  C   UNL     1      32.607  -8.598 -22.165  0.00  0.00    +0.037 C 
ATOM     13  C   UNL     1      34.038  -6.689 -22.533  0.00  0.00    -0.000 C 
ATOM     14  C   UNL     1      32.944  -7.272 -21.898  0.00  0.00    +0.003 C 
ENDBRANCH   4   6
ENDBRANCH   1   4
BRANCH   1  15
ATOM     15  C   UNL     1      34.536 -14.261 -22.985  0.00  0.00    -0.053 C 
BRANCH  15  17
ATOM     16  N   UNL     1      34.235 -17.588 -24.726  0.00  0.00    -0.243 NA
ATOM     17  C   UNL     1      34.588 -15.745 -23.227  0.00  0.00    -0.025 C 
ATOM     18  C   UNL     1      35.015 -16.601 -22.231  0.00  0.00    -0.003 C 
ATOM     19  C   UNL     1      35.053 -17.967 -22.483  0.00  0.00    +0.019 C 
ATOM     20  C   UNL     1      34.211 -16.266 -24.444  0.00  0.00    +0.092 C 
ATOM     21  C   UNL     1      34.656 -18.406 -23.737  0.00  0.00    +0.099 C 
BRANCH  19  23
ATOM     22  F   UNL     1      36.754 -21.574 -18.586  0.00  0.00    -0.204 F 
ATOM     23  C   UNL     1      35.492 -18.901 -21.473  0.00  0.00    +0.002 C 
ATOM     24  C   UNL     1      36.807 -18.858 -21.005  0.00  0.00    +0.002 C 
ATOM     25  C   UNL     1      34.606 -19.851 -20.963  0.00  0.00    +0.002 C 
ATOM     26  C   UNL     1      37.233 -19.760 -20.030  0.00  0.00    +0.030 C 
ATOM     27  C   UNL     1      35.032 -20.753 -19.988  0.00  0.00    +0.030 C 
ATOM     28  C   UNL     1      36.345 -20.708 -19.522  0.00  0.00    +0.140 C 
ENDBRANCH  19  23
ENDBRANCH  15  17
ENDBRANCH   1  15
TORSDOF 5
ENDMDL
MODEL 3
REMARK VINA RESULT:     -11.9      1.337      2.018
REMARK  Name = 6918388
REMARK  5 active torsions:
REMARK  status: ('A' for Active; 'I' for Inactive)
REMARK    1  A    between atoms: N_1  and  C_4
REMARK    2  A    between atoms: N_1  and  C_15
REMARK    3  A    between atoms: C_4  and  C_6
REMARK    4  A    between atoms: C_15  and  C_17
REMARK    5  A    between atoms: C_19  and  C_23
REMARK                            x       y       z     vdW  Elec       q    Type
REMARK                         _______ _______ _______ _____ _____    ______ ____
ROOT
ATOM      1  N   UNL     1      35.613 -16.673 -22.753  0.00  0.00    +0.389 N 
ATOM      2  H   UNL     1      36.066 -16.266 -23.569  0.00  0.00    -0.084 HD
ATOM      3  H   UNL     1      36.303 -16.897 -22.036  0.00  0.00    -0.084 HD
ENDROOT
BRANCH   1   4
ATOM      4  C   UNL     1      34.936 -17.901 -23.145  0.00  0.00    -0.037 C 
BRANCH   4   6
ATOM      5  O   UNL     1      34.175 -19.437 -21.490  0.00  0.00    -0.482 OA
ATOM      6  C   UNL     1      35.338 -19.059 -22.241  0.00  0.00    +0.145 C 
ATOM      7  C   UNL     1      36.488 -18.655 -21.319  0.00  0.00    +0.046 C 
ATOM      8  C   UNL     1      36.894 -19.854 -20.471  0.00  0.00    +0.033 C 
ATOM      9  C   UNL     1      35.678 -20.538 -19.912  0.00  0.00    +0.012 C 
ATOM     10  C   UNL     1      34.408 -20.302 -20.453  0.00  0.00    +0.134 C 
ATOM     11  C   UNL     1      35.813 -21.445 -18.853  0.00  0.00    -0.001 C 
ATOM     12  C   UNL     1      33.285 -20.935 -19.913  0.00  0.00    +0.037 C 
ATOM     13  C   UNL     1      34.692 -22.086 -18.325  0.00  0.00    -0.000 C 
ATOM     14  C   UNL     1      33.429 -21.827 -18.852  0.00  0.00    +0.003 C 
ENDBRANCH   4   6
ENDBRANCH   1   4
BRANCH   1  15
ATOM     15  C   UNL     1      34.668 -15.710 -22.202  0.00  0.00    -0.053 C 
BRANCH  15  17
ATOM     16  N   UNL     1      33.389 -14.310 -25.457  0.00  0.00    -0.243 NA
ATOM     17  C   UNL     1      34.209 -14.719 -23.237  0.00  0.00    -0.025 C 
ATOM     18  C   UNL     1      34.181 -13.369 -22.948  0.00  0.00    -0.003 C 
ATOM     19  C   UNL     1      33.752 -12.477 -23.923  0.00  0.00    +0.019 C 
ATOM     20  C   UNL     1      33.812 -15.147 -24.484  0.00  0.00    +0.092 C 
ATOM     21  C   UNL     1      33.369 -12.994 -25.151  0.00  0.00    +0.099 C 
BRANCH  19  23
ATOM     22  F   UNL     1      33.565  -6.992 -22.935  0.00  0.00    -0.204 F 
ATOM     23  C   UNL     1      33.705 -11.057 -23.667  0.00  0.00    +0.002 C 
ATOM     24  C   UNL     1      32.706 -10.526 -22.847  0.00  0.00    +0.002 C 
ATOM     25  C   UNL     1      34.655 -10.209 -24.239  0.00  0.00    +0.002 C 
ATOM     26  C   UNL     1      32.659  -9.154 -22.600  0.00  0.00    +0.030 C 
ATOM     27  C   UNL     1      34.608  -8.837 -23.992  0.00  0.00    +0.030 C 
ATOM     28  C   UNL     1      33.610  -8.310 -23.173  0.00  0.00    +0.140 C 
ENDBRANCH  19  23
ENDBRANCH  15  17
ENDBRANCH   1  15
TORSDOF 5
ENDMDL
MODEL 4
REMARK VINA RESULT:     -11.8      3.515      9.321
REMARK  Name = 6918388
REMARK  5 active torsions:
REMARK  status: ('A' for Active; 'I' for Inactive)
REMARK    1  A    between atoms: N_1  and  C_4
REMARK    2  A    between atoms: N_1  and  C_15
REMARK    3  A    between atoms: C_4  and  C_6
REMARK    4  A    between atoms: C_15  and  C_17
REMARK    5  A    between atoms: C_19  and  C_23
REMARK                            x       y       z     vdW  Elec       q    Type
REMARK                         _______ _______ _______ _____ _____    ______ ____
ROOT
ATOM      1  N   UNL     1      35.095 -16.286 -23.435  0.00  0.00    +0.389 N 
ATOM      2  H   UNL     1      35.129 -16.020 -22.451  0.00  0.00    -0.084 HD
ATOM      3  H   UNL     1      35.962 -16.024 -23.905  0.00  0.00    -0.084 HD
ENDROOT
BRANCH   1   4
ATOM      4  C   UNL     1      33.990 -15.590 -24.078  0.00  0.00    -0.037 C 
BRANCH   4   6
ATOM      5  O   UNL     1      32.992 -14.034 -22.574  0.00  0.00    -0.482 OA
ATOM      6  C   UNL     1      33.940 -14.129 -23.648  0.00  0.00    +0.145 C 
ATOM      7  C   UNL     1      33.544 -13.231 -24.819  0.00  0.00    +0.046 C 
ATOM      8  C   UNL     1      33.558 -11.778 -24.361  0.00  0.00    +0.033 C 
ATOM      9  C   UNL     1      32.869 -11.639 -23.033  0.00  0.00    +0.012 C 
ATOM     10  C   UNL     1      32.638 -12.757 -22.222  0.00  0.00    +0.134 C 
ATOM     11  C   UNL     1      32.472 -10.374 -22.581  0.00  0.00    -0.001 C 
ATOM     12  C   UNL     1      31.984 -12.615 -20.995  0.00  0.00    +0.037 C 
ATOM     13  C   UNL     1      31.831 -10.232 -21.350  0.00  0.00    -0.000 C 
ATOM     14  C   UNL     1      31.584 -11.352 -20.561  0.00  0.00    +0.003 C 
ENDBRANCH   4   6
ENDBRANCH   1   4
BRANCH   1  15
ATOM     15  C   UNL     1      34.931 -17.730 -23.534  0.00  0.00    -0.053 C 
BRANCH  15  17
ATOM     16  N   UNL     1      37.560 -18.898 -21.101  0.00  0.00    -0.243 NA
ATOM     17  C   UNL     1      35.578 -18.449 -22.380  0.00  0.00    -0.025 C 
ATOM     18  C   UNL     1      34.832 -19.284 -21.572  0.00  0.00    -0.003 C 
ATOM     19  C   UNL     1      35.456 -19.935 -20.514  0.00  0.00    +0.019 C 
ATOM     20  C   UNL     1      36.919 -18.282 -22.119  0.00  0.00    +0.092 C 
ATOM     21  C   UNL     1      36.811 -19.710 -20.322  0.00  0.00    +0.099 C 
BRANCH  19  23
ATOM     22  F   UNL     1      32.603 -23.338 -17.142  0.00  0.00    -0.204 F 
ATOM     23  C   UNL     1      34.718 -20.817 -19.641  0.00  0.00    +0.002 C 
ATOM     24  C   UNL     1      33.322 -20.813 -19.661  0.00  0.00    +0.002 C 
ATOM     25  C   UNL     1      35.397 -21.674 -18.774  0.00  0.00    +0.002 C 
ATOM     26  C   UNL     1      32.608 -21.665 -18.817  0.00  0.00    +0.030 C 
ATOM     27  C   UNL     1      34.683 -22.526 -17.930  0.00  0.00    +0.030 C 
ATOM     28  C   UNL     1      33.289 -22.520 -17.952  0.00  0.00    +0.140 C 
ENDBRANCH  19  23
ENDBRANCH  15  17
ENDBRANCH   1  15
TORSDOF 5
ENDMDL
MODEL 5
REMARK VINA RESULT:     -11.3      3.828     10.065
REMARK  Name = 6918388
REMARK  5 active torsions:
REMARK  status: ('A' for Active; 'I' for Inactive)
REMARK    1  A    between atoms: N_1  and  C_4
REMARK    2  A    between atoms: N_1  and  C_15
REMARK    3  A    between atoms: C_4  and  C_6
REMARK    4  A    between atoms: C_15  and  C_17
REMARK    5  A    between atoms: C_19  and  C_23
REMARK                            x       y       z     vdW  Elec       q    Type
REMARK                         _______ _______ _______ _____ _____    ______ ____
ROOT
ATOM      1  N   UNL     1      33.273 -13.054 -23.313  0.00  0.00    +0.389 N 
ATOM      2  H   UNL     1      33.590 -12.315 -23.939  0.00  0.00    -0.084 HD
ATOM      3  H   UNL     1      32.720 -13.742 -23.825  0.00  0.00    -0.084 HD
ENDROOT
BRANCH   1   4
ATOM      4  C   UNL     1      32.440 -12.472 -22.271  0.00  0.00    -0.037 C 
BRANCH   4   6
ATOM      5  O   UNL     1      33.483 -10.466 -23.026  0.00  0.00    -0.482 OA
ATOM      6  C   UNL     1      32.251 -10.977 -22.495  0.00  0.00    +0.145 C 
ATOM      7  C   UNL     1      31.875 -10.274 -21.192  0.00  0.00    +0.046 C 
ATOM      8  C   UNL     1      31.644  -8.794 -21.470  0.00  0.00    +0.033 C 
ATOM      9  C   UNL     1      32.741  -8.245 -22.336  0.00  0.00    +0.012 C 
ATOM     10  C   UNL     1      33.579  -9.100 -23.064  0.00  0.00    +0.134 C 
ATOM     11  C   UNL     1      32.917  -6.860 -22.445  0.00  0.00    -0.001 C 
ATOM     12  C   UNL     1      34.604  -8.575 -23.855  0.00  0.00    +0.037 C 
ATOM     13  C   UNL     1      33.933  -6.337 -23.247  0.00  0.00    -0.000 C 
ATOM     14  C   UNL     1      34.778  -7.195 -23.948  0.00  0.00    +0.003 C 
ENDBRANCH   4   6
ENDBRANCH   1   4
BRANCH   1  15
ATOM     15  C   UNL     1      34.432 -13.725 -22.741  0.00  0.00    -0.053 C 
BRANCH  15  17
ATOM     16  N   UNL     1      34.160 -16.846 -24.833  0.00  0.00    -0.243 NA
ATOM     17  C   UNL     1      34.498 -15.174 -23.143  0.00  0.00    -0.025 C 
ATOM     18  C   UNL     1      34.933 -16.129 -22.245  0.00  0.00    -0.003 C 
ATOM     19  C   UNL     1      34.984 -17.459 -22.645  0.00  0.00    +0.019 C 
ATOM     20  C   UNL     1      34.125 -15.564 -24.409  0.00  0.00    +0.092 C 
ATOM     21  C   UNL     1      34.590 -17.763 -23.939  0.00  0.00    +0.099 C 
BRANCH  19  23
ATOM     22  F   UNL     1      36.713 -21.449 -19.154  0.00  0.00    -0.204 F 
ATOM     23  C   UNL     1      35.433 -18.493 -21.742  0.00  0.00    +0.002 C 
ATOM     24  C   UNL     1      34.558 -19.508 -21.350  0.00  0.00    +0.002 C 
ATOM     25  C   UNL     1      36.741 -18.479 -21.255  0.00  0.00    +0.002 C 
ATOM     26  C   UNL     1      34.991 -20.506 -20.477  0.00  0.00    +0.030 C 
ATOM     27  C   UNL     1      37.174 -19.477 -20.381  0.00  0.00    +0.030 C 
ATOM     28  C   UNL     1      36.298 -20.490 -19.992  0.00  0.00    +0.140 C 
ENDBRANCH  19  23
ENDBRANCH  15  17
ENDBRANCH   1  15
TORSDOF 5
ENDMDL
MODEL 6
REMARK VINA RESULT:     -11.3      4.424      7.405
REMARK  Name = 6918388
REMARK  5 active torsions:
REMARK  status: ('A' for Active; 'I' for Inactive)
REMARK    1  A    between atoms: N_1  and  C_4
REMARK    2  A    between atoms: N_1  and  C_15
REMARK    3  A    between atoms: C_4  and  C_6
REMARK    4  A    between atoms: C_15  and  C_17
REMARK    5  A    between atoms: C_19  and  C_23
REMARK                            x       y       z     vdW  Elec       q    Type
REMARK                         _______ _______ _______ _____ _____    ______ ____
ROOT
ATOM      1  N   UNL     1      33.476 -23.300 -17.795  0.00  0.00    +0.389 N 
ATOM      2  H   UNL     1      33.383 -24.105 -18.414  0.00  0.00    -0.084 HD
ATOM      3  H   UNL     1      34.445 -23.187 -17.499  0.00  0.00    -0.084 HD
ENDROOT
BRANCH   1   4
ATOM      4  C   UNL     1      32.651 -23.509 -16.613  0.00  0.00    -0.037 C 
BRANCH   4   6
ATOM      5  O   UNL     1      34.668 -24.274 -15.602  0.00  0.00    -0.482 OA
ATOM      6  C   UNL     1      33.497 -23.486 -15.347  0.00  0.00    +0.145 C 
ATOM      7  C   UNL     1      32.709 -24.032 -14.157  0.00  0.00    +0.046 C 
ATOM      8  C   UNL     1      33.570 -23.941 -12.903  0.00  0.00    +0.033 C 
ATOM      9  C   UNL     1      34.959 -24.438 -13.184  0.00  0.00    +0.012 C 
ATOM     10  C   UNL     1      35.427 -24.564 -14.498  0.00  0.00    +0.134 C 
ATOM     11  C   UNL     1      35.815 -24.757 -12.120  0.00  0.00    -0.001 C 
ATOM     12  C   UNL     1      36.717 -25.041 -14.743  0.00  0.00    +0.037 C 
ATOM     13  C   UNL     1      37.107 -25.220 -12.368  0.00  0.00    -0.000 C 
ATOM     14  C   UNL     1      37.556 -25.366 -13.678  0.00  0.00    +0.003 C 
ENDBRANCH   4   6
ENDBRANCH   1   4
BRANCH   1  15
ATOM     15  C   UNL     1      33.067 -22.099 -18.511  0.00  0.00    -0.053 C 
BRANCH  15  17
ATOM     16  N   UNL     1      36.610 -20.984 -19.143  0.00  0.00    -0.243 NA
ATOM     17  C   UNL     1      34.241 -21.381 -19.120  0.00  0.00    -0.025 C 
ATOM     18  C   UNL     1      34.054 -20.498 -20.166  0.00  0.00    -0.003 C 
ATOM     19  C   UNL     1      35.158 -19.851 -20.709  0.00  0.00    +0.019 C 
ATOM     20  C   UNL     1      35.514 -21.595 -18.641  0.00  0.00    +0.092 C 
ATOM     21  C   UNL     1      36.403 -20.125 -20.166  0.00  0.00    +0.099 C 
BRANCH  19  23
ATOM     22  F   UNL     1      34.599 -16.261 -24.939  0.00  0.00    -0.204 F 
ATOM     23  C   UNL     1      35.012 -18.920 -21.803  0.00  0.00    +0.002 C 
ATOM     24  C   UNL     1      34.426 -19.335 -23.001  0.00  0.00    +0.002 C 
ATOM     25  C   UNL     1      35.459 -17.605 -21.670  0.00  0.00    +0.002 C 
ATOM     26  C   UNL     1      34.287 -18.437 -24.060  0.00  0.00    +0.030 C 
ATOM     27  C   UNL     1      35.320 -16.707 -22.728  0.00  0.00    +0.030 C 
ATOM     28  C   UNL     1      34.734 -17.123 -23.923  0.00  0.00    +0.140 C 
ENDBRANCH  19  23
ENDBRANCH  15  17
ENDBRANCH   1  15
TORSDOF 5
ENDMDL
MODEL 7
REMARK VINA RESULT:     -11.2      3.860      9.699
REMARK  Name = 6918388
REMARK  5 active torsions:
REMARK  status: ('A' for Active; 'I' for Inactive)
REMARK    1  A    between atoms: N_1  and  C_4
REMARK    2  A    between atoms: N_1  and  C_15
REMARK    3  A    between atoms: C_4  and  C_6
REMARK    4  A    between atoms: C_15  and  C_17
REMARK    5  A    between atoms: C_19  and  C_23
REMARK                            x       y       z     vdW  Elec       q    Type
REMARK                         _______ _______ _______ _____ _____    ______ ____
ROOT
ATOM      1  N   UNL     1      33.077 -12.808 -23.200  0.00  0.00    +0.389 N 
ATOM      2  H   UNL     1      33.286 -11.826 -23.375  0.00  0.00    -0.084 HD
ATOM      3  H   UNL     1      32.816 -13.278 -24.067  0.00  0.00    -0.084 HD
ENDROOT
BRANCH   1   4
ATOM      4  C   UNL     1      31.961 -12.899 -22.269  0.00  0.00    -0.037 C 
BRANCH   4   6
ATOM      5  O   UNL     1      32.404 -10.560 -22.391  0.00  0.00    -0.482 OA
ATOM      6  C   UNL     1      31.639 -11.536 -21.668  0.00  0.00    +0.145 C 
ATOM      7  C   UNL     1      31.970 -11.508 -20.177  0.00  0.00    +0.046 C 
ATOM      8  C   UNL     1      31.585 -10.149 -19.605  0.00  0.00    +0.033 C 
ATOM      9  C   UNL     1      32.059  -9.046 -20.508  0.00  0.00    +0.012 C 
ATOM     10  C   UNL     1      32.426  -9.308 -21.834  0.00  0.00    +0.134 C 
ATOM     11  C   UNL     1      32.112  -7.729 -20.032  0.00  0.00    -0.001 C 
ATOM     12  C   UNL     1      32.878  -8.274 -22.657  0.00  0.00    +0.037 C 
ATOM     13  C   UNL     1      32.551  -6.696 -20.860  0.00  0.00    -0.000 C 
ATOM     14  C   UNL     1      32.938  -6.969 -22.170  0.00  0.00    +0.003 C 
ENDBRANCH   4   6
ENDBRANCH   1   4
BRANCH   1  15
ATOM     15  C   UNL     1      34.262 -13.459 -22.659  0.00  0.00    -0.053 C 
BRANCH  15  17
ATOM     16  N   UNL     1      34.120 -16.488 -24.895  0.00  0.00    -0.243 NA
ATOM     17  C   UNL     1      34.382 -14.885 -23.126  0.00  0.00    -0.025 C 
ATOM     18  C   UNL     1      34.841 -15.865 -22.267  0.00  0.00    -0.003 C 
ATOM     19  C   UNL     1      34.942 -17.173 -22.727  0.00  0.00    +0.019 C 
ATOM     20  C   UNL     1      34.035 -15.228 -24.413  0.00  0.00    +0.092 C 
ATOM     21  C   UNL     1      34.572 -17.430 -24.038  0.00  0.00    +0.099 C 
BRANCH  19  23
ATOM     22  F   UNL     1      36.771 -21.258 -19.401  0.00  0.00    -0.204 F 
ATOM     23  C   UNL     1      35.417 -18.231 -21.866  0.00  0.00    +0.002 C 
ATOM     24  C   UNL     1      34.562 -19.273 -21.502  0.00  0.00    +0.002 C 
ATOM     25  C   UNL     1      36.730 -18.215 -21.394  0.00  0.00    +0.002 C 
ATOM     26  C   UNL     1      35.019 -20.295 -20.669  0.00  0.00    +0.030 C 
ATOM     27  C   UNL     1      37.188 -19.237 -20.562  0.00  0.00    +0.030 C 
ATOM     28  C   UNL     1      36.332 -20.276 -20.200  0.00  0.00    +0.140 C 
ENDBRANCH  19  23
ENDBRANCH  15  17
ENDBRANCH   1  15
TORSDOF 5
ENDMDL
MODEL 8
REMARK VINA RESULT:     -11.2      3.748      9.502
REMARK  Name = 6918388
REMARK  5 active torsions:
REMARK  status: ('A' for Active; 'I' for Inactive)
REMARK    1  A    between atoms: N_1  and  C_4
REMARK    2  A    between atoms: N_1  and  C_15
REMARK    3  A    between atoms: C_4  and  C_6
REMARK    4  A    between atoms: C_15  and  C_17
REMARK    5  A    between atoms: C_19  and  C_23
REMARK                            x       y       z     vdW  Elec       q    Type
REMARK                         _______ _______ _______ _____ _____    ______ ____
ROOT
ATOM      1  N   UNL     1      33.513 -18.137 -24.084  0.00  0.00    +0.389 N 
ATOM      2  H   UNL     1      32.670 -18.385 -24.600  0.00  0.00    -0.084 HD
ATOM      3  H   UNL     1      33.276 -17.833 -23.140  0.00  0.00    -0.084 HD
ENDROOT
BRANCH   1   4
ATOM      4  C   UNL     1      34.186 -17.043 -24.769  0.00  0.00    -0.037 C 
BRANCH   4   6
ATOM      5  O   UNL     1      33.794 -14.749 -25.281  0.00  0.00    -0.482 OA
ATOM      6  C   UNL     1      33.753 -15.696 -24.204  0.00  0.00    +0.145 C 
ATOM      7  C   UNL     1      34.665 -15.270 -23.054  0.00  0.00    +0.046 C 
ATOM      8  C   UNL     1      34.165 -13.948 -22.484  0.00  0.00    +0.033 C 
ATOM      9  C   UNL     1      33.844 -12.986 -23.593  0.00  0.00    +0.012 C 
ATOM     10  C   UNL     1      33.668 -13.436 -24.907  0.00  0.00    +0.134 C 
ATOM     11  C   UNL     1      33.689 -11.622 -23.311  0.00  0.00    -0.001 C 
ATOM     12  C   UNL     1      33.382 -12.528 -25.930  0.00  0.00    +0.037 C 
ATOM     13  C   UNL     1      33.391 -10.719 -24.331  0.00  0.00    -0.000 C 
ATOM     14  C   UNL     1      33.242 -11.172 -25.640  0.00  0.00    +0.003 C 
ENDBRANCH   4   6
ENDBRANCH   1   4
BRANCH   1  15
ATOM     15  C   UNL     1      34.377 -19.306 -23.992  0.00  0.00    -0.053 C 
BRANCH  15  17
ATOM     16  N   UNL     1      36.894 -18.629 -21.271  0.00  0.00    -0.243 NA
ATOM     17  C   UNL     1      35.088 -19.376 -22.667  0.00  0.00    -0.025 C 
ATOM     18  C   UNL     1      34.622 -20.208 -21.668  0.00  0.00    -0.003 C 
ATOM     19  C   UNL     1      35.298 -20.251 -20.454  0.00  0.00    +0.019 C 
ATOM     20  C   UNL     1      36.210 -18.613 -22.437  0.00  0.00    +0.092 C 
ATOM     21  C   UNL     1      36.419 -19.449 -20.307  0.00  0.00    +0.099 C 
BRANCH  19  23
ATOM     22  F   UNL     1      33.557 -23.542 -16.303  0.00  0.00    -0.204 F 
ATOM     23  C   UNL     1      34.848 -21.104 -19.380  0.00  0.00    +0.002 C 
ATOM     24  C   UNL     1      33.488 -21.385 -19.232  0.00  0.00    +0.002 C 
ATOM     25  C   UNL     1      35.769 -21.649 -18.484  0.00  0.00    +0.002 C 
ATOM     26  C   UNL     1      33.052 -22.208 -18.193  0.00  0.00    +0.030 C 
ATOM     27  C   UNL     1      35.334 -22.472 -17.445  0.00  0.00    +0.030 C 
ATOM     28  C   UNL     1      33.975 -22.751 -17.300  0.00  0.00    +0.140 C 
ENDBRANCH  19  23
ENDBRANCH  15  17
ENDBRANCH   1  15
TORSDOF 5
ENDMDL
MODEL 9
REMARK VINA RESULT:     -11.2      4.621     10.496
REMARK  Name = 6918388
REMARK  5 active torsions:
REMARK  status: ('A' for Active; 'I' for Inactive)
REMARK    1  A    between atoms: N_1  and  C_4
REMARK    2  A    between atoms: N_1  and  C_15
REMARK    3  A    between atoms: C_4  and  C_6
REMARK    4  A    between atoms: C_15  and  C_17
REMARK    5  A    between atoms: C_19  and  C_23
REMARK                            x       y       z     vdW  Elec       q    Type
REMARK                         _______ _______ _______ _____ _____    ______ ____
ROOT
ATOM      1  N   UNL     1      35.467 -19.832 -20.271  0.00  0.00    +0.389 N 
ATOM      2  H   UNL     1      34.821 -20.062 -21.025  0.00  0.00    -0.084 HD
ATOM      3  H   UNL     1      35.001 -19.267 -19.561  0.00  0.00    -0.084 HD
ENDROOT
BRANCH   1   4
ATOM      4  C   UNL     1      36.581 -19.068 -20.815  0.00  0.00    -0.037 C 
BRANCH   4   6
ATOM      5  O   UNL     1      35.595 -17.020 -21.531  0.00  0.00    -0.482 OA
ATOM      6  C   UNL     1      36.144 -18.251 -22.024  0.00  0.00    +0.145 C 
ATOM      7  C   UNL     1      35.121 -19.020 -22.859  0.00  0.00    +0.046 C 
ATOM      8  C   UNL     1      34.752 -18.192 -24.083  0.00  0.00    +0.033 C 
ATOM      9  C   UNL     1      34.492 -16.765 -23.694  0.00  0.00    +0.012 C 
ATOM     10  C   UNL     1      34.932 -16.264 -22.462  0.00  0.00    +0.134 C 
ATOM     11  C   UNL     1      33.825 -15.909 -24.581  0.00  0.00    -0.001 C 
ATOM     12  C   UNL     1      34.671 -14.937 -22.108  0.00  0.00    +0.037 C 
ATOM     13  C   UNL     1      33.578 -14.582 -24.230  0.00  0.00    -0.000 C 
ATOM     14  C   UNL     1      33.997 -14.098 -22.993  0.00  0.00    +0.003 C 
ENDBRANCH   4   6
ENDBRANCH   1   4
BRANCH   1  15
ATOM     15  C   UNL     1      35.934 -21.064 -19.650  0.00  0.00    -0.053 C 
BRANCH  15  17
ATOM     16  N   UNL     1      32.565 -22.358 -18.569  0.00  0.00    -0.243 NA
ATOM     17  C   UNL     1      34.864 -21.709 -18.810  0.00  0.00    -0.025 C 
ATOM     18  C   UNL     1      35.170 -22.225 -17.566  0.00  0.00    -0.003 C 
ATOM     19  C   UNL     1      34.162 -22.816 -16.813  0.00  0.00    +0.019 C 
ATOM     20  C   UNL     1      33.571 -21.792 -19.272  0.00  0.00    +0.092 C 
ATOM     21  C   UNL     1      32.887 -22.857 -17.355  0.00  0.00    +0.099 C 
BRANCH  19  23
ATOM     22  F   UNL     1      35.206 -24.950 -11.768  0.00  0.00    -0.204 F 
ATOM     23  C   UNL     1      34.433 -23.370 -15.507  0.00  0.00    +0.002 C 
ATOM     24  C   UNL     1      33.378 -23.758 -14.679  0.00  0.00    +0.002 C 
ATOM     25  C   UNL     1      35.750 -23.517 -15.067  0.00  0.00    +0.002 C 
ATOM     26  C   UNL     1      33.639 -24.291 -13.417  0.00  0.00    +0.030 C 
ATOM     27  C   UNL     1      36.011 -24.051 -13.805  0.00  0.00    +0.030 C 
ATOM     28  C   UNL     1      34.955 -24.437 -12.980  0.00  0.00    +0.140 C 
ENDBRANCH  19  23
ENDBRANCH  15  17
ENDBRANCH   1  15
TORSDOF 5
ENDMDL
