MODEL 1
REMARK VINA RESULT:     -12.0      0.000      0.000
REMARK  Name = 3151
REMARK  5 active torsions:
REMARK  status: ('A' for Active; 'I' for Inactive)
REMARK    1  A    between atoms: N_1  and  C_20
REMARK    2  A    between atoms: C_2  and  N_10
REMARK    3  A    between atoms: C_20  and  C_21
REMARK    4  A    between atoms: C_21  and  C_22
REMARK    5  A    between atoms: C_22  and  N_24
REMARK                            x       y       z     vdW  Elec       q    Type
REMARK                         _______ _______ _______ _____ _____    ______ ____
ROOT
ATOM      1  N   UNL     1      34.639 -14.896 -23.419  0.00  0.00    +0.387 N 
ATOM      2  C   UNL     1      32.786 -12.762 -22.665  0.00  0.00    +0.086 C 
ATOM      3  C   UNL     1      33.184 -13.021 -24.118  0.00  0.00    -0.000 C 
ATOM      4  C   UNL     1      33.875 -13.270 -21.720  0.00  0.00    -0.000 C 
ATOM      5  C   UNL     1      33.566 -14.486 -24.336  0.00  0.00    -0.075 C 
ATOM      6  C   UNL     1      34.233 -14.727 -22.017  0.00  0.00    -0.075 C 
ATOM      7  H   UNL     1      35.444 -14.295 -23.588  0.00  0.00    -0.080 HD
ENDROOT
BRANCH   2  10
ATOM      8 CL   UNL     1      35.050  -6.413 -24.287  0.00  0.00    -0.082 Cl
ATOM      9  O   UNL     1      30.621 -11.407 -21.019  0.00  0.00    -0.247 OA
ATOM     10  N   UNL     1      32.521 -11.362 -22.447  0.00  0.00    -0.282 N 
ATOM     11  N   UNL     1      31.629  -9.397 -21.751  0.00  0.00    -0.305 N 
ATOM     12  C   UNL     1      33.276 -10.320 -23.003  0.00  0.00    +0.079 A 
ATOM     13  C   UNL     1      31.477 -10.810 -21.656  0.00  0.00    +0.328 A 
ATOM     14  C   UNL     1      32.723  -9.117 -22.571  0.00  0.00    +0.077 A 
ATOM     15  C   UNL     1      34.378 -10.351 -23.833  0.00  0.00    +0.020 C 
ATOM     16  C   UNL     1      33.235  -7.893 -22.941  0.00  0.00    +0.030 C 
ATOM     17  C   UNL     1      34.917  -9.120 -24.222  0.00  0.00    +0.013 C 
ATOM     18  C   UNL     1      34.352  -7.906 -23.781  0.00  0.00    +0.059 C 
ATOM     19  H   UNL     1      31.056  -8.729 -21.312  0.00  0.00    +0.170 HD
ENDBRANCH   2  10
BRANCH   1  20
ATOM     20  C   UNL     1      35.026 -16.284 -23.675  0.00  0.00    -0.075 C 
BRANCH  20  21
ATOM     21  C   UNL     1      35.279 -17.055 -22.376  0.00  0.00    +0.002 C 
BRANCH  21  22
ATOM     22  C   UNL     1      34.957 -18.546 -22.454  0.00  0.00    +0.108 C 
BRANCH  22  24
ATOM     23  O   UNL     1      37.817 -18.648 -21.494  0.00  0.00    -0.247 OA
ATOM     24  N   UNL     1      35.530 -19.292 -21.366  0.00  0.00    -0.280 N 
ATOM     25  N   UNL     1      37.002 -20.158 -19.867  0.00  0.00    -0.305 N 
ATOM     26  C   UNL     1      34.829 -20.154 -20.505  0.00  0.00    +0.079 A 
ATOM     27  C   UNL     1      36.902 -19.279 -20.982  0.00  0.00    +0.328 A 
ATOM     28  C   UNL     1      35.738 -20.681 -19.590  0.00  0.00    +0.076 A 
ATOM     29  C   UNL     1      33.493 -20.495 -20.473  0.00  0.00    +0.019 C 
ATOM     30  C   UNL     1      35.364 -21.567 -18.605  0.00  0.00    +0.019 C 
ATOM     31  C   UNL     1      33.088 -21.394 -19.481  0.00  0.00    +0.002 C 
ATOM     32  C   UNL     1      34.013 -21.923 -18.556  0.00  0.00    +0.002 C 
ATOM     33  H   UNL     1      37.828 -20.365 -19.372  0.00  0.00    +0.170 HD
ENDBRANCH  22  24
ENDBRANCH  21  22
ENDBRANCH  20  21
ENDBRANCH   1  20
TORSDOF 5
ENDMDL
MODEL 2
REMARK VINA RESULT:     -11.8      2.721      4.319
REMARK  Name = 3151
REMARK  5 active torsions:
REMARK  status: ('A' for Active; 'I' for Inactive)
REMARK    1  A    between atoms: N_1  and  C_20
REMARK    2  A    between atoms: C_2  and  N_10
REMARK    3  A    between atoms: C_20  and  C_21
REMARK    4  A    between atoms: C_21  and  C_22
REMARK    5  A    between atoms: C_22  and  N_24
REMARK                            x       y       z     vdW  Elec       q    Type
REMARK                         _______ _______ _______ _____ _____    ______ ____
ROOT
ATOM      1  N   UNL     1      32.721 -11.948 -22.159  0.00  0.00    +0.387 N 
ATOM      2  C   UNL     1      31.813  -9.168 -22.126  0.00  0.00    +0.086 C 
ATOM      3  C   UNL     1      33.084  -9.602 -22.856  0.00  0.00    -0.000 C 
ATOM      4  C   UNL     1      31.494 -10.145 -20.994  0.00  0.00    -0.000 C 
ATOM      5  C   UNL     1      32.997 -11.063 -23.300  0.00  0.00    -0.075 C 
ATOM      6  C   UNL     1      31.458 -11.588 -21.501  0.00  0.00    -0.075 C 
ATOM      7  H   UNL     1      33.474 -11.832 -21.482  0.00  0.00    -0.080 HD
ENDROOT
BRANCH   2  10
ATOM      8 CL   UNL     1      31.298  -2.520 -24.030  0.00  0.00    -0.082 Cl
ATOM      9  O   UNL     1      32.544  -8.162 -19.354  0.00  0.00    -0.247 OA
ATOM     10  N   UNL     1      31.942  -7.821 -21.628  0.00  0.00    -0.282 N 
ATOM     11  N   UNL     1      32.289  -6.013 -20.306  0.00  0.00    -0.305 N 
ATOM     12  C   UNL     1      31.736  -6.671 -22.402  0.00  0.00    +0.079 A 
ATOM     13  C   UNL     1      32.291  -7.437 -20.305  0.00  0.00    +0.328 A 
ATOM     14  C   UNL     1      31.950  -5.564 -21.583  0.00  0.00    +0.077 A 
ATOM     15  C   UNL     1      31.384  -6.529 -23.728  0.00  0.00    +0.020 C 
ATOM     16  C   UNL     1      31.826  -4.271 -22.041  0.00  0.00    +0.030 C 
ATOM     17  C   UNL     1      31.253  -5.225 -24.217  0.00  0.00    +0.013 C 
ATOM     18  C   UNL     1      31.472  -4.109 -23.383  0.00  0.00    +0.059 C 
ATOM     19  H   UNL     1      32.492  -5.440 -19.532  0.00  0.00    +0.170 HD
ENDBRANCH   2  10
BRANCH   1  20
ATOM     20  C   UNL     1      32.691 -13.346 -22.593  0.00  0.00    -0.075 C 
BRANCH  20  21
ATOM     21  C   UNL     1      33.740 -14.193 -21.866  0.00  0.00    +0.002 C 
BRANCH  21  22
ATOM     22  C   UNL     1      34.890 -14.668 -22.751  0.00  0.00    +0.108 C 
BRANCH  22  24
ATOM     23  O   UNL     1      33.823 -15.631 -25.406  0.00  0.00    -0.247 OA
ATOM     24  N   UNL     1      34.700 -16.012 -23.227  0.00  0.00    -0.280 N 
ATOM     25  N   UNL     1      34.178 -17.799 -24.530  0.00  0.00    -0.305 N 
ATOM     26  C   UNL     1      34.991 -17.184 -22.508  0.00  0.00    +0.079 A 
ATOM     27  C   UNL     1      34.186 -16.376 -24.505  0.00  0.00    +0.328 A 
ATOM     28  C   UNL     1      34.668 -18.274 -23.312  0.00  0.00    +0.076 A 
ATOM     29  C   UNL     1      35.503 -17.351 -21.238  0.00  0.00    +0.019 C 
ATOM     30  C   UNL     1      34.837 -19.576 -22.896  0.00  0.00    +0.019 C 
ATOM     31  C   UNL     1      35.684 -18.664 -20.792  0.00  0.00    +0.002 C 
ATOM     32  C   UNL     1      35.356 -19.765 -21.612  0.00  0.00    +0.002 C 
ATOM     33  H   UNL     1      33.875 -18.358 -25.282  0.00  0.00    +0.170 HD
ENDBRANCH  22  24
ENDBRANCH  21  22
ENDBRANCH  20  21
ENDBRANCH   1  20
TORSDOF 5
ENDMDL
MODEL 3
REMARK VINA RESULT:     -11.7      3.874     10.289
REMARK  Name = 3151
REMARK  5 active torsions:
REMARK  status: ('A' for Active; 'I' for Inactive)
REMARK    1  A    between atoms: N_1  and  C_20
REMARK    2  A    between atoms: C_2  and  N_10
REMARK    3  A    between atoms: C_20  and  C_21
REMARK    4  A    between atoms: C_21  and  C_22
REMARK    5  A    between atoms: C_22  and  N_24
REMARK                            x       y       z     vdW  Elec       q    Type
REMARK                         _______ _______ _______ _____ _____    ______ ____
ROOT
ATOM      1  N   UNL     1      35.234 -16.585 -23.444  0.00  0.00    +0.387 N 
ATOM      2  C   UNL     1      34.841 -18.641 -21.401  0.00  0.00    +0.086 C 
ATOM      3  C   UNL     1      35.444 -17.275 -21.077  0.00  0.00    -0.000 C 
ATOM      4  C   UNL     1      35.071 -18.986 -22.872  0.00  0.00    -0.000 C 
ATOM      5  C   UNL     1      34.950 -16.205 -22.053  0.00  0.00    -0.075 C 
ATOM      6  C   UNL     1      34.588 -17.860 -23.788  0.00  0.00    -0.075 C 
ATOM      7  H   UNL     1      36.241 -16.707 -23.539  0.00  0.00    -0.080 HD
ENDROOT
BRANCH   2  10
ATOM      8 CL   UNL     1      33.016 -23.750 -17.082  0.00  0.00    -0.082 Cl
ATOM      9  O   UNL     1      37.730 -19.357 -20.789  0.00  0.00    -0.247 OA
ATOM     10  N   UNL     1      35.385 -19.659 -20.538  0.00  0.00    -0.282 N 
ATOM     11  N   UNL     1      36.792 -21.015 -19.388  0.00  0.00    -0.305 N 
ATOM     12  C   UNL     1      34.610 -20.552 -19.785  0.00  0.00    +0.079 A 
ATOM     13  C   UNL     1      36.761 -19.928 -20.308  0.00  0.00    +0.328 A 
ATOM     14  C   UNL     1      35.481 -21.381 -19.081  0.00  0.00    +0.077 A 
ATOM     15  C   UNL     1      33.241 -20.685 -19.676  0.00  0.00    +0.020 C 
ATOM     16  C   UNL     1      35.035 -22.377 -18.240  0.00  0.00    +0.030 C 
ATOM     17  C   UNL     1      32.764 -21.689 -18.827  0.00  0.00    +0.013 C 
ATOM     18  C   UNL     1      33.651 -22.525 -18.117  0.00  0.00    +0.059 C 
ATOM     19  H   UNL     1      37.604 -21.438 -19.029  0.00  0.00    +0.170 HD
ENDBRANCH   2  10
BRANCH   1  20
ATOM     20  C   UNL     1      34.800 -15.530 -24.361  0.00  0.00    -0.075 C 
BRANCH  20  21
ATOM     21  C   UNL     1      34.371 -14.264 -23.613  0.00  0.00    +0.002 C 
BRANCH  21  22
ATOM     22  C   UNL     1      33.200 -13.520 -24.251  0.00  0.00    +0.108 C 
BRANCH  22  24
ATOM     23  O   UNL     1      34.314 -11.124 -25.710  0.00  0.00    -0.247 OA
ATOM     24  N   UNL     1      33.164 -12.130 -23.886  0.00  0.00    -0.280 N 
ATOM     25  N   UNL     1      33.448  -9.876 -23.898  0.00  0.00    -0.305 N 
ATOM     26  C   UNL     1      32.575 -11.603 -22.724  0.00  0.00    +0.079 A 
ATOM     27  C   UNL     1      33.722 -11.058 -24.642  0.00  0.00    +0.328 A 
ATOM     28  C   UNL     1      32.753 -10.222 -22.739  0.00  0.00    +0.076 A 
ATOM     29  C   UNL     1      31.915 -12.235 -21.690  0.00  0.00    +0.019 C 
ATOM     30  C   UNL     1      32.287  -9.406 -21.733  0.00  0.00    +0.019 C 
ATOM     31  C   UNL     1      31.432 -11.427 -20.655  0.00  0.00    +0.002 C 
ATOM     32  C   UNL     1      31.615 -10.028 -20.676  0.00  0.00    +0.002 C 
ATOM     33  H   UNL     1      33.708  -8.961 -24.159  0.00  0.00    +0.170 HD
ENDBRANCH  22  24
ENDBRANCH  21  22
ENDBRANCH  20  21
ENDBRANCH   1  20
TORSDOF 5
ENDMDL
MODEL 4
REMARK VINA RESULT:     -11.7      4.074     10.792
REMARK  Name = 3151
REMARK  5 active torsions:
REMARK  status: ('A' for Active; 'I' for Inactive)
REMARK    1  A    between atoms: N_1  and  C_20
REMARK    2  A    between atoms: C_2  and  N_10
REMARK    3  A    between atoms: C_20  and  C_21
REMARK    4  A    between atoms: C_21  and  C_22
REMARK    5  A    between atoms: C_22  and  N_24
REMARK                            x       y       z     vdW  Elec       q    Type
REMARK                         _______ _______ _______ _____ _____    ______ ____
ROOT
ATOM      1  N   UNL     1      31.998 -10.216 -22.682  0.00  0.00    +0.387 N 
ATOM      2  C   UNL     1      33.557 -12.690 -22.757  0.00  0.00    +0.086 C 
ATOM      3  C   UNL     1      33.742 -11.578 -23.789  0.00  0.00    -0.000 C 
ATOM      4  C   UNL     1      32.150 -12.629 -22.161  0.00  0.00    -0.000 C 
ATOM      5  C   UNL     1      33.371 -10.213 -23.207  0.00  0.00    -0.075 C 
ATOM      6  C   UNL     1      31.833 -11.229 -21.631  0.00  0.00    -0.075 C 
ATOM      7  H   UNL     1      31.369 -10.453 -23.449  0.00  0.00    -0.080 HD
ENDROOT
BRANCH   2  10
ATOM      8 CL   UNL     1      35.948 -19.028 -21.276  0.00  0.00    -0.082 Cl
ATOM      9  O   UNL     1      33.138 -13.675 -25.601  0.00  0.00    -0.247 OA
ATOM     10  N   UNL     1      33.816 -13.982 -23.343  0.00  0.00    -0.282 N 
ATOM     11  N   UNL     1      33.997 -15.722 -24.785  0.00  0.00    -0.305 N 
ATOM     12  C   UNL     1      34.343 -15.075 -22.642  0.00  0.00    +0.079 A 
ATOM     13  C   UNL     1      33.589 -14.361 -24.694  0.00  0.00    +0.328 A 
ATOM     14  C   UNL     1      34.452 -16.140 -23.534  0.00  0.00    +0.077 A 
ATOM     15  C   UNL     1      34.721 -15.199 -21.321  0.00  0.00    +0.020 C 
ATOM     16  C   UNL     1      34.939 -17.372 -23.157  0.00  0.00    +0.030 C 
ATOM     17  C   UNL     1      35.220 -16.441 -20.915  0.00  0.00    +0.013 C 
ATOM     18  C   UNL     1      35.327 -17.515 -21.823  0.00  0.00    +0.059 C 
ATOM     19  H   UNL     1      33.964 -16.276 -25.597  0.00  0.00    +0.170 HD
ENDBRANCH   2  10
BRANCH   1  20
ATOM     20  C   UNL     1      31.642  -8.890 -22.174  0.00  0.00    -0.075 C 
BRANCH  20  21
ATOM     21  C   UNL     1      32.095  -8.693 -20.725  0.00  0.00    +0.002 C 
BRANCH  21  22
ATOM     22  C   UNL     1      32.941  -7.443 -20.493  0.00  0.00    +0.108 C 
BRANCH  22  24
ATOM     23  O   UNL     1      30.741  -5.381 -20.358  0.00  0.00    -0.247 OA
ATOM     24  N   UNL     1      32.624  -6.384 -21.411  0.00  0.00    -0.280 N 
ATOM     25  N   UNL     1      31.629  -4.598 -22.404  0.00  0.00    -0.305 N 
ATOM     26  C   UNL     1      33.313  -6.098 -22.602  0.00  0.00    +0.079 A 
ATOM     27  C   UNL     1      31.557  -5.450 -21.266  0.00  0.00    +0.328 A 
ATOM     28  C   UNL     1      32.698  -5.003 -23.205  0.00  0.00    +0.076 A 
ATOM     29  C   UNL     1      34.408  -6.715 -23.173  0.00  0.00    +0.019 C 
ATOM     30  C   UNL     1      33.139  -4.471 -24.396  0.00  0.00    +0.019 C 
ATOM     31  C   UNL     1      34.874  -6.193 -24.384  0.00  0.00    +0.002 C 
ATOM     32  C   UNL     1      34.247  -5.083 -24.988  0.00  0.00    +0.002 C 
ATOM     33  H   UNL     1      31.023  -3.845 -22.596  0.00  0.00    +0.170 HD
ENDBRANCH  22  24
ENDBRANCH  21  22
ENDBRANCH  20  21
ENDBRANCH   1  20
TORSDOF 5
ENDMDL
MODEL 5
REMARK VINA RESULT:     -11.5      4.829     10.840
REMARK  Name = 3151
REMARK  5 active torsions:
REMARK  status: ('A' for Active; 'I' for Inactive)
REMARK    1  A    between atoms: N_1  and  C_20
REMARK    2  A    between atoms: C_2  and  N_10
REMARK    3  A    between atoms: C_20  and  C_21
REMARK    4  A    between atoms: C_21  and  C_22
REMARK    5  A    between atoms: C_22  and  N_24
REMARK                            x       y       z     vdW  Elec       q    Type
REMARK                         _______ _______ _______ _____ _____    ______ ____
ROOT
ATOM      1  N   UNL     1      35.798 -19.026 -20.772  0.00  0.00    +0.387 N 
ATOM      2  C   UNL     1      35.213 -21.503 -19.331  0.00  0.00    +0.086 C 
ATOM      3  C   UNL     1      34.109 -20.582 -19.850  0.00  0.00    -0.000 C 
ATOM      4  C   UNL     1      36.500 -20.710 -19.102  0.00  0.00    -0.000 C 
ATOM      5  C   UNL     1      34.578 -19.790 -21.072  0.00  0.00    -0.075 C 
ATOM      6  C   UNL     1      36.889 -19.914 -20.349  0.00  0.00    -0.075 C 
ATOM      7  H   UNL     1      35.591 -18.392 -20.001  0.00  0.00    -0.080 HD
ENDROOT
BRANCH   2  10
ATOM      8 CL   UNL     1      37.476 -23.552 -13.105  0.00  0.00    -0.082 Cl
ATOM      9  O   UNL     1      32.522 -22.698 -18.580  0.00  0.00    -0.247 OA
ATOM     10  N   UNL     1      34.796 -22.174 -18.124  0.00  0.00    -0.282 N 
ATOM     11  N   UNL     1      33.587 -23.263 -16.546  0.00  0.00    -0.305 N 
ATOM     12  C   UNL     1      35.627 -22.400 -17.020  0.00  0.00    +0.079 A 
ATOM     13  C   UNL     1      33.506 -22.706 -17.854  0.00  0.00    +0.328 A 
ATOM     14  C   UNL     1      34.878 -23.069 -16.054  0.00  0.00    +0.077 A 
ATOM     15  C   UNL     1      36.950 -22.072 -16.806  0.00  0.00    +0.020 C 
ATOM     16  C   UNL     1      35.405 -23.442 -14.837  0.00  0.00    +0.030 C 
ATOM     17  C   UNL     1      37.509 -22.440 -15.578  0.00  0.00    +0.013 C 
ATOM     18  C   UNL     1      36.745 -23.118 -14.605  0.00  0.00    +0.059 C 
ATOM     19  H   UNL     1      32.852 -23.709 -16.067  0.00  0.00    +0.170 HD
ENDBRANCH   2  10
BRANCH   1  20
ATOM     20  C   UNL     1      36.204 -18.235 -21.935  0.00  0.00    -0.075 C 
BRANCH  20  21
ATOM     21  C   UNL     1      35.031 -17.453 -22.532  0.00  0.00    +0.002 C 
BRANCH  21  22
ATOM     22  C   UNL     1      35.436 -16.191 -23.291  0.00  0.00    +0.108 C 
BRANCH  22  24
ATOM     23  O   UNL     1      33.866 -15.195 -25.670  0.00  0.00    -0.247 OA
ATOM     24  N   UNL     1      34.378 -15.218 -23.346  0.00  0.00    -0.280 N 
ATOM     25  N   UNL     1      32.737 -13.837 -24.098  0.00  0.00    -0.305 N 
ATOM     26  C   UNL     1      33.853 -14.516 -22.249  0.00  0.00    +0.079 A 
ATOM     27  C   UNL     1      33.689 -14.806 -24.524  0.00  0.00    +0.328 A 
ATOM     28  C   UNL     1      32.848 -13.672 -22.717  0.00  0.00    +0.076 A 
ATOM     29  C   UNL     1      34.187 -14.566 -20.911  0.00  0.00    +0.019 C 
ATOM     30  C   UNL     1      32.132 -12.843 -21.883  0.00  0.00    +0.019 C 
ATOM     31  C   UNL     1      33.473 -13.733 -20.044  0.00  0.00    +0.002 C 
ATOM     32  C   UNL     1      32.456 -12.881 -20.524  0.00  0.00    +0.002 C 
ATOM     33  H   UNL     1      32.103 -13.361 -24.682  0.00  0.00    +0.170 HD
ENDBRANCH  22  24
ENDBRANCH  21  22
ENDBRANCH  20  21
ENDBRANCH   1  20
TORSDOF 5
ENDMDL
MODEL 6
REMARK VINA RESULT:     -11.1      3.861     11.215
REMARK  Name = 3151
REMARK  5 active torsions:
REMARK  status: ('A' for Active; 'I' for Inactive)
REMARK    1  A    between atoms: N_1  and  C_20
REMARK    2  A    between atoms: C_2  and  N_10
REMARK    3  A    between atoms: C_20  and  C_21
REMARK    4  A    between atoms: C_21  and  C_22
REMARK    5  A    between atoms: C_22  and  N_24
REMARK                            x       y       z     vdW  Elec       q    Type
REMARK                         _______ _______ _______ _____ _____    ______ ____
ROOT
ATOM      1  N   UNL     1      32.319 -10.876 -22.879  0.00  0.00    +0.387 N 
ATOM      2  C   UNL     1      33.891 -13.342 -22.833  0.00  0.00    +0.086 C 
ATOM      3  C   UNL     1      33.998 -12.328 -23.972  0.00  0.00    -0.000 C 
ATOM      4  C   UNL     1      32.527 -13.230 -22.152  0.00  0.00    -0.000 C 
ATOM      5  C   UNL     1      33.654 -10.917 -23.492  0.00  0.00    -0.075 C 
ATOM      6  C   UNL     1      32.234 -11.789 -21.732  0.00  0.00    -0.075 C 
ATOM      7  H   UNL     1      31.643 -11.183 -23.577  0.00  0.00    -0.080 HD
ENDROOT
BRANCH   2  10
ATOM      8 CL   UNL     1      36.031 -19.624 -20.823  0.00  0.00    -0.082 Cl
ATOM      9  O   UNL     1      33.514 -14.522 -25.607  0.00  0.00    -0.247 OA
ATOM     10  N   UNL     1      34.122 -14.681 -23.314  0.00  0.00    -0.282 N 
ATOM     11  N   UNL     1      34.283 -16.528 -24.619  0.00  0.00    -0.305 N 
ATOM     12  C   UNL     1      34.595 -15.734 -22.520  0.00  0.00    +0.079 A 
ATOM     13  C   UNL     1      33.918 -15.152 -24.639  0.00  0.00    +0.328 A 
ATOM     14  C   UNL     1      34.691 -16.866 -23.328  0.00  0.00    +0.077 A 
ATOM     15  C   UNL     1      34.934 -15.772 -21.183  0.00  0.00    +0.020 C 
ATOM     16  C   UNL     1      35.127 -18.081 -22.848  0.00  0.00    +0.030 C 
ATOM     17  C   UNL     1      35.381 -16.995 -20.673  0.00  0.00    +0.013 C 
ATOM     18  C   UNL     1      35.476 -18.136 -21.496  0.00  0.00    +0.059 C 
ATOM     19  H   UNL     1      34.252 -17.140 -25.388  0.00  0.00    +0.170 HD
ENDBRANCH   2  10
BRANCH   1  20
ATOM     20  C   UNL     1      31.986  -9.510 -22.472  0.00  0.00    -0.075 C 
BRANCH  20  21
ATOM     21  C   UNL     1      32.906  -8.477 -23.130  0.00  0.00    +0.002 C 
BRANCH  21  22
ATOM     22  C   UNL     1      33.578  -7.516 -22.151  0.00  0.00    +0.108 C 
BRANCH  22  24
ATOM     23  O   UNL     1      31.917  -6.835 -19.724  0.00  0.00    -0.247 OA
ATOM     24  N   UNL     1      32.780  -6.349 -21.888  0.00  0.00    -0.280 N 
ATOM     25  N   UNL     1      31.402  -4.843 -20.890  0.00  0.00    -0.305 N 
ATOM     26  C   UNL     1      32.617  -5.256 -22.755  0.00  0.00    +0.079 A 
ATOM     27  C   UNL     1      32.022  -6.110 -20.705  0.00  0.00    +0.328 A 
ATOM     28  C   UNL     1      31.771  -4.337 -22.137  0.00  0.00    +0.076 A 
ATOM     29  C   UNL     1      33.143  -5.021 -24.009  0.00  0.00    +0.019 C 
ATOM     30  C   UNL     1      31.411  -3.148 -22.730  0.00  0.00    +0.019 C 
ATOM     31  C   UNL     1      32.792  -3.820 -24.633  0.00  0.00    +0.002 C 
ATOM     32  C   UNL     1      31.936  -2.893 -24.001  0.00  0.00    +0.002 C 
ATOM     33  H   UNL     1      30.808  -4.395 -20.243  0.00  0.00    +0.170 HD
ENDBRANCH  22  24
ENDBRANCH  21  22
ENDBRANCH  20  21
ENDBRANCH   1  20
TORSDOF 5
ENDMDL
MODEL 7
REMARK VINA RESULT:     -11.1      1.877      2.288
REMARK  Name = 3151
REMARK  5 active torsions:
REMARK  status: ('A' for Active; 'I' for Inactive)
REMARK    1  A    between atoms: N_1  and  C_20
REMARK    2  A    between atoms: C_2  and  N_10
REMARK    3  A    between atoms: C_20  and  C_21
REMARK    4  A    between atoms: C_21  and  C_22
REMARK    5  A    between atoms: C_22  and  N_24
REMARK                            x       y       z     vdW  Elec       q    Type
REMARK                         _______ _______ _______ _____ _____    ______ ____
ROOT
ATOM      1  N   UNL     1      34.297 -14.726 -23.850  0.00  0.00    +0.387 N 
ATOM      2  C   UNL     1      33.420 -11.953 -23.537  0.00  0.00    +0.086 C 
ATOM      3  C   UNL     1      33.640 -12.589 -24.910  0.00  0.00    -0.000 C 
ATOM      4  C   UNL     1      34.268 -12.665 -22.483  0.00  0.00    -0.000 C 
ATOM      5  C   UNL     1      33.429 -14.104 -24.859  0.00  0.00    -0.075 C 
ATOM      6  C   UNL     1      34.035 -14.177 -22.513  0.00  0.00    -0.075 C 
ATOM      7  H   UNL     1      35.264 -14.515 -24.093  0.00  0.00    -0.080 HD
ENDROOT
BRANCH   2  10
ATOM      8 CL   UNL     1      31.863  -5.925 -20.486  0.00  0.00    -0.082 Cl
ATOM      9  O   UNL     1      35.297 -10.385 -25.341  0.00  0.00    -0.247 OA
ATOM     10  N   UNL     1      33.715 -10.542 -23.573  0.00  0.00    -0.282 N 
ATOM     11  N   UNL     1      34.561  -8.508 -24.105  0.00  0.00    -0.305 N 
ATOM     12  C   UNL     1      33.139  -9.594 -22.717  0.00  0.00    +0.079 A 
ATOM     13  C   UNL     1      34.614  -9.887 -24.457  0.00  0.00    +0.328 A 
ATOM     14  C   UNL     1      33.663  -8.347 -23.049  0.00  0.00    +0.077 A 
ATOM     15  C   UNL     1      32.218  -9.742 -21.700  0.00  0.00    +0.020 C 
ATOM     16  C   UNL     1      33.300  -7.193 -22.390  0.00  0.00    +0.030 C 
ATOM     17  C   UNL     1      31.833  -8.584 -21.016  0.00  0.00    +0.013 C 
ATOM     18  C   UNL     1      32.368  -7.324 -21.358  0.00  0.00    +0.059 C 
ATOM     19  H   UNL     1      35.075  -7.787 -24.535  0.00  0.00    +0.170 HD
ENDBRANCH   2  10
BRANCH   1  20
ATOM     20  C   UNL     1      34.119 -16.179 -23.849  0.00  0.00    -0.075 C 
BRANCH  20  21
ATOM     21  C   UNL     1      34.966 -16.858 -22.769  0.00  0.00    +0.002 C 
BRANCH  21  22
ATOM     22  C   UNL     1      35.257 -18.335 -23.030  0.00  0.00    +0.108 C 
BRANCH  22  24
ATOM     23  O   UNL     1      37.968 -18.523 -21.716  0.00  0.00    -0.247 OA
ATOM     24  N   UNL     1      35.648 -19.038 -21.839  0.00  0.00    -0.280 N 
ATOM     25  N   UNL     1      36.874 -19.883 -20.121  0.00  0.00    -0.305 N 
ATOM     26  C   UNL     1      34.799 -19.807 -21.025  0.00  0.00    +0.079 A 
ATOM     27  C   UNL     1      36.963 -19.072 -21.287  0.00  0.00    +0.328 A 
ATOM     28  C   UNL     1      35.557 -20.322 -19.975  0.00  0.00    +0.076 A 
ATOM     29  C   UNL     1      33.451 -20.076 -21.141  0.00  0.00    +0.019 C 
ATOM     30  C   UNL     1      35.014 -21.123 -18.996  0.00  0.00    +0.019 C 
ATOM     31  C   UNL     1      32.876 -20.888 -20.158  0.00  0.00    +0.002 C 
ATOM     32  C   UNL     1      33.649 -21.406 -19.097  0.00  0.00    +0.002 C 
ATOM     33  H   UNL     1      37.620 -20.101 -19.516  0.00  0.00    +0.170 HD
ENDBRANCH  22  24
ENDBRANCH  21  22
ENDBRANCH  20  21
ENDBRANCH   1  20
TORSDOF 5
ENDMDL
MODEL 8
REMARK VINA RESULT:     -11.0      5.097     11.537
REMARK  Name = 3151
REMARK  5 active torsions:
REMARK  status: ('A' for Active; 'I' for Inactive)
REMARK    1  A    between atoms: N_1  and  C_20
REMARK    2  A    between atoms: C_2  and  N_10
REMARK    3  A    between atoms: C_20  and  C_21
REMARK    4  A    between atoms: C_21  and  C_22
REMARK    5  A    between atoms: C_22  and  N_24
REMARK                            x       y       z     vdW  Elec       q    Type
REMARK                         _______ _______ _______ _____ _____    ______ ____
ROOT
ATOM      1  N   UNL     1      35.041 -20.175 -19.918  0.00  0.00    +0.387 N 
ATOM      2  C   UNL     1      34.869 -22.441 -18.076  0.00  0.00    +0.086 C 
ATOM      3  C   UNL     1      33.647 -21.608 -18.460  0.00  0.00    -0.000 C 
ATOM      4  C   UNL     1      36.144 -21.613 -18.235  0.00  0.00    -0.000 C 
ATOM      5  C   UNL     1      33.815 -20.983 -19.846  0.00  0.00    -0.075 C 
ATOM      6  C   UNL     1      36.230 -20.988 -19.629  0.00  0.00    -0.075 C 
ATOM      7  H   UNL     1      34.979 -19.445 -19.209  0.00  0.00    -0.080 HD
ENDROOT
BRANCH   2  10
ATOM      8 CL   UNL     1      30.205 -24.584 -13.414  0.00  0.00    -0.082 Cl
ATOM      9  O   UNL     1      37.000 -23.014 -15.987  0.00  0.00    -0.247 OA
ATOM     10  N   UNL     1      34.743 -22.947 -16.732  0.00  0.00    -0.282 N 
ATOM     11  N   UNL     1      35.180 -23.679 -14.632  0.00  0.00    -0.305 N 
ATOM     12  C   UNL     1      33.524 -23.281 -16.126  0.00  0.00    +0.079 A 
ATOM     13  C   UNL     1      35.801 -23.187 -15.815  0.00  0.00    +0.328 A 
ATOM     14  C   UNL     1      33.800 -23.731 -14.836  0.00  0.00    +0.077 A 
ATOM     15  C   UNL     1      32.233 -23.223 -16.608  0.00  0.00    +0.020 C 
ATOM     16  C   UNL     1      32.812 -24.141 -13.970  0.00  0.00    +0.030 C 
ATOM     17  C   UNL     1      31.211 -23.634 -15.746  0.00  0.00    +0.013 C 
ATOM     18  C   UNL     1      31.498 -24.087 -14.442  0.00  0.00    +0.059 C 
ATOM     19  H   UNL     1      35.647 -23.941 -13.806  0.00  0.00    +0.170 HD
ENDBRANCH   2  10
BRANCH   1  20
ATOM     20  C   UNL     1      35.161 -19.544 -21.233  0.00  0.00    -0.075 C 
BRANCH  20  21
ATOM     21  C   UNL     1      35.112 -18.016 -21.141  0.00  0.00    +0.002 C 
BRANCH  21  22
ATOM     22  C   UNL     1      35.756 -17.292 -22.321  0.00  0.00    +0.108 C 
BRANCH  22  24
ATOM     23  O   UNL     1      34.723 -17.089 -25.150  0.00  0.00    -0.247 OA
ATOM     24  N   UNL     1      34.885 -16.310 -22.907  0.00  0.00    -0.280 N 
ATOM     25  N   UNL     1      33.607 -15.150 -24.385  0.00  0.00    -0.305 N 
ATOM     26  C   UNL     1      34.325 -15.209 -22.239  0.00  0.00    +0.079 A 
ATOM     27  C   UNL     1      34.445 -16.293 -24.263  0.00  0.00    +0.328 A 
ATOM     28  C   UNL     1      33.543 -14.502 -23.151  0.00  0.00    +0.076 A 
ATOM     29  C   UNL     1      34.451 -14.798 -20.927  0.00  0.00    +0.019 C 
ATOM     30  C   UNL     1      32.854 -13.362 -22.805  0.00  0.00    +0.019 C 
ATOM     31  C   UNL     1      33.759 -13.642 -20.552  0.00  0.00    +0.002 C 
ATOM     32  C   UNL     1      32.969 -12.931 -21.480  0.00  0.00    +0.002 C 
ATOM     33  H   UNL     1      33.147 -14.861 -25.208  0.00  0.00    +0.170 HD
ENDBRANCH  22  24
ENDBRANCH  21  22
ENDBRANCH  20  21
ENDBRANCH   1  20
TORSDOF 5
ENDMDL
MODEL 9
REMARK VINA RESULT:     -10.8      4.075     10.927
REMARK  Name = 3151
REMARK  5 active torsions:
REMARK  status: ('A' for Active; 'I' for Inactive)
REMARK    1  A    between atoms: N_1  and  C_20
REMARK    2  A    between atoms: C_2  and  N_10
REMARK    3  A    between atoms: C_20  and  C_21
REMARK    4  A    between atoms: C_21  and  C_22
REMARK    5  A    between atoms: C_22  and  N_24
REMARK                            x       y       z     vdW  Elec       q    Type
REMARK                         _______ _______ _______ _____ _____    ______ ____
ROOT
ATOM      1  N   UNL     1      31.915 -10.290 -22.629  0.00  0.00    +0.387 N 
ATOM      2  C   UNL     1      33.562 -12.703 -22.769  0.00  0.00    +0.086 C 
ATOM      3  C   UNL     1      33.632 -11.605 -23.830  0.00  0.00    -0.000 C 
ATOM      4  C   UNL     1      32.198 -12.684 -22.079  0.00  0.00    -0.000 C 
ATOM      5  C   UNL     1      33.248 -10.244 -23.246  0.00  0.00    -0.075 C 
ATOM      6  C   UNL     1      31.862 -11.288 -21.552  0.00  0.00    -0.075 C 
ATOM      7  H   UNL     1      31.245 -10.565 -23.346  0.00  0.00    -0.080 HD
ENDROOT
BRANCH   2  10
ATOM      8 CL   UNL     1      35.946 -19.034 -21.248  0.00  0.00    -0.082 Cl
ATOM      9  O   UNL     1      33.183 -13.692 -25.617  0.00  0.00    -0.247 OA
ATOM     10  N   UNL     1      33.831 -13.995 -23.350  0.00  0.00    -0.282 N 
ATOM     11  N   UNL     1      34.036 -15.736 -24.787  0.00  0.00    -0.305 N 
ATOM     12  C   UNL     1      34.351 -15.086 -22.640  0.00  0.00    +0.079 A 
ATOM     13  C   UNL     1      33.623 -14.376 -24.703  0.00  0.00    +0.328 A 
ATOM     14  C   UNL     1      34.474 -16.152 -23.529  0.00  0.00    +0.077 A 
ATOM     15  C   UNL     1      34.712 -15.208 -21.314  0.00  0.00    +0.020 C 
ATOM     16  C   UNL     1      34.959 -17.382 -23.145  0.00  0.00    +0.030 C 
ATOM     17  C   UNL     1      35.208 -16.448 -20.900  0.00  0.00    +0.013 C 
ATOM     18  C   UNL     1      35.330 -17.522 -21.805  0.00  0.00    +0.059 C 
ATOM     19  H   UNL     1      34.014 -16.292 -25.599  0.00  0.00    +0.170 HD
ENDBRANCH   2  10
BRANCH   1  20
ATOM     20  C   UNL     1      31.542  -8.969 -22.119  0.00  0.00    -0.075 C 
BRANCH  20  21
ATOM     21  C   UNL     1      32.670  -8.332 -21.303  0.00  0.00    +0.002 C 
BRANCH  21  22
ATOM     22  C   UNL     1      32.688  -6.805 -21.335  0.00  0.00    +0.108 C 
BRANCH  22  24
ATOM     23  O   UNL     1      35.309  -7.543 -22.638  0.00  0.00    -0.247 OA
ATOM     24  N   UNL     1      33.291  -6.286 -22.532  0.00  0.00    -0.280 N 
ATOM     25  N   UNL     1      34.728  -5.917 -24.254  0.00  0.00    -0.305 N 
ATOM     26  C   UNL     1      32.745  -5.290 -23.359  0.00  0.00    +0.079 A 
ATOM     27  C   UNL     1      34.543  -6.697 -23.078  0.00  0.00    +0.328 A 
ATOM     28  C   UNL     1      33.631  -5.069 -24.412  0.00  0.00    +0.076 A 
ATOM     29  C   UNL     1      31.562  -4.588 -23.253  0.00  0.00    +0.019 C 
ATOM     30  C   UNL     1      33.385  -4.146 -25.403  0.00  0.00    +0.019 C 
ATOM     31  C   UNL     1      31.290  -3.644 -24.248  0.00  0.00    +0.002 C 
ATOM     32  C   UNL     1      32.190  -3.426 -25.312  0.00  0.00    +0.002 C 
ATOM     33  H   UNL     1      35.504  -5.967 -24.859  0.00  0.00    +0.170 HD
ENDBRANCH  22  24
ENDBRANCH  21  22
ENDBRANCH  20  21
ENDBRANCH   1  20
TORSDOF 5
ENDMDL
