MODEL 1
REMARK VINA RESULT:     -11.3      0.000      0.000
REMARK  Name = 9887812
REMARK  11 active torsions:
REMARK  status: ('A' for Active; 'I' for Inactive)
REMARK    1  A    between atoms: N_1  and  C_3
REMARK    2  A    between atoms: N_1  and  C_19
REMARK    3  A    between atoms: C_4  and  C_9
REMARK    4  A    between atoms: C_12  and  C_16
REMARK    5  A    between atoms: C_16  and  O_17
REMARK    6  A    between atoms: C_19  and  C_20
REMARK    7  A    between atoms: C_20  and  N_21
REMARK    8  A    between atoms: N_21  and  C_24
REMARK    9  A    between atoms: C_24  and  C_25
REMARK   10  A    between atoms: C_25  and  C_27
REMARK   11  A    between atoms: C_25  and  O_33
REMARK                            x       y       z     vdW  Elec       q    Type
REMARK                         _______ _______ _______ _____ _____    ______ ____
ROOT
ATOM      1  N   UNL     1      35.240 -15.549 -22.800  0.00  0.00    -0.335 N 
ATOM      2  H   UNL     1      36.095 -15.195 -23.136  0.00  0.00    +0.147 HD
ENDROOT
BRANCH   1   3
ATOM      3  C   UNL     1      34.998 -16.934 -22.905  0.00  0.00    +0.045 C 
ATOM      4  C   UNL     1      34.990 -19.138 -21.917  0.00  0.00    +0.001 C 
ATOM      5  C   UNL     1      35.230 -17.768 -21.812  0.00  0.00    +0.014 C 
ATOM      6  C   UNL     1      34.526 -17.471 -24.103  0.00  0.00    +0.014 C 
ATOM      7  C   UNL     1      34.518 -19.675 -23.115  0.00  0.00    +0.000 C 
ATOM      8  C   UNL     1      34.287 -18.840 -24.208  0.00  0.00    +0.001 C 
BRANCH   4   9
ATOM      9  C   UNL     1      35.232 -20.003 -20.782  0.00  0.00    +0.000 C 
ATOM     10  C   UNL     1      34.183 -20.740 -20.230  0.00  0.00    +0.006 C 
ATOM     11  C   UNL     1      36.514 -20.100 -20.241  0.00  0.00    +0.000 C 
ATOM     12  C   UNL     1      34.417 -21.572 -19.136  0.00  0.00    +0.075 C 
ATOM     13  C   UNL     1      36.747 -20.933 -19.146  0.00  0.00    +0.000 C 
ATOM     14  C   UNL     1      35.699 -21.670 -18.594  0.00  0.00    +0.006 C 
BRANCH  12  16
ATOM     15  O   UNL     1      32.227 -21.885 -18.225  0.00  0.00    -0.245 OA
ATOM     16  C   UNL     1      33.325 -22.341 -18.560  0.00  0.00    +0.338 C 
BRANCH  16  17
ATOM     17  O   UNL     1      33.635 -23.660 -18.418  0.00  0.00    -0.477 OA
ATOM     18  H   UNL     1      33.324 -24.284 -19.043  0.00  0.00    +0.295 HD
ENDBRANCH  16  17
ENDBRANCH  12  16
ENDBRANCH   4   9
ENDBRANCH   1   3
BRANCH   1  19
ATOM     19  C   UNL     1      34.300 -14.636 -22.225  0.00  0.00    +0.064 C 
BRANCH  19  20
ATOM     20  C   UNL     1      33.745 -13.723 -23.310  0.00  0.00    -0.060 C 
BRANCH  20  21
ATOM     21  N   UNL     1      34.285 -12.376 -23.164  0.00  0.00    +0.387 N 
ATOM     22  H   UNL     1      34.667 -12.270 -22.224  0.00  0.00    -0.084 HD
ATOM     23  H   UNL     1      35.015 -12.240 -23.862  0.00  0.00    -0.084 HD
BRANCH  21  24
ATOM     24  C   UNL     1      33.248 -11.375 -23.373  0.00  0.00    -0.047 C 
BRANCH  24  25
ATOM     25  C   UNL     1      33.729 -10.286 -24.340  0.00  0.00    +0.112 C 
BRANCH  25  27
ATOM     26 CL   UNL     1      30.923  -6.464 -22.205  0.00  0.00    -0.082 Cl
ATOM     27  C   UNL     1      33.685  -8.917 -23.698  0.00  0.00    +0.003 C 
ATOM     28  C   UNL     1      32.467  -8.395 -23.301  0.00  0.00    +0.009 C 
ATOM     29  C   UNL     1      34.866  -8.217 -23.520  0.00  0.00    -0.002 C 
ATOM     30  C   UNL     1      32.428  -7.133 -22.707  0.00  0.00    +0.057 C 
ATOM     31  C   UNL     1      34.827  -6.955 -22.927  0.00  0.00    +0.001 C 
ATOM     32  C   UNL     1      33.608  -6.413 -22.521  0.00  0.00    +0.011 C 
ENDBRANCH  25  27
BRANCH  25  33
ATOM     33  O   UNL     1      35.071 -10.545 -24.748  0.00  0.00    -0.382 OA
ATOM     34  H   UNL     1      35.361  -9.854 -25.364  0.00  0.00    +0.211 HD
ENDBRANCH  25  33
ENDBRANCH  24  25
ENDBRANCH  21  24
ENDBRANCH  20  21
ENDBRANCH  19  20
ENDBRANCH   1  19
TORSDOF 11
ENDMDL
MODEL 2
REMARK VINA RESULT:     -11.0      5.572      9.132
REMARK  Name = 9887812
REMARK  11 active torsions:
REMARK  status: ('A' for Active; 'I' for Inactive)
REMARK    1  A    between atoms: N_1  and  C_3
REMARK    2  A    between atoms: N_1  and  C_19
REMARK    3  A    between atoms: C_4  and  C_9
REMARK    4  A    between atoms: C_12  and  C_16
REMARK    5  A    between atoms: C_16  and  O_17
REMARK    6  A    between atoms: C_19  and  C_20
REMARK    7  A    between atoms: C_20  and  N_21
REMARK    8  A    between atoms: N_21  and  C_24
REMARK    9  A    between atoms: C_24  and  C_25
REMARK   10  A    between atoms: C_25  and  C_27
REMARK   11  A    between atoms: C_25  and  O_33
REMARK                            x       y       z     vdW  Elec       q    Type
REMARK                         _______ _______ _______ _____ _____    ______ ____
ROOT
ATOM      1  N   UNL     1      32.884 -22.799 -18.238  0.00  0.00    -0.335 N 
ATOM      2  H   UNL     1      32.513 -23.424 -18.901  0.00  0.00    +0.147 HD
ENDROOT
BRANCH   1   3
ATOM      3  C   UNL     1      32.732 -23.101 -16.869  0.00  0.00    +0.045 C 
ATOM      4  C   UNL     1      33.661 -23.904 -14.788  0.00  0.00    +0.001 C 
ATOM      5  C   UNL     1      33.811 -23.604 -16.142  0.00  0.00    +0.014 C 
ATOM      6  C   UNL     1      31.503 -22.899 -16.242  0.00  0.00    +0.014 C 
ATOM      7  C   UNL     1      32.431 -23.701 -14.160  0.00  0.00    +0.000 C 
ATOM      8  C   UNL     1      31.352 -23.199 -14.888  0.00  0.00    +0.001 C 
BRANCH   4   9
ATOM      9  C   UNL     1      34.780 -24.425 -14.034  0.00  0.00    +0.000 C 
ATOM     10  C   UNL     1      34.829 -24.257 -12.650  0.00  0.00    +0.006 C 
ATOM     11  C   UNL     1      35.811 -25.097 -14.692  0.00  0.00    +0.000 C 
ATOM     12  C   UNL     1      35.909 -24.759 -11.925  0.00  0.00    +0.075 C 
ATOM     13  C   UNL     1      36.891 -25.599 -13.966  0.00  0.00    +0.000 C 
ATOM     14  C   UNL     1      36.940 -25.431 -12.582  0.00  0.00    +0.006 C 
BRANCH  12  16
ATOM     15  O   UNL     1      35.220 -25.144  -9.666  0.00  0.00    -0.245 OA
ATOM     16  C   UNL     1      35.961 -24.585 -10.482  0.00  0.00    +0.338 C 
BRANCH  16  17
ATOM     17  O   UNL     1      36.936 -23.716 -10.096  0.00  0.00    -0.477 OA
ATOM     18  H   UNL     1      37.423 -23.244 -10.741  0.00  0.00    +0.295 HD
ENDBRANCH  16  17
ENDBRANCH  12  16
ENDBRANCH   4   9
ENDBRANCH   1   3
BRANCH   1  19
ATOM     19  C   UNL     1      33.554 -21.625 -18.705  0.00  0.00    +0.064 C 
BRANCH  19  20
ATOM     20  C   UNL     1      34.991 -21.969 -19.073  0.00  0.00    -0.060 C 
BRANCH  20  21
ATOM     21  N   UNL     1      35.725 -20.763 -19.438  0.00  0.00    +0.387 N 
ATOM     22  H   UNL     1      35.765 -20.140 -18.631  0.00  0.00    -0.084 HD
ATOM     23  H   UNL     1      36.665 -21.029 -19.730  0.00  0.00    -0.084 HD
BRANCH  21  24
ATOM     24  C   UNL     1      35.072 -20.072 -20.542  0.00  0.00    -0.047 C 
BRANCH  24  25
ATOM     25  C   UNL     1      35.988 -18.988 -21.124  0.00  0.00    +0.112 C 
BRANCH  25  27
ATOM     26 CL   UNL     1      34.600 -14.478 -23.310  0.00  0.00    -0.082 Cl
ATOM     27  C   UNL     1      35.321 -18.256 -22.268  0.00  0.00    +0.003 C 
ATOM     28  C   UNL     1      35.279 -16.873 -22.252  0.00  0.00    +0.009 C 
ATOM     29  C   UNL     1      34.770 -18.986 -23.307  0.00  0.00    -0.002 C 
ATOM     30  C   UNL     1      34.665 -16.198 -23.308  0.00  0.00    +0.057 C 
ATOM     31  C   UNL     1      34.156 -18.312 -24.362  0.00  0.00    +0.001 C 
ATOM     32  C   UNL     1      34.104 -16.918 -24.363  0.00  0.00    +0.011 C 
ENDBRANCH  25  27
BRANCH  25  33
ATOM     33  O   UNL     1      36.323 -18.033 -20.119  0.00  0.00    -0.382 OA
ATOM     34  H   UNL     1      36.260 -18.448 -19.244  0.00  0.00    +0.211 HD
ENDBRANCH  25  33
ENDBRANCH  24  25
ENDBRANCH  21  24
ENDBRANCH  20  21
ENDBRANCH  19  20
ENDBRANCH   1  19
TORSDOF 11
ENDMDL
MODEL 3
REMARK VINA RESULT:     -11.0      4.888      8.344
REMARK  Name = 9887812
REMARK  11 active torsions:
REMARK  status: ('A' for Active; 'I' for Inactive)
REMARK    1  A    between atoms: N_1  and  C_3
REMARK    2  A    between atoms: N_1  and  C_19
REMARK    3  A    between atoms: C_4  and  C_9
REMARK    4  A    between atoms: C_12  and  C_16
REMARK    5  A    between atoms: C_16  and  O_17
REMARK    6  A    between atoms: C_19  and  C_20
REMARK    7  A    between atoms: C_20  and  N_21
REMARK    8  A    between atoms: N_21  and  C_24
REMARK    9  A    between atoms: C_24  and  C_25
REMARK   10  A    between atoms: C_25  and  C_27
REMARK   11  A    between atoms: C_25  and  O_33
REMARK                            x       y       z     vdW  Elec       q    Type
REMARK                         _______ _______ _______ _____ _____    ______ ____
ROOT
ATOM      1  N   UNL     1      35.055 -22.397 -18.196  0.00  0.00    -0.335 N 
ATOM      2  H   UNL     1      34.549 -22.729 -18.972  0.00  0.00    +0.147 HD
ENDROOT
BRANCH   1   3
ATOM      3  C   UNL     1      34.638 -22.782 -16.905  0.00  0.00    +0.045 C 
ATOM      4  C   UNL     1      32.897 -23.514 -15.399  0.00  0.00    +0.001 C 
ATOM      5  C   UNL     1      33.308 -23.133 -16.677  0.00  0.00    +0.014 C 
ATOM      6  C   UNL     1      35.557 -22.811 -15.855  0.00  0.00    +0.014 C 
ATOM      7  C   UNL     1      33.815 -23.543 -14.349  0.00  0.00    +0.000 C 
ATOM      8  C   UNL     1      35.146 -23.191 -14.578  0.00  0.00    +0.001 C 
BRANCH   4   9
ATOM      9  C   UNL     1      31.516 -23.878 -15.163  0.00  0.00    +0.000 C 
ATOM     10  C   UNL     1      30.503 -23.316 -15.941  0.00  0.00    +0.006 C 
ATOM     11  C   UNL     1      31.199 -24.790 -14.157  0.00  0.00    +0.000 C 
ATOM     12  C   UNL     1      29.173 -23.667 -15.712  0.00  0.00    +0.075 C 
ATOM     13  C   UNL     1      29.868 -25.141 -13.929  0.00  0.00    +0.000 C 
ATOM     14  C   UNL     1      28.855 -24.579 -14.706  0.00  0.00    +0.006 C 
BRANCH  12  16
ATOM     15  O   UNL     1      27.792 -21.890 -16.524  0.00  0.00    -0.245 OA
ATOM     16  C   UNL     1      28.117 -23.082 -16.523  0.00  0.00    +0.338 C 
BRANCH  16  17
ATOM     17  O   UNL     1      27.494 -24.003 -17.309  0.00  0.00    -0.477 OA
ATOM     18  H   UNL     1      27.861 -24.859 -17.408  0.00  0.00    +0.295 HD
ENDBRANCH  16  17
ENDBRANCH  12  16
ENDBRANCH   4   9
ENDBRANCH   1   3
BRANCH   1  19
ATOM     19  C   UNL     1      36.182 -21.547 -18.427  0.00  0.00    +0.064 C 
BRANCH  19  20
ATOM     20  C   UNL     1      36.171 -21.065 -19.872  0.00  0.00    -0.060 C 
BRANCH  20  21
ATOM     21  N   UNL     1      35.155 -20.036 -20.056  0.00  0.00    +0.387 N 
ATOM     22  H   UNL     1      34.235 -20.441 -19.880  0.00  0.00    -0.084 HD
ATOM     23  H   UNL     1      35.339 -19.275 -19.402  0.00  0.00    -0.084 HD
BRANCH  21  24
ATOM     24  C   UNL     1      35.192 -19.505 -21.411  0.00  0.00    -0.047 C 
BRANCH  24  25
ATOM     25  C   UNL     1      35.839 -18.115 -21.435  0.00  0.00    +0.112 C 
BRANCH  25  27
ATOM     26 CL   UNL     1      34.179 -13.377 -22.789  0.00  0.00    -0.082 Cl
ATOM     27  C   UNL     1      35.187 -17.218 -22.464  0.00  0.00    +0.003 C 
ATOM     28  C   UNL     1      35.010 -15.876 -22.176  0.00  0.00    +0.009 C 
ATOM     29  C   UNL     1      34.782 -17.759 -23.672  0.00  0.00    -0.002 C 
ATOM     30  C   UNL     1      34.409 -15.049 -23.126  0.00  0.00    +0.057 C 
ATOM     31  C   UNL     1      34.181 -16.932 -24.621  0.00  0.00    +0.001 C 
ATOM     32  C   UNL     1      33.995 -15.578 -24.349  0.00  0.00    +0.011 C 
ENDBRANCH  25  27
BRANCH  25  33
ATOM     33  O   UNL     1      35.717 -17.491 -20.158  0.00  0.00    -0.382 OA
ATOM     34  H   UNL     1      34.784 -17.481 -19.890  0.00  0.00    +0.211 HD
ENDBRANCH  25  33
ENDBRANCH  24  25
ENDBRANCH  21  24
ENDBRANCH  20  21
ENDBRANCH  19  20
ENDBRANCH   1  19
TORSDOF 11
ENDMDL
MODEL 4
REMARK VINA RESULT:     -10.8      7.425     12.431
REMARK  Name = 9887812
REMARK  11 active torsions:
REMARK  status: ('A' for Active; 'I' for Inactive)
REMARK    1  A    between atoms: N_1  and  C_3
REMARK    2  A    between atoms: N_1  and  C_19
REMARK    3  A    between atoms: C_4  and  C_9
REMARK    4  A    between atoms: C_12  and  C_16
REMARK    5  A    between atoms: C_16  and  O_17
REMARK    6  A    between atoms: C_19  and  C_20
REMARK    7  A    between atoms: C_20  and  N_21
REMARK    8  A    between atoms: N_21  and  C_24
REMARK    9  A    between atoms: C_24  and  C_25
REMARK   10  A    between atoms: C_25  and  C_27
REMARK   11  A    between atoms: C_25  and  O_33
REMARK                            x       y       z     vdW  Elec       q    Type
REMARK                         _______ _______ _______ _____ _____    ______ ____
ROOT
ATOM      1  N   UNL     1      36.079 -22.873 -16.183  0.00  0.00    -0.335 N 
ATOM      2  H   UNL     1      36.965 -22.462 -16.063  0.00  0.00    +0.147 HD
ENDROOT
BRANCH   1   3
ATOM      3  C   UNL     1      35.265 -22.420 -17.242  0.00  0.00    +0.045 C 
ATOM      4  C   UNL     1      34.984 -21.118 -19.257  0.00  0.00    +0.001 C 
ATOM      5  C   UNL     1      35.790 -21.566 -18.210  0.00  0.00    +0.014 C 
ATOM      6  C   UNL     1      33.932 -22.827 -17.320  0.00  0.00    +0.014 C 
ATOM      7  C   UNL     1      33.651 -21.525 -19.336  0.00  0.00    +0.000 C 
ATOM      8  C   UNL     1      33.126 -22.379 -18.366  0.00  0.00    +0.001 C 
BRANCH   4   9
ATOM      9  C   UNL     1      35.529 -20.231 -20.262  0.00  0.00    +0.000 C 
ATOM     10  C   UNL     1      34.746 -19.842 -21.349  0.00  0.00    +0.006 C 
ATOM     11  C   UNL     1      36.838 -19.765 -20.142  0.00  0.00    +0.000 C 
ATOM     12  C   UNL     1      35.273 -18.987 -22.317  0.00  0.00    +0.075 C 
ATOM     13  C   UNL     1      37.365 -18.910 -21.111  0.00  0.00    +0.000 C 
ATOM     14  C   UNL     1      36.582 -18.521 -22.198  0.00  0.00    +0.006 C 
BRANCH  12  16
ATOM     15  O   UNL     1      33.662 -19.305 -24.057  0.00  0.00    -0.245 OA
ATOM     16  C   UNL     1      34.458 -18.580 -23.450  0.00  0.00    +0.338 C 
BRANCH  16  17
ATOM     17  O   UNL     1      34.658 -17.278 -23.796  0.00  0.00    -0.477 OA
ATOM     18  H   UNL     1      33.927 -16.702 -23.892  0.00  0.00    +0.295 HD
ENDBRANCH  16  17
ENDBRANCH  12  16
ENDBRANCH   4   9
ENDBRANCH   1   3
BRANCH   1  19
ATOM     19  C   UNL     1      35.675 -23.904 -15.278  0.00  0.00    +0.064 C 
BRANCH  19  20
ATOM     20  C   UNL     1      35.909 -23.447 -13.844  0.00  0.00    -0.060 C 
BRANCH  20  21
ATOM     21  N   UNL     1      34.761 -23.783 -13.010  0.00  0.00    +0.387 N 
ATOM     22  H   UNL     1      35.008 -24.566 -12.405  0.00  0.00    -0.084 HD
ATOM     23  H   UNL     1      34.513 -22.967 -12.452  0.00  0.00    -0.084 HD
BRANCH  21  24
ATOM     24  C   UNL     1      33.616 -24.155 -13.829  0.00  0.00    -0.047 C 
BRANCH  24  25
ATOM     25  C   UNL     1      32.440 -23.200 -13.585  0.00  0.00    +0.112 C 
BRANCH  25  27
ATOM     26 CL   UNL     1      27.991 -22.581 -16.205  0.00  0.00    -0.082 Cl
ATOM     27  C   UNL     1      31.137 -23.790 -14.079  0.00  0.00    +0.003 C 
ATOM     28  C   UNL     1      30.277 -23.000 -14.822  0.00  0.00    +0.009 C 
ATOM     29  C   UNL     1      30.834 -25.107 -13.779  0.00  0.00    -0.002 C 
ATOM     30  C   UNL     1      29.076 -23.545 -15.279  0.00  0.00    +0.057 C 
ATOM     31  C   UNL     1      29.634 -25.651 -14.235  0.00  0.00    +0.001 C 
ATOM     32  C   UNL     1      28.755 -24.870 -14.985  0.00  0.00    +0.011 C 
ENDBRANCH  25  27
BRANCH  25  33
ATOM     33  O   UNL     1      32.305 -22.928 -12.192  0.00  0.00    -0.382 OA
ATOM     34  H   UNL     1      32.951 -22.252 -11.930  0.00  0.00    +0.211 HD
ENDBRANCH  25  33
ENDBRANCH  24  25
ENDBRANCH  21  24
ENDBRANCH  20  21
ENDBRANCH  19  20
ENDBRANCH   1  19
TORSDOF 11
ENDMDL
MODEL 5
REMARK VINA RESULT:     -10.8      4.372     12.013
REMARK  Name = 9887812
REMARK  11 active torsions:
REMARK  status: ('A' for Active; 'I' for Inactive)
REMARK    1  A    between atoms: N_1  and  C_3
REMARK    2  A    between atoms: N_1  and  C_19
REMARK    3  A    between atoms: C_4  and  C_9
REMARK    4  A    between atoms: C_12  and  C_16
REMARK    5  A    between atoms: C_16  and  O_17
REMARK    6  A    between atoms: C_19  and  C_20
REMARK    7  A    between atoms: C_20  and  N_21
REMARK    8  A    between atoms: N_21  and  C_24
REMARK    9  A    between atoms: C_24  and  C_25
REMARK   10  A    between atoms: C_25  and  C_27
REMARK   11  A    between atoms: C_25  and  O_33
REMARK                            x       y       z     vdW  Elec       q    Type
REMARK                         _______ _______ _______ _____ _____    ______ ____
ROOT
ATOM      1  N   UNL     1      31.261 -11.761 -21.420  0.00  0.00    -0.335 N 
ATOM      2  H   UNL     1      30.305 -11.930 -21.584  0.00  0.00    +0.147 HD
ENDROOT
BRANCH   1   3
ATOM      3  C   UNL     1      31.649 -10.491 -20.945  0.00  0.00    +0.045 C 
ATOM      4  C   UNL     1      32.537  -8.283 -21.360  0.00  0.00    +0.001 C 
ATOM      5  C   UNL     1      32.153  -9.539 -21.831  0.00  0.00    +0.014 C 
ATOM      6  C   UNL     1      31.530 -10.187 -19.589  0.00  0.00    +0.014 C 
ATOM      7  C   UNL     1      32.417  -7.979 -20.004  0.00  0.00    +0.000 C 
ATOM      8  C   UNL     1      31.914  -8.932 -19.118  0.00  0.00    +0.001 C 
BRANCH   4   9
ATOM      9  C   UNL     1      33.060  -7.296 -22.279  0.00  0.00    +0.000 C 
ATOM     10  C   UNL     1      32.324  -6.144 -22.560  0.00  0.00    +0.006 C 
ATOM     11  C   UNL     1      34.300  -7.496 -22.886  0.00  0.00    +0.000 C 
ATOM     12  C   UNL     1      32.829  -5.193 -23.446  0.00  0.00    +0.075 C 
ATOM     13  C   UNL     1      34.804  -6.545 -23.773  0.00  0.00    +0.000 C 
ATOM     14  C   UNL     1      34.069  -5.393 -24.053  0.00  0.00    +0.006 C 
BRANCH  12  16
ATOM     15  O   UNL     1      32.442  -3.057 -24.452  0.00  0.00    -0.245 OA
ATOM     16  C   UNL     1      32.063  -3.991 -23.738  0.00  0.00    +0.338 C 
BRANCH  16  17
ATOM     17  O   UNL     1      30.845  -3.989 -23.129  0.00  0.00    -0.477 OA
ATOM     18  H   UNL     1      30.152  -3.461 -23.471  0.00  0.00    +0.295 HD
ENDBRANCH  16  17
ENDBRANCH  12  16
ENDBRANCH   4   9
ENDBRANCH   1   3
BRANCH   1  19
ATOM     19  C   UNL     1      32.195 -12.816 -21.671  0.00  0.00    +0.064 C 
BRANCH  19  20
ATOM     20  C   UNL     1      33.048 -12.465 -22.882  0.00  0.00    -0.060 C 
BRANCH  20  21
ATOM     21  N   UNL     1      34.333 -13.152 -22.815  0.00  0.00    +0.387 N 
ATOM     22  H   UNL     1      34.826 -13.024 -23.698  0.00  0.00    -0.084 HD
ATOM     23  H   UNL     1      34.873 -12.757 -22.045  0.00  0.00    -0.084 HD
BRANCH  21  24
ATOM     24  C   UNL     1      34.147 -14.576 -22.572  0.00  0.00    -0.047 C 
BRANCH  24  25
ATOM     25  C   UNL     1      34.396 -15.383 -23.853  0.00  0.00    +0.112 C 
BRANCH  25  27
ATOM     26 CL   UNL     1      36.603 -19.016 -20.858  0.00  0.00    -0.082 Cl
ATOM     27  C   UNL     1      34.619 -16.848 -23.549  0.00  0.00    +0.003 C 
ATOM     28  C   UNL     1      35.414 -17.202 -22.473  0.00  0.00    +0.009 C 
ATOM     29  C   UNL     1      34.022 -17.804 -24.354  0.00  0.00    -0.002 C 
ATOM     30  C   UNL     1      35.618 -18.553 -22.192  0.00  0.00    +0.057 C 
ATOM     31  C   UNL     1      34.227 -19.154 -24.074  0.00  0.00    +0.001 C 
ATOM     32  C   UNL     1      35.025 -19.529 -22.993  0.00  0.00    +0.011 C 
ENDBRANCH  25  27
BRANCH  25  33
ATOM     33  O   UNL     1      33.276 -15.275 -24.730  0.00  0.00    -0.382 OA
ATOM     34  H   UNL     1      32.795 -16.117 -24.745  0.00  0.00    +0.211 HD
ENDBRANCH  25  33
ENDBRANCH  24  25
ENDBRANCH  21  24
ENDBRANCH  20  21
ENDBRANCH  19  20
ENDBRANCH   1  19
TORSDOF 11
ENDMDL
MODEL 6
REMARK VINA RESULT:     -10.7      1.802      2.075
REMARK  Name = 9887812
REMARK  11 active torsions:
REMARK  status: ('A' for Active; 'I' for Inactive)
REMARK    1  A    between atoms: N_1  and  C_3
REMARK    2  A    between atoms: N_1  and  C_19
REMARK    3  A    between atoms: C_4  and  C_9
REMARK    4  A    between atoms: C_12  and  C_16
REMARK    5  A    between atoms: C_16  and  O_17
REMARK    6  A    between atoms: C_19  and  C_20
REMARK    7  A    between atoms: C_20  and  N_21
REMARK    8  A    between atoms: N_21  and  C_24
REMARK    9  A    between atoms: C_24  and  C_25
REMARK   10  A    between atoms: C_25  and  C_27
REMARK   11  A    between atoms: C_25  and  O_33
REMARK                            x       y       z     vdW  Elec       q    Type
REMARK                         _______ _______ _______ _____ _____    ______ ____
ROOT
ATOM      1  N   UNL     1      35.265 -15.577 -22.871  0.00  0.00    -0.335 N 
ATOM      2  H   UNL     1      36.134 -15.283 -22.515  0.00  0.00    +0.147 HD
ENDROOT
BRANCH   1   3
ATOM      3  C   UNL     1      34.999 -16.960 -22.943  0.00  0.00    +0.045 C 
ATOM      4  C   UNL     1      34.998 -19.147 -21.916  0.00  0.00    +0.001 C 
ATOM      5  C   UNL     1      35.261 -17.779 -21.845  0.00  0.00    +0.014 C 
ATOM      6  C   UNL     1      34.475 -17.510 -24.113  0.00  0.00    +0.014 C 
ATOM      7  C   UNL     1      34.474 -19.697 -23.086  0.00  0.00    +0.000 C 
ATOM      8  C   UNL     1      34.213 -18.878 -24.185  0.00  0.00    +0.001 C 
BRANCH   4   9
ATOM      9  C   UNL     1      35.270 -19.996 -20.777  0.00  0.00    +0.000 C 
ATOM     10  C   UNL     1      34.246 -20.758 -20.213  0.00  0.00    +0.006 C 
ATOM     11  C   UNL     1      36.557 -20.053 -20.242  0.00  0.00    +0.000 C 
ATOM     12  C   UNL     1      34.510 -21.576 -19.115  0.00  0.00    +0.075 C 
ATOM     13  C   UNL     1      36.820 -20.871 -19.143  0.00  0.00    +0.000 C 
ATOM     14  C   UNL     1      35.796 -21.633 -18.579  0.00  0.00    +0.006 C 
BRANCH  12  16
ATOM     15  O   UNL     1      33.525 -23.565 -18.222  0.00  0.00    -0.245 OA
ATOM     16  C   UNL     1      33.443 -22.371 -18.527  0.00  0.00    +0.338 C 
BRANCH  16  17
ATOM     17  O   UNL     1      32.302 -21.652 -18.337  0.00  0.00    -0.477 OA
ATOM     18  H   UNL     1      31.749 -21.450 -19.065  0.00  0.00    +0.295 HD
ENDBRANCH  16  17
ENDBRANCH  12  16
ENDBRANCH   4   9
ENDBRANCH   1   3
BRANCH   1  19
ATOM     19  C   UNL     1      34.326 -14.582 -23.289  0.00  0.00    +0.064 C 
BRANCH  19  20
ATOM     20  C   UNL     1      33.919 -13.729 -22.095  0.00  0.00    -0.060 C 
BRANCH  20  21
ATOM     21  N   UNL     1      32.584 -13.177 -22.298  0.00  0.00    +0.387 N 
ATOM     22  H   UNL     1      32.175 -13.594 -23.134  0.00  0.00    -0.084 HD
ATOM     23  H   UNL     1      32.016 -13.390 -21.479  0.00  0.00    -0.084 HD
BRANCH  21  24
ATOM     24  C   UNL     1      32.640 -11.731 -22.464  0.00  0.00    -0.047 C 
BRANCH  24  25
ATOM     25  C   UNL     1      31.858 -11.025 -21.350  0.00  0.00    +0.112 C 
BRANCH  25  27
ATOM     26 CL   UNL     1      32.572  -6.244 -19.432  0.00  0.00    -0.082 Cl
ATOM     27  C   UNL     1      31.822  -9.527 -21.562  0.00  0.00    +0.003 C 
ATOM     28  C   UNL     1      32.172  -8.688 -20.519  0.00  0.00    +0.009 C 
ATOM     29  C   UNL     1      31.443  -9.029 -22.797  0.00  0.00    -0.002 C 
ATOM     30  C   UNL     1      32.141  -7.307 -20.716  0.00  0.00    +0.057 C 
ATOM     31  C   UNL     1      31.411  -7.648 -22.993  0.00  0.00    +0.001 C 
ATOM     32  C   UNL     1      31.760  -6.787 -21.953  0.00  0.00    +0.011 C 
ENDBRANCH  25  27
BRANCH  25  33
ATOM     33  O   UNL     1      30.514 -11.501 -21.311  0.00  0.00    -0.382 OA
ATOM     34  H   UNL     1      30.451 -12.333 -21.805  0.00  0.00    +0.211 HD
ENDBRANCH  25  33
ENDBRANCH  24  25
ENDBRANCH  21  24
ENDBRANCH  20  21
ENDBRANCH  19  20
ENDBRANCH   1  19
TORSDOF 11
ENDMDL
MODEL 7
REMARK VINA RESULT:     -10.6      6.169     12.393
REMARK  Name = 9887812
REMARK  11 active torsions:
REMARK  status: ('A' for Active; 'I' for Inactive)
REMARK    1  A    between atoms: N_1  and  C_3
REMARK    2  A    between atoms: N_1  and  C_19
REMARK    3  A    between atoms: C_4  and  C_9
REMARK    4  A    between atoms: C_12  and  C_16
REMARK    5  A    between atoms: C_16  and  O_17
REMARK    6  A    between atoms: C_19  and  C_20
REMARK    7  A    between atoms: C_20  and  N_21
REMARK    8  A    between atoms: N_21  and  C_24
REMARK    9  A    between atoms: C_24  and  C_25
REMARK   10  A    between atoms: C_25  and  C_27
REMARK   11  A    between atoms: C_25  and  O_33
REMARK                            x       y       z     vdW  Elec       q    Type
REMARK                         _______ _______ _______ _____ _____    ______ ____
ROOT
ATOM      1  N   UNL     1      32.760 -22.263 -18.393  0.00  0.00    -0.335 N 
ATOM      2  H   UNL     1      31.910 -22.090 -18.858  0.00  0.00    +0.147 HD
ENDROOT
BRANCH   1   3
ATOM      3  C   UNL     1      33.937 -21.676 -18.901  0.00  0.00    +0.045 C 
ATOM      4  C   UNL     1      35.027 -20.154 -20.428  0.00  0.00    +0.001 C 
ATOM      5  C   UNL     1      33.861 -20.734 -19.926  0.00  0.00    +0.014 C 
ATOM      6  C   UNL     1      35.178 -22.039 -18.378  0.00  0.00    +0.014 C 
ATOM      7  C   UNL     1      36.268 -20.517 -19.905  0.00  0.00    +0.000 C 
ATOM      8  C   UNL     1      36.344 -21.460 -18.880  0.00  0.00    +0.001 C 
BRANCH   4   9
ATOM      9  C   UNL     1      34.948 -19.177 -21.492  0.00  0.00    +0.000 C 
ATOM     10  C   UNL     1      34.949 -17.815 -21.190  0.00  0.00    +0.006 C 
ATOM     11  C   UNL     1      34.870 -19.597 -22.819  0.00  0.00    +0.000 C 
ATOM     12  C   UNL     1      34.872 -16.874 -22.216  0.00  0.00    +0.075 C 
ATOM     13  C   UNL     1      34.792 -18.656 -23.846  0.00  0.00    +0.000 C 
ATOM     14  C   UNL     1      34.794 -17.293 -23.544  0.00  0.00    +0.006 C 
BRANCH  12  16
ATOM     15  O   UNL     1      34.877 -14.537 -22.732  0.00  0.00    -0.245 OA
ATOM     16  C   UNL     1      34.875 -15.453 -21.903  0.00  0.00    +0.338 C 
BRANCH  16  17
ATOM     17  O   UNL     1      34.876 -15.216 -20.562  0.00  0.00    -0.477 OA
ATOM     18  H   UNL     1      34.381 -15.767 -19.989  0.00  0.00    +0.295 HD
ENDBRANCH  16  17
ENDBRANCH  12  16
ENDBRANCH   4   9
ENDBRANCH   1   3
BRANCH   1  19
ATOM     19  C   UNL     1      32.745 -23.097 -17.231  0.00  0.00    +0.064 C 
BRANCH  19  20
ATOM     20  C   UNL     1      31.474 -22.841 -16.433  0.00  0.00    -0.060 C 
BRANCH  20  21
ATOM     21  N   UNL     1      31.371 -23.784 -15.326  0.00  0.00    +0.387 N 
ATOM     22  H   UNL     1      30.405 -23.808 -14.997  0.00  0.00    -0.084 HD
ATOM     23  H   UNL     1      31.657 -24.706 -15.655  0.00  0.00    -0.084 HD
BRANCH  21  24
ATOM     24  C   UNL     1      32.240 -23.390 -14.226  0.00  0.00    -0.047 C 
BRANCH  24  25
ATOM     25  C   UNL     1      33.125 -24.563 -13.785  0.00  0.00    +0.112 C 
BRANCH  25  27
ATOM     26 CL   UNL     1      37.601 -22.634 -15.598  0.00  0.00    -0.082 Cl
ATOM     27  C   UNL     1      34.544 -24.114 -13.514  0.00  0.00    +0.003 C 
ATOM     28  C   UNL     1      35.315 -23.641 -14.561  0.00  0.00    +0.009 C 
ATOM     29  C   UNL     1      35.040 -24.183 -12.223  0.00  0.00    -0.002 C 
ATOM     30  C   UNL     1      36.624 -23.226 -14.310  0.00  0.00    +0.057 C 
ATOM     31  C   UNL     1      36.348 -23.769 -11.973  0.00  0.00    +0.001 C 
ATOM     32  C   UNL     1      37.139 -23.290 -13.016  0.00  0.00    +0.011 C 
ENDBRANCH  25  27
BRANCH  25  33
ATOM     33  O   UNL     1      32.608 -25.151 -12.593  0.00  0.00    -0.382 OA
ATOM     34  H   UNL     1      32.525 -26.110 -12.714  0.00  0.00    +0.211 HD
ENDBRANCH  25  33
ENDBRANCH  24  25
ENDBRANCH  21  24
ENDBRANCH  20  21
ENDBRANCH  19  20
ENDBRANCH   1  19
TORSDOF 11
ENDMDL
MODEL 8
REMARK VINA RESULT:     -10.5      3.916     11.414
REMARK  Name = 9887812
REMARK  11 active torsions:
REMARK  status: ('A' for Active; 'I' for Inactive)
REMARK    1  A    between atoms: N_1  and  C_3
REMARK    2  A    between atoms: N_1  and  C_19
REMARK    3  A    between atoms: C_4  and  C_9
REMARK    4  A    between atoms: C_12  and  C_16
REMARK    5  A    between atoms: C_16  and  O_17
REMARK    6  A    between atoms: C_19  and  C_20
REMARK    7  A    between atoms: C_20  and  N_21
REMARK    8  A    between atoms: N_21  and  C_24
REMARK    9  A    between atoms: C_24  and  C_25
REMARK   10  A    between atoms: C_25  and  C_27
REMARK   11  A    between atoms: C_25  and  O_33
REMARK                            x       y       z     vdW  Elec       q    Type
REMARK                         _______ _______ _______ _____ _____    ______ ____
ROOT
ATOM      1  N   UNL     1      33.417 -14.299 -22.825  0.00  0.00    -0.335 N 
ATOM      2  H   UNL     1      32.540 -14.599 -22.495  0.00  0.00    +0.147 HD
ENDROOT
BRANCH   1   3
ATOM      3  C   UNL     1      33.467 -13.186 -23.690  0.00  0.00    +0.045 C 
ATOM      4  C   UNL     1      33.673 -10.802 -24.024  0.00  0.00    +0.001 C 
ATOM      5  C   UNL     1      33.624 -11.903 -23.168  0.00  0.00    +0.014 C 
ATOM      6  C   UNL     1      33.357 -13.369 -25.069  0.00  0.00    +0.014 C 
ATOM      7  C   UNL     1      33.563 -10.985 -25.403  0.00  0.00    +0.000 C 
ATOM      8  C   UNL     1      33.404 -12.269 -25.925  0.00  0.00    +0.001 C 
BRANCH   4   9
ATOM      9  C   UNL     1      33.836  -9.471 -23.482  0.00  0.00    +0.000 C 
ATOM     10  C   UNL     1      33.130  -9.091 -22.339  0.00  0.00    +0.006 C 
ATOM     11  C   UNL     1      34.698  -8.567 -24.101  0.00  0.00    +0.000 C 
ATOM     12  C   UNL     1      33.288  -7.808 -21.818  0.00  0.00    +0.075 C 
ATOM     13  C   UNL     1      34.856  -7.283 -23.579  0.00  0.00    +0.000 C 
ATOM     14  C   UNL     1      34.150  -6.903 -22.437  0.00  0.00    +0.006 C 
BRANCH  12  16
ATOM     15  O   UNL     1      32.733  -7.864 -19.491  0.00  0.00    -0.245 OA
ATOM     16  C   UNL     1      32.553  -7.411 -20.626  0.00  0.00    +0.338 C 
BRANCH  16  17
ATOM     17  O   UNL     1      31.614  -6.460 -20.886  0.00  0.00    -0.477 OA
ATOM     18  H   UNL     1      31.498  -6.143 -21.759  0.00  0.00    +0.295 HD
ENDBRANCH  16  17
ENDBRANCH  12  16
ENDBRANCH   4   9
ENDBRANCH   1   3
BRANCH   1  19
ATOM     19  C   UNL     1      34.586 -15.009 -22.405  0.00  0.00    +0.064 C 
BRANCH  19  20
ATOM     20  C   UNL     1      34.812 -16.207 -23.318  0.00  0.00    -0.060 C 
BRANCH  20  21
ATOM     21  N   UNL     1      35.864 -17.062 -22.780  0.00  0.00    +0.387 N 
ATOM     22  H   UNL     1      36.173 -17.707 -23.508  0.00  0.00    -0.084 HD
ATOM     23  H   UNL     1      36.638 -16.474 -22.474  0.00  0.00    -0.084 HD
BRANCH  21  24
ATOM     24  C   UNL     1      35.379 -17.827 -21.640  0.00  0.00    -0.047 C 
BRANCH  24  25
ATOM     25  C   UNL     1      35.156 -19.295 -22.024  0.00  0.00    +0.112 C 
BRANCH  25  27
ATOM     26 CL   UNL     1      36.782 -21.966 -17.869  0.00  0.00    -0.082 Cl
ATOM     27  C   UNL     1      34.817 -20.138 -20.815  0.00  0.00    +0.003 C 
ATOM     28  C   UNL     1      35.840 -20.602 -20.005  0.00  0.00    +0.009 C 
ATOM     29  C   UNL     1      33.490 -20.427 -20.542  0.00  0.00    -0.002 C 
ATOM     30  C   UNL     1      35.526 -21.379 -18.889  0.00  0.00    +0.057 C 
ATOM     31  C   UNL     1      33.178 -21.203 -19.427  0.00  0.00    +0.001 C 
ATOM     32  C   UNL     1      34.195 -21.679 -18.600  0.00  0.00    +0.011 C 
ENDBRANCH  25  27
BRANCH  25  33
ATOM     33  O   UNL     1      34.084 -19.404 -22.958  0.00  0.00    -0.382 OA
ATOM     34  H   UNL     1      33.670 -20.278 -22.876  0.00  0.00    +0.211 HD
ENDBRANCH  25  33
ENDBRANCH  24  25
ENDBRANCH  21  24
ENDBRANCH  20  21
ENDBRANCH  19  20
ENDBRANCH   1  19
TORSDOF 11
ENDMDL
MODEL 9
REMARK VINA RESULT:     -10.5      3.871     11.850
REMARK  Name = 9887812
REMARK  11 active torsions:
REMARK  status: ('A' for Active; 'I' for Inactive)
REMARK    1  A    between atoms: N_1  and  C_3
REMARK    2  A    between atoms: N_1  and  C_19
REMARK    3  A    between atoms: C_4  and  C_9
REMARK    4  A    between atoms: C_12  and  C_16
REMARK    5  A    between atoms: C_16  and  O_17
REMARK    6  A    between atoms: C_19  and  C_20
REMARK    7  A    between atoms: C_20  and  N_21
REMARK    8  A    between atoms: N_21  and  C_24
REMARK    9  A    between atoms: C_24  and  C_25
REMARK   10  A    between atoms: C_25  and  C_27
REMARK   11  A    between atoms: C_25  and  O_33
REMARK                            x       y       z     vdW  Elec       q    Type
REMARK                         _______ _______ _______ _____ _____    ______ ____
ROOT
ATOM      1  N   UNL     1      34.192 -13.446 -23.566  0.00  0.00    -0.335 N 
ATOM      2  H   UNL     1      35.054 -13.173 -23.956  0.00  0.00    +0.147 HD
ENDROOT
BRANCH   1   3
ATOM      3  C   UNL     1      33.386 -12.461 -22.960  0.00  0.00    +0.045 C 
ATOM      4  C   UNL     1      32.810 -10.138 -22.632  0.00  0.00    +0.001 C 
ATOM      5  C   UNL     1      33.608 -11.112 -23.233  0.00  0.00    +0.014 C 
ATOM      6  C   UNL     1      32.365 -12.836 -22.086  0.00  0.00    +0.014 C 
ATOM      7  C   UNL     1      31.789 -10.513 -21.758  0.00  0.00    +0.000 C 
ATOM      8  C   UNL     1      31.568 -11.863 -21.485  0.00  0.00    +0.001 C 
BRANCH   4   9
ATOM      9  C   UNL     1      33.041  -8.738 -22.916  0.00  0.00    +0.000 C 
ATOM     10  C   UNL     1      32.005  -7.815 -22.768  0.00  0.00    +0.006 C 
ATOM     11  C   UNL     1      34.301  -8.311 -23.336  0.00  0.00    +0.000 C 
ATOM     12  C   UNL     1      32.229  -6.466 -23.042  0.00  0.00    +0.075 C 
ATOM     13  C   UNL     1      34.524  -6.962 -23.610  0.00  0.00    +0.000 C 
ATOM     14  C   UNL     1      33.488  -6.039 -23.463  0.00  0.00    +0.006 C 
BRANCH  12  16
ATOM     15  O   UNL     1      30.474  -5.343 -21.866  0.00  0.00    -0.245 OA
ATOM     16  C   UNL     1      31.150  -5.504 -22.888  0.00  0.00    +0.338 C 
BRANCH  16  17
ATOM     17  O   UNL     1      30.943  -4.768 -24.015  0.00  0.00    -0.477 OA
ATOM     18  H   UNL     1      30.088  -4.440 -24.210  0.00  0.00    +0.295 HD
ENDBRANCH  16  17
ENDBRANCH  12  16
ENDBRANCH   4   9
ENDBRANCH   1   3
BRANCH   1  19
ATOM     19  C   UNL     1      33.812 -14.823 -23.642  0.00  0.00    +0.064 C 
BRANCH  19  20
ATOM     20  C   UNL     1      34.830 -15.676 -22.896  0.00  0.00    -0.060 C 
BRANCH  20  21
ATOM     21  N   UNL     1      35.151 -16.872 -23.666  0.00  0.00    +0.387 N 
ATOM     22  H   UNL     1      34.541 -16.917 -24.482  0.00  0.00    -0.084 HD
ATOM     23  H   UNL     1      36.128 -16.821 -23.955  0.00  0.00    -0.084 HD
BRANCH  21  24
ATOM     24  C   UNL     1      34.964 -18.072 -22.863  0.00  0.00    -0.047 C 
BRANCH  24  25
ATOM     25  C   UNL     1      36.018 -18.153 -21.751  0.00  0.00    +0.112 C 
BRANCH  25  27
ATOM     26 CL   UNL     1      32.598 -21.371 -19.515  0.00  0.00    -0.082 Cl
ATOM     27  C   UNL     1      35.754 -19.318 -20.822  0.00  0.00    +0.003 C 
ATOM     28  C   UNL     1      34.452 -19.746 -20.628  0.00  0.00    +0.009 C 
ATOM     29  C   UNL     1      36.820 -19.932 -20.188  0.00  0.00    -0.002 C 
ATOM     30  C   UNL     1      34.209 -20.821 -19.772  0.00  0.00    +0.057 C 
ATOM     31  C   UNL     1      36.577 -21.006 -19.332  0.00  0.00    +0.001 C 
ATOM     32  C   UNL     1      35.272 -21.451 -19.124  0.00  0.00    +0.011 C 
ENDBRANCH  25  27
BRANCH  25  33
ATOM     33  O   UNL     1      37.318 -18.317 -22.313  0.00  0.00    -0.382 OA
ATOM     34  H   UNL     1      37.362 -17.859 -23.167  0.00  0.00    +0.211 HD
ENDBRANCH  25  33
ENDBRANCH  24  25
ENDBRANCH  21  24
ENDBRANCH  20  21
ENDBRANCH  19  20
ENDBRANCH   1  19
TORSDOF 11
ENDMDL
