MODEL 1
REMARK VINA RESULT:     -11.5      0.000      0.000
REMARK  Name = 448903
REMARK  11 active torsions:
REMARK  status: ('A' for Active; 'I' for Inactive)
REMARK    1  A    between atoms: N_1  and  C_22
REMARK    2  A    between atoms: C_8  and  N_11
REMARK    3  A    between atoms: C_12  and  C_14
REMARK    4  A    between atoms: C_14  and  C_15
REMARK    5  A    between atoms: C_15  and  C_16
REMARK    6  A    between atoms: C_22  and  C_23
REMARK    7  A    between atoms: C_23  and  C_24
REMARK    8  A    between atoms: C_24  and  N_25
REMARK    9  A    between atoms: C_24  and  C_35
REMARK   10  A    between atoms: C_29  and  C_32
REMARK   11  A    between atoms: C_35  and  O_36
REMARK                            x       y       z     vdW  Elec       q    Type
REMARK                         _______ _______ _______ _____ _____    ______ ____
ROOT
ATOM      1  N   UNL     1      32.580 -24.827 -13.622  0.00  0.00    -0.286 N 
ATOM      2  C   UNL     1      31.971 -24.094 -14.616  0.00  0.00    +0.053 C 
ATOM      3  C   UNL     1      30.595 -24.151 -14.383  0.00  0.00    +0.015 C 
ATOM      4  C   UNL     1      31.640 -25.342 -12.772  0.00  0.00    +0.065 C 
ATOM      5  C   UNL     1      30.402 -24.941 -13.216  0.00  0.00    +0.017 C 
ATOM      6  C   UNL     1      32.527 -23.393 -15.692  0.00  0.00    +0.029 C 
ATOM      7  C   UNL     1      29.730 -23.476 -15.267  0.00  0.00    +0.003 C 
ATOM      8  C   UNL     1      31.649 -22.730 -16.555  0.00  0.00    +0.052 C 
ATOM      9  C   UNL     1      30.271 -22.769 -16.347  0.00  0.00    +0.015 C 
ENDROOT
BRANCH   8  11
ATOM     10  O   UNL     1      33.809 -23.453 -18.517  0.00  0.00    -0.275 OA
ATOM     11  N   UNL     1      32.162 -22.018 -17.640  0.00  0.00    -0.284 N 
ATOM     12  C   UNL     1      33.165 -22.408 -18.536  0.00  0.00    +0.226 C 
ATOM     13  H   UNL     1      31.770 -21.128 -17.794  0.00  0.00    +0.155 HD
BRANCH  12  14
ATOM     14  C   UNL     1      33.449 -21.349 -19.590  0.00  0.00    +0.090 C 
BRANCH  14  15
ATOM     15  C   UNL     1      34.927 -20.958 -19.614  0.00  0.00    +0.036 C 
BRANCH  15  16
ATOM     16  C   UNL     1      35.272 -19.992 -20.722  0.00  0.00    -0.022 C 
ATOM     17  C   UNL     1      36.494 -19.322 -20.707  0.00  0.00    -0.004 C 
ATOM     18  C   UNL     1      34.368 -19.771 -21.761  0.00  0.00    -0.004 C 
ATOM     19  C   UNL     1      36.813 -18.429 -21.730  0.00  0.00    -0.000 C 
ATOM     20  C   UNL     1      34.686 -18.878 -22.785  0.00  0.00    -0.000 C 
ATOM     21  C   UNL     1      35.909 -18.207 -22.769  0.00  0.00    -0.000 C 
ENDBRANCH  15  16
ENDBRANCH  14  15
ENDBRANCH  12  14
ENDBRANCH   8  11
BRANCH   1  22
ATOM     22  C   UNL     1      34.006 -25.032 -13.483  0.00  0.00    +0.097 C 
BRANCH  22  23
ATOM     23  C   UNL     1      34.647 -24.253 -12.327  0.00  0.00    +0.040 C 
BRANCH  23  24
ATOM     24  C   UNL     1      35.902 -24.908 -11.709  0.00  0.00    +0.091 C 
BRANCH  24  25
ATOM     25  N   UNL     1      37.077 -24.884 -12.597  0.00  0.00    -0.246 NA
ATOM     26  N   UNL     1      38.669 -24.238 -14.004  0.00  0.00    -0.251 NA
ATOM     27  C   UNL     1      37.917 -25.933 -12.874  0.00  0.00    +0.125 C 
ATOM     28  C   UNL     1      37.557 -23.878 -13.293  0.00  0.00    +0.201 C 
ATOM     29  C   UNL     1      38.912 -25.557 -13.745  0.00  0.00    +0.124 C 
BRANCH  29  32
ATOM     30  O   UNL     1      41.038 -26.588 -13.661  0.00  0.00    -0.269 OA
ATOM     31  N   UNL     1      39.838 -26.831 -15.584  0.00  0.00    -0.324 N 
ATOM     32  C   UNL     1      39.983 -26.324 -14.287  0.00  0.00    +0.257 C 
ATOM     33  H   UNL     1      40.560 -27.366 -15.987  0.00  0.00    +0.145 HD
ATOM     34  H   UNL     1      39.014 -26.654 -16.093  0.00  0.00    +0.145 HD
ENDBRANCH  29  32
ENDBRANCH  24  25
BRANCH  24  35
ATOM     35  C   UNL     1      36.240 -24.262 -10.355  0.00  0.00    +0.153 C 
BRANCH  35  36
ATOM     36  O   UNL     1      35.373 -24.775  -9.350  0.00  0.00    -0.381 OA
ATOM     37  H   UNL     1      35.895 -25.246  -8.682  0.00  0.00    +0.210 HD
ENDBRANCH  35  36
ENDBRANCH  24  35
ENDBRANCH  23  24
ENDBRANCH  22  23
ENDBRANCH   1  22
TORSDOF 11
ENDMDL
MODEL 2
REMARK VINA RESULT:     -10.8      2.630      4.071
REMARK  Name = 448903
REMARK  11 active torsions:
REMARK  status: ('A' for Active; 'I' for Inactive)
REMARK    1  A    between atoms: N_1  and  C_22
REMARK    2  A    between atoms: C_8  and  N_11
REMARK    3  A    between atoms: C_12  and  C_14
REMARK    4  A    between atoms: C_14  and  C_15
REMARK    5  A    between atoms: C_15  and  C_16
REMARK    6  A    between atoms: C_22  and  C_23
REMARK    7  A    between atoms: C_23  and  C_24
REMARK    8  A    between atoms: C_24  and  N_25
REMARK    9  A    between atoms: C_24  and  C_35
REMARK   10  A    between atoms: C_29  and  C_32
REMARK   11  A    between atoms: C_35  and  O_36
REMARK                            x       y       z     vdW  Elec       q    Type
REMARK                         _______ _______ _______ _____ _____    ______ ____
ROOT
ATOM      1  N   UNL     1      35.366 -22.637 -16.836  0.00  0.00    -0.286 N 
ATOM      2  C   UNL     1      34.845 -22.003 -17.942  0.00  0.00    +0.053 C 
ATOM      3  C   UNL     1      33.477 -22.287 -17.970  0.00  0.00    +0.015 C 
ATOM      4  C   UNL     1      34.379 -23.308 -16.167  0.00  0.00    +0.065 C 
ATOM      5  C   UNL     1      33.198 -23.110 -16.843  0.00  0.00    +0.017 C 
ATOM      6  C   UNL     1      35.472 -21.209 -18.908  0.00  0.00    +0.029 C 
ATOM      7  C   UNL     1      32.696 -21.752 -19.014  0.00  0.00    +0.003 C 
ATOM      8  C   UNL     1      34.677 -20.690 -19.934  0.00  0.00    +0.052 C 
ATOM      9  C   UNL     1      33.310 -20.956 -19.987  0.00  0.00    +0.015 C 
ENDROOT
BRANCH   8  11
ATOM     10  O   UNL     1      37.054 -18.854 -19.796  0.00  0.00    -0.275 OA
ATOM     11  N   UNL     1      35.263 -19.891 -20.917  0.00  0.00    -0.284 N 
ATOM     12  C   UNL     1      36.384 -19.060 -20.804  0.00  0.00    +0.226 C 
ATOM     13  H   UNL     1      34.833 -19.915 -21.804  0.00  0.00    +0.155 HD
BRANCH  12  14
ATOM     14  C   UNL     1      36.716 -18.348 -22.106  0.00  0.00    +0.090 C 
BRANCH  14  15
ATOM     15  C   UNL     1      35.512 -18.304 -23.048  0.00  0.00    +0.036 C 
BRANCH  15  16
ATOM     16  C   UNL     1      34.923 -16.922 -23.202  0.00  0.00    -0.022 C 
ATOM     17  C   UNL     1      34.981 -16.018 -22.143  0.00  0.00    -0.004 C 
ATOM     18  C   UNL     1      34.321 -16.551 -24.405  0.00  0.00    -0.004 C 
ATOM     19  C   UNL     1      34.437 -14.741 -22.285  0.00  0.00    -0.000 C 
ATOM     20  C   UNL     1      33.777 -15.274 -24.547  0.00  0.00    -0.000 C 
ATOM     21  C   UNL     1      33.835 -14.369 -23.487  0.00  0.00    -0.000 C 
ENDBRANCH  15  16
ENDBRANCH  14  15
ENDBRANCH  12  14
ENDBRANCH   8  11
BRANCH   1  22
ATOM     22  C   UNL     1      36.754 -22.608 -16.427  0.00  0.00    +0.097 C 
BRANCH  22  23
ATOM     23  C   UNL     1      36.967 -22.349 -14.930  0.00  0.00    +0.040 C 
BRANCH  23  24
ATOM     24  C   UNL     1      36.595 -23.527 -14.001  0.00  0.00    +0.091 C 
BRANCH  24  25
ATOM     25  N   UNL     1      37.330 -24.767 -14.300  0.00  0.00    -0.246 NA
ATOM     26  N   UNL     1      37.844 -26.867 -14.810  0.00  0.00    -0.251 NA
ATOM     27  C   UNL     1      38.693 -24.924 -14.337  0.00  0.00    +0.125 C 
ATOM     28  C   UNL     1      36.848 -25.956 -14.589  0.00  0.00    +0.201 C 
ATOM     29  C   UNL     1      39.036 -26.218 -14.651  0.00  0.00    +0.124 C 
BRANCH  29  32
ATOM     30  O   UNL     1      40.839 -27.099 -15.901  0.00  0.00    -0.269 OA
ATOM     31  N   UNL     1      41.069 -27.052 -13.634  0.00  0.00    -0.324 N 
ATOM     32  C   UNL     1      40.325 -26.807 -14.795  0.00  0.00    +0.257 C 
ATOM     33  H   UNL     1      41.964 -27.457 -13.700  0.00  0.00    +0.145 HD
ATOM     34  H   UNL     1      40.698 -26.818 -12.752  0.00  0.00    +0.145 HD
ENDBRANCH  29  32
ENDBRANCH  24  25
BRANCH  24  35
ATOM     35  C   UNL     1      36.784 -23.134 -12.526  0.00  0.00    +0.153 C 
BRANCH  35  36
ATOM     36  O   UNL     1      35.609 -23.454 -11.790  0.00  0.00    -0.381 OA
ATOM     37  H   UNL     1      35.144 -24.186 -12.225  0.00  0.00    +0.210 HD
ENDBRANCH  35  36
ENDBRANCH  24  35
ENDBRANCH  23  24
ENDBRANCH  22  23
ENDBRANCH   1  22
TORSDOF 11
ENDMDL
MODEL 3
REMARK VINA RESULT:     -10.7      2.315      3.412
REMARK  Name = 448903
REMARK  11 active torsions:
REMARK  status: ('A' for Active; 'I' for Inactive)
REMARK    1  A    between atoms: N_1  and  C_22
REMARK    2  A    between atoms: C_8  and  N_11
REMARK    3  A    between atoms: C_12  and  C_14
REMARK    4  A    between atoms: C_14  and  C_15
REMARK    5  A    between atoms: C_15  and  C_16
REMARK    6  A    between atoms: C_22  and  C_23
REMARK    7  A    between atoms: C_23  and  C_24
REMARK    8  A    between atoms: C_24  and  N_25
REMARK    9  A    between atoms: C_24  and  C_35
REMARK   10  A    between atoms: C_29  and  C_32
REMARK   11  A    between atoms: C_35  and  O_36
REMARK                            x       y       z     vdW  Elec       q    Type
REMARK                         _______ _______ _______ _____ _____    ______ ____
ROOT
ATOM      1  N   UNL     1      35.674 -23.290 -15.403  0.00  0.00    -0.286 N 
ATOM      2  C   UNL     1      35.156 -22.764 -16.565  0.00  0.00    +0.053 C 
ATOM      3  C   UNL     1      33.808 -23.129 -16.613  0.00  0.00    +0.015 C 
ATOM      4  C   UNL     1      34.705 -23.970 -14.717  0.00  0.00    +0.065 C 
ATOM      5  C   UNL     1      33.538 -23.888 -15.440  0.00  0.00    +0.017 C 
ATOM      6  C   UNL     1      35.769 -22.003 -17.566  0.00  0.00    +0.029 C 
ATOM      7  C   UNL     1      33.033 -22.714 -17.715  0.00  0.00    +0.003 C 
ATOM      8  C   UNL     1      34.980 -21.603 -18.649  0.00  0.00    +0.052 C 
ATOM      9  C   UNL     1      33.633 -21.951 -18.723  0.00  0.00    +0.015 C 
ENDROOT
BRANCH   8  11
ATOM     10  O   UNL     1      33.697 -19.885 -20.756  0.00  0.00    -0.275 OA
ATOM     11  N   UNL     1      35.553 -20.841 -19.668  0.00  0.00    -0.284 N 
ATOM     12  C   UNL     1      34.907 -20.043 -20.621  0.00  0.00    +0.226 C 
ATOM     13  H   UNL     1      36.536 -20.868 -19.725  0.00  0.00    +0.155 HD
BRANCH  12  14
ATOM     14  C   UNL     1      35.882 -19.366 -21.571  0.00  0.00    +0.090 C 
BRANCH  14  15
ATOM     15  C   UNL     1      35.946 -17.857 -21.333  0.00  0.00    +0.036 C 
BRANCH  15  16
ATOM     16  C   UNL     1      35.242 -17.052 -22.399  0.00  0.00    -0.022 C 
ATOM     17  C   UNL     1      34.935 -15.711 -22.172  0.00  0.00    -0.004 C 
ATOM     18  C   UNL     1      34.898 -17.651 -23.611  0.00  0.00    -0.004 C 
ATOM     19  C   UNL     1      34.284 -14.968 -23.157  0.00  0.00    -0.000 C 
ATOM     20  C   UNL     1      34.247 -16.908 -24.596  0.00  0.00    -0.000 C 
ATOM     21  C   UNL     1      33.940 -15.567 -24.369  0.00  0.00    -0.000 C 
ENDBRANCH  15  16
ENDBRANCH  14  15
ENDBRANCH  12  14
ENDBRANCH   8  11
BRANCH   1  22
ATOM     22  C   UNL     1      37.044 -23.152 -14.956  0.00  0.00    +0.097 C 
BRANCH  22  23
ATOM     23  C   UNL     1      37.253 -23.428 -13.461  0.00  0.00    +0.040 C 
BRANCH  23  24
ATOM     24  C   UNL     1      37.456 -24.915 -13.091  0.00  0.00    +0.091 C 
BRANCH  24  25
ATOM     25  N   UNL     1      38.640 -25.522 -13.720  0.00  0.00    -0.246 NA
ATOM     26  N   UNL     1      40.716 -25.941 -14.389  0.00  0.00    -0.251 NA
ATOM     27  C   UNL     1      38.669 -26.662 -14.483  0.00  0.00    +0.125 C 
ATOM     28  C   UNL     1      39.889 -25.113 -13.682  0.00  0.00    +0.201 C 
ATOM     29  C   UNL     1      39.946 -26.942 -14.910  0.00  0.00    +0.124 C 
BRANCH  29  32
ATOM     30  O   UNL     1      41.401 -28.738 -15.408  0.00  0.00    -0.269 OA
ATOM     31  N   UNL     1      39.734 -28.304 -16.901  0.00  0.00    -0.324 N 
ATOM     32  C   UNL     1      40.420 -28.019 -15.714  0.00  0.00    +0.257 C 
ATOM     33  H   UNL     1      40.037 -29.042 -17.479  0.00  0.00    +0.145 HD
ATOM     34  H   UNL     1      38.950 -27.767 -17.159  0.00  0.00    +0.145 HD
ENDBRANCH  29  32
ENDBRANCH  24  25
BRANCH  24  35
ATOM     35  C   UNL     1      37.509 -25.089 -11.564  0.00  0.00    +0.153 C 
BRANCH  35  36
ATOM     36  O   UNL     1      37.204 -26.437 -11.224  0.00  0.00    -0.381 OA
ATOM     37  H   UNL     1      37.754 -27.037 -11.752  0.00  0.00    +0.210 HD
ENDBRANCH  35  36
ENDBRANCH  24  35
ENDBRANCH  23  24
ENDBRANCH  22  23
ENDBRANCH   1  22
TORSDOF 11
ENDMDL
MODEL 4
REMARK VINA RESULT:     -10.7     11.636     16.447
REMARK  Name = 448903
REMARK  11 active torsions:
REMARK  status: ('A' for Active; 'I' for Inactive)
REMARK    1  A    between atoms: N_1  and  C_22
REMARK    2  A    between atoms: C_8  and  N_11
REMARK    3  A    between atoms: C_12  and  C_14
REMARK    4  A    between atoms: C_14  and  C_15
REMARK    5  A    between atoms: C_15  and  C_16
REMARK    6  A    between atoms: C_22  and  C_23
REMARK    7  A    between atoms: C_23  and  C_24
REMARK    8  A    between atoms: C_24  and  N_25
REMARK    9  A    between atoms: C_24  and  C_35
REMARK   10  A    between atoms: C_29  and  C_32
REMARK   11  A    between atoms: C_35  and  O_36
REMARK                            x       y       z     vdW  Elec       q    Type
REMARK                         _______ _______ _______ _____ _____    ______ ____
ROOT
ATOM      1  N   UNL     1      31.727 -10.354 -20.873  0.00  0.00    -0.286 N 
ATOM      2  C   UNL     1      31.945  -8.996 -20.956  0.00  0.00    +0.053 C 
ATOM      3  C   UNL     1      32.121  -8.530 -19.650  0.00  0.00    +0.015 C 
ATOM      4  C   UNL     1      31.760 -10.759 -19.567  0.00  0.00    +0.065 C 
ATOM      5  C   UNL     1      32.002  -9.654 -18.786  0.00  0.00    +0.017 C 
ATOM      6  C   UNL     1      32.000  -8.156 -22.073  0.00  0.00    +0.029 C 
ATOM      7  C   UNL     1      32.363  -7.156 -19.449  0.00  0.00    +0.003 C 
ATOM      8  C   UNL     1      32.242  -6.797 -21.848  0.00  0.00    +0.052 C 
ATOM      9  C   UNL     1      32.421  -6.303 -20.557  0.00  0.00    +0.015 C 
ENDROOT
BRANCH   8  11
ATOM     10  O   UNL     1      30.663  -4.310 -22.448  0.00  0.00    -0.275 OA
ATOM     11  N   UNL     1      32.306  -5.924 -22.935  0.00  0.00    -0.284 N 
ATOM     12  C   UNL     1      31.552  -4.765 -23.161  0.00  0.00    +0.226 C 
ATOM     13  H   UNL     1      32.963  -6.152 -23.632  0.00  0.00    +0.155 HD
BRANCH  12  14
ATOM     14  C   UNL     1      31.915  -4.080 -24.469  0.00  0.00    +0.090 C 
BRANCH  14  15
ATOM     15  C   UNL     1      32.248  -5.094 -25.564  0.00  0.00    +0.036 C 
BRANCH  15  16
ATOM     16  C   UNL     1      33.522  -4.776 -26.307  0.00  0.00    -0.022 C 
ATOM     17  C   UNL     1      34.753  -4.892 -25.662  0.00  0.00    -0.004 C 
ATOM     18  C   UNL     1      33.469  -4.368 -27.640  0.00  0.00    -0.004 C 
ATOM     19  C   UNL     1      35.931  -4.598 -26.349  0.00  0.00    -0.000 C 
ATOM     20  C   UNL     1      34.647  -4.073 -28.327  0.00  0.00    -0.000 C 
ATOM     21  C   UNL     1      35.878  -4.189 -27.681  0.00  0.00    -0.000 C 
ENDBRANCH  15  16
ENDBRANCH  14  15
ENDBRANCH  12  14
ENDBRANCH   8  11
BRANCH   1  22
ATOM     22  C   UNL     1      31.495 -11.237 -21.996  0.00  0.00    +0.097 C 
BRANCH  22  23
ATOM     23  C   UNL     1      32.332 -12.523 -21.972  0.00  0.00    +0.040 C 
BRANCH  23  24
ATOM     24  C   UNL     1      33.554 -12.529 -22.918  0.00  0.00    +0.091 C 
BRANCH  24  25
ATOM     25  N   UNL     1      33.711 -13.786 -23.669  0.00  0.00    -0.246 NA
ATOM     26  N   UNL     1      33.713 -15.322 -25.273  0.00  0.00    -0.251 NA
ATOM     27  C   UNL     1      34.192 -14.976 -23.183  0.00  0.00    +0.125 C 
ATOM     28  C   UNL     1      33.432 -14.028 -24.930  0.00  0.00    +0.201 C 
ATOM     29  C   UNL     1      34.203 -15.944 -24.160  0.00  0.00    +0.124 C 
BRANCH  29  32
ATOM     30  O   UNL     1      34.169 -18.213 -24.824  0.00  0.00    -0.269 OA
ATOM     31  N   UNL     1      35.610 -17.639 -23.154  0.00  0.00    -0.324 N 
ATOM     32  C   UNL     1      34.621 -17.304 -24.087  0.00  0.00    +0.257 C 
ATOM     33  H   UNL     1      35.921 -18.570 -23.079  0.00  0.00    +0.145 HD
ATOM     34  H   UNL     1      35.995 -16.943 -22.572  0.00  0.00    +0.145 HD
ENDBRANCH  29  32
ENDBRANCH  24  25
BRANCH  24  35
ATOM     35  C   UNL     1      33.498 -11.332 -23.882  0.00  0.00    +0.153 C 
BRANCH  35  36
ATOM     36  O   UNL     1      34.625 -10.491 -23.667  0.00  0.00    -0.381 OA
ATOM     37  H   UNL     1      35.148 -10.834 -22.926  0.00  0.00    +0.210 HD
ENDBRANCH  35  36
ENDBRANCH  24  35
ENDBRANCH  23  24
ENDBRANCH  22  23
ENDBRANCH   1  22
TORSDOF 11
ENDMDL
MODEL 5
REMARK VINA RESULT:     -10.6      2.537      4.609
REMARK  Name = 448903
REMARK  11 active torsions:
REMARK  status: ('A' for Active; 'I' for Inactive)
REMARK    1  A    between atoms: N_1  and  C_22
REMARK    2  A    between atoms: C_8  and  N_11
REMARK    3  A    between atoms: C_12  and  C_14
REMARK    4  A    between atoms: C_14  and  C_15
REMARK    5  A    between atoms: C_15  and  C_16
REMARK    6  A    between atoms: C_22  and  C_23
REMARK    7  A    between atoms: C_23  and  C_24
REMARK    8  A    between atoms: C_24  and  N_25
REMARK    9  A    between atoms: C_24  and  C_35
REMARK   10  A    between atoms: C_29  and  C_32
REMARK   11  A    between atoms: C_35  and  O_36
REMARK                            x       y       z     vdW  Elec       q    Type
REMARK                         _______ _______ _______ _____ _____    ______ ____
ROOT
ATOM      1  N   UNL     1      36.125 -22.786 -15.877  0.00  0.00    -0.286 N 
ATOM      2  C   UNL     1      35.535 -22.350 -17.042  0.00  0.00    +0.053 C 
ATOM      3  C   UNL     1      34.221 -22.823 -17.038  0.00  0.00    +0.015 C 
ATOM      4  C   UNL     1      35.232 -23.515 -15.139  0.00  0.00    +0.065 C 
ATOM      5  C   UNL     1      34.044 -23.555 -15.831  0.00  0.00    +0.017 C 
ATOM      6  C   UNL     1      36.059 -21.582 -18.088  0.00  0.00    +0.029 C 
ATOM      7  C   UNL     1      33.387 -22.515 -18.132  0.00  0.00    +0.003 C 
ATOM      8  C   UNL     1      35.213 -21.289 -19.162  0.00  0.00    +0.052 C 
ATOM      9  C   UNL     1      33.897 -21.747 -19.185  0.00  0.00    +0.015 C 
ENDROOT
BRANCH   8  11
ATOM     10  O   UNL     1      37.324 -19.149 -19.225  0.00  0.00    -0.275 OA
ATOM     11  N   UNL     1      35.695 -20.524 -20.224  0.00  0.00    -0.284 N 
ATOM     12  C   UNL     1      36.695 -19.544 -20.203  0.00  0.00    +0.226 C 
ATOM     13  H   UNL     1      35.280 -20.694 -21.101  0.00  0.00    +0.155 HD
BRANCH  12  14
ATOM     14  C   UNL     1      36.940 -18.930 -21.572  0.00  0.00    +0.090 C 
BRANCH  14  15
ATOM     15  C   UNL     1      35.696 -19.011 -22.458  0.00  0.00    +0.036 C 
BRANCH  15  16
ATOM     16  C   UNL     1      35.166 -17.660 -22.872  0.00  0.00    -0.022 C 
ATOM     17  C   UNL     1      35.236 -16.583 -21.990  0.00  0.00    -0.004 C 
ATOM     18  C   UNL     1      34.608 -17.489 -24.139  0.00  0.00    -0.004 C 
ATOM     19  C   UNL     1      34.747 -15.334 -22.373  0.00  0.00    -0.000 C 
ATOM     20  C   UNL     1      34.119 -16.240 -24.522  0.00  0.00    -0.000 C 
ATOM     21  C   UNL     1      34.188 -15.162 -23.639  0.00  0.00    -0.000 C 
ENDBRANCH  15  16
ENDBRANCH  14  15
ENDBRANCH  12  14
ENDBRANCH   8  11
BRANCH   1  22
ATOM     22  C   UNL     1      37.490 -22.521 -15.475  0.00  0.00    +0.097 C 
BRANCH  22  23
ATOM     23  C   UNL     1      38.471 -23.661 -15.780  0.00  0.00    +0.040 C 
BRANCH  23  24
ATOM     24  C   UNL     1      39.097 -24.338 -14.540  0.00  0.00    +0.091 C 
BRANCH  24  25
ATOM     25  N   UNL     1      38.103 -24.823 -13.569  0.00  0.00    -0.246 NA
ATOM     26  N   UNL     1      36.555 -26.029 -12.529  0.00  0.00    -0.251 NA
ATOM     27  C   UNL     1      37.745 -24.217 -12.390  0.00  0.00    +0.125 C 
ATOM     28  C   UNL     1      37.369 -25.911 -13.622  0.00  0.00    +0.201 C 
ATOM     29  C   UNL     1      36.785 -24.947 -11.728  0.00  0.00    +0.124 C 
BRANCH  29  32
ATOM     30  O   UNL     1      35.176 -25.353 -10.044  0.00  0.00    -0.269 OA
ATOM     31  N   UNL     1      36.632 -23.633  -9.699  0.00  0.00    -0.324 N 
ATOM     32  C   UNL     1      36.142 -24.684 -10.485  0.00  0.00    +0.257 C 
ATOM     33  H   UNL     1      36.209 -23.426  -8.835  0.00  0.00    +0.145 HD
ATOM     34  H   UNL     1      37.400 -23.101 -10.012  0.00  0.00    +0.145 HD
ENDBRANCH  29  32
ENDBRANCH  24  25
BRANCH  24  35
ATOM     35  C   UNL     1      40.036 -25.480 -14.963  0.00  0.00    +0.153 C 
BRANCH  35  36
ATOM     36  O   UNL     1      41.070 -25.634 -13.997  0.00  0.00    -0.381 OA
ATOM     37  H   UNL     1      40.796 -25.222 -13.162  0.00  0.00    +0.210 HD
ENDBRANCH  35  36
ENDBRANCH  24  35
ENDBRANCH  23  24
ENDBRANCH  22  23
ENDBRANCH   1  22
TORSDOF 11
ENDMDL
MODEL 6
REMARK VINA RESULT:     -10.5     10.858     16.631
REMARK  Name = 448903
REMARK  11 active torsions:
REMARK  status: ('A' for Active; 'I' for Inactive)
REMARK    1  A    between atoms: N_1  and  C_22
REMARK    2  A    between atoms: C_8  and  N_11
REMARK    3  A    between atoms: C_12  and  C_14
REMARK    4  A    between atoms: C_14  and  C_15
REMARK    5  A    between atoms: C_15  and  C_16
REMARK    6  A    between atoms: C_22  and  C_23
REMARK    7  A    between atoms: C_23  and  C_24
REMARK    8  A    between atoms: C_24  and  N_25
REMARK    9  A    between atoms: C_24  and  C_35
REMARK   10  A    between atoms: C_29  and  C_32
REMARK   11  A    between atoms: C_35  and  O_36
REMARK                            x       y       z     vdW  Elec       q    Type
REMARK                         _______ _______ _______ _____ _____    ______ ____
ROOT
ATOM      1  N   UNL     1      32.277 -10.452 -22.357  0.00  0.00    -0.286 N 
ATOM      2  C   UNL     1      32.601 -11.733 -21.971  0.00  0.00    +0.053 C 
ATOM      3  C   UNL     1      32.010 -11.947 -20.723  0.00  0.00    +0.015 C 
ATOM      4  C   UNL     1      31.504  -9.851 -21.400  0.00  0.00    +0.065 C 
ATOM      5  C   UNL     1      31.321 -10.751 -20.377  0.00  0.00    +0.017 C 
ATOM      6  C   UNL     1      33.363 -12.709 -22.624  0.00  0.00    +0.029 C 
ATOM      7  C   UNL     1      32.188 -13.196 -20.094  0.00  0.00    +0.003 C 
ATOM      8  C   UNL     1      33.525 -13.940 -21.981  0.00  0.00    +0.052 C 
ATOM      9  C   UNL     1      32.947 -14.181 -20.736  0.00  0.00    +0.015 C 
ENDROOT
BRANCH   8  11
ATOM     10  O   UNL     1      33.235 -15.205 -24.692  0.00  0.00    -0.275 OA
ATOM     11  N   UNL     1      34.276 -14.941 -22.598  0.00  0.00    -0.284 N 
ATOM     12  C   UNL     1      34.106 -15.488 -23.876  0.00  0.00    +0.226 C 
ATOM     13  H   UNL     1      35.020 -15.309 -22.068  0.00  0.00    +0.155 HD
BRANCH  12  14
ATOM     14  C   UNL     1      35.132 -16.566 -24.189  0.00  0.00    +0.090 C 
BRANCH  14  15
ATOM     15  C   UNL     1      34.584 -17.966 -23.910  0.00  0.00    +0.036 C 
BRANCH  15  16
ATOM     16  C   UNL     1      35.141 -18.588 -22.653  0.00  0.00    -0.022 C 
ATOM     17  C   UNL     1      34.379 -19.507 -21.932  0.00  0.00    -0.004 C 
ATOM     18  C   UNL     1      36.419 -18.243 -22.212  0.00  0.00    -0.004 C 
ATOM     19  C   UNL     1      34.894 -20.081 -20.770  0.00  0.00    -0.000 C 
ATOM     20  C   UNL     1      36.934 -18.817 -21.049  0.00  0.00    -0.000 C 
ATOM     21  C   UNL     1      36.171 -19.736 -20.328  0.00  0.00    -0.000 C 
ENDBRANCH  15  16
ENDBRANCH  14  15
ENDBRANCH  12  14
ENDBRANCH   8  11
BRANCH   1  22
ATOM     22  C   UNL     1      32.687  -9.817 -23.591  0.00  0.00    +0.097 C 
BRANCH  22  23
ATOM     23  C   UNL     1      32.014  -8.464 -23.860  0.00  0.00    +0.040 C 
BRANCH  23  24
ATOM     24  C   UNL     1      32.888  -7.225 -23.556  0.00  0.00    +0.091 C 
BRANCH  24  25
ATOM     25  N   UNL     1      32.126  -6.084 -23.023  0.00  0.00    -0.246 NA
ATOM     26  N   UNL     1      30.663  -4.831 -21.916  0.00  0.00    -0.251 NA
ATOM     27  C   UNL     1      32.333  -4.757 -23.304  0.00  0.00    +0.125 C 
ATOM     28  C   UNL     1      31.114  -6.095 -22.184  0.00  0.00    +0.201 C 
ATOM     29  C   UNL     1      31.437  -3.960 -22.630  0.00  0.00    +0.124 C 
BRANCH  29  32
ATOM     30  O   UNL     1      31.901  -1.786 -23.435  0.00  0.00    -0.269 OA
ATOM     31  N   UNL     1      30.429  -1.963 -21.704  0.00  0.00    -0.324 N 
ATOM     32  C   UNL     1      31.301  -2.542 -22.633  0.00  0.00    +0.257 C 
ATOM     33  H   UNL     1      30.312  -0.985 -21.681  0.00  0.00    +0.145 HD
ATOM     34  H   UNL     1      29.932  -2.533 -21.072  0.00  0.00    +0.145 HD
ENDBRANCH  29  32
ENDBRANCH  24  25
BRANCH  24  35
ATOM     35  C   UNL     1      34.038  -7.594 -22.606  0.00  0.00    +0.153 C 
BRANCH  35  36
ATOM     36  O   UNL     1      35.232  -6.938 -23.019  0.00  0.00    -0.381 OA
ATOM     37  H   UNL     1      35.513  -6.315 -22.331  0.00  0.00    +0.210 HD
ENDBRANCH  35  36
ENDBRANCH  24  35
ENDBRANCH  23  24
ENDBRANCH  22  23
ENDBRANCH   1  22
TORSDOF 11
ENDMDL
MODEL 7
REMARK VINA RESULT:     -10.4      7.906     14.052
REMARK  Name = 448903
REMARK  11 active torsions:
REMARK  status: ('A' for Active; 'I' for Inactive)
REMARK    1  A    between atoms: N_1  and  C_22
REMARK    2  A    between atoms: C_8  and  N_11
REMARK    3  A    between atoms: C_12  and  C_14
REMARK    4  A    between atoms: C_14  and  C_15
REMARK    5  A    between atoms: C_15  and  C_16
REMARK    6  A    between atoms: C_22  and  C_23
REMARK    7  A    between atoms: C_23  and  C_24
REMARK    8  A    between atoms: C_24  and  N_25
REMARK    9  A    between atoms: C_24  and  C_35
REMARK   10  A    between atoms: C_29  and  C_32
REMARK   11  A    between atoms: C_35  and  O_36
REMARK                            x       y       z     vdW  Elec       q    Type
REMARK                         _______ _______ _______ _____ _____    ______ ____
ROOT
ATOM      1  N   UNL     1      33.811 -14.063 -23.148  0.00  0.00    -0.286 N 
ATOM      2  C   UNL     1      34.275 -15.357 -23.056  0.00  0.00    +0.053 C 
ATOM      3  C   UNL     1      34.170 -15.921 -24.330  0.00  0.00    +0.015 C 
ATOM      4  C   UNL     1      33.420 -13.791 -24.430  0.00  0.00    +0.065 C 
ATOM      5  C   UNL     1      33.629 -14.920 -25.186  0.00  0.00    +0.017 C 
ATOM      6  C   UNL     1      34.773 -16.063 -21.956  0.00  0.00    +0.029 C 
ATOM      7  C   UNL     1      34.582 -17.256 -24.517  0.00  0.00    +0.003 C 
ATOM      8  C   UNL     1      35.176 -17.386 -22.166  0.00  0.00    +0.052 C 
ATOM      9  C   UNL     1      35.083 -17.974 -23.426  0.00  0.00    +0.015 C 
ENDROOT
BRANCH   8  11
ATOM     10  O   UNL     1      37.889 -18.613 -21.748  0.00  0.00    -0.275 OA
ATOM     11  N   UNL     1      35.681 -18.125 -21.095  0.00  0.00    -0.284 N 
ATOM     12  C   UNL     1      36.963 -18.665 -20.943  0.00  0.00    +0.226 C 
ATOM     13  H   UNL     1      35.055 -18.288 -20.352  0.00  0.00    +0.155 HD
BRANCH  12  14
ATOM     14  C   UNL     1      37.130 -19.411 -19.628  0.00  0.00    +0.090 C 
BRANCH  14  15
ATOM     15  C   UNL     1      36.850 -20.906 -19.787  0.00  0.00    +0.036 C 
BRANCH  15  16
ATOM     16  C   UNL     1      35.504 -21.323 -19.247  0.00  0.00    -0.022 C 
ATOM     17  C   UNL     1      35.427 -22.183 -18.152  0.00  0.00    -0.004 C 
ATOM     18  C   UNL     1      34.336 -20.848 -19.844  0.00  0.00    -0.004 C 
ATOM     19  C   UNL     1      34.183 -22.569 -17.654  0.00  0.00    -0.000 C 
ATOM     20  C   UNL     1      33.091 -21.234 -19.345  0.00  0.00    -0.000 C 
ATOM     21  C   UNL     1      33.015 -22.094 -18.250  0.00  0.00    -0.000 C 
ENDBRANCH  15  16
ENDBRANCH  14  15
ENDBRANCH  12  14
ENDBRANCH   8  11
BRANCH   1  22
ATOM     22  C   UNL     1      33.742 -13.116 -22.055  0.00  0.00    +0.097 C 
BRANCH  22  23
ATOM     23  C   UNL     1      32.358 -12.484 -21.854  0.00  0.00    +0.040 C 
BRANCH  23  24
ATOM     24  C   UNL     1      32.226 -11.025 -22.348  0.00  0.00    +0.091 C 
BRANCH  24  25
ATOM     25  N   UNL     1      32.057 -10.048 -21.259  0.00  0.00    -0.246 NA
ATOM     26  N   UNL     1      31.546  -9.082 -19.326  0.00  0.00    -0.251 NA
ATOM     27  C   UNL     1      32.435  -8.729 -21.277  0.00  0.00    +0.125 C 
ATOM     28  C   UNL     1      31.526 -10.229 -20.071  0.00  0.00    +0.201 C 
ATOM     29  C   UNL     1      32.127  -8.108 -20.088  0.00  0.00    +0.124 C 
BRANCH  29  32
ATOM     30  O   UNL     1      33.216  -6.412 -18.854  0.00  0.00    -0.269 OA
ATOM     31  N   UNL     1      31.552  -5.763 -20.270  0.00  0.00    -0.324 N 
ATOM     32  C   UNL     1      32.344  -6.759 -19.685  0.00  0.00    +0.257 C 
ATOM     33  H   UNL     1      31.677  -4.821 -20.013  0.00  0.00    +0.145 HD
ATOM     34  H   UNL     1      30.870  -6.005 -20.938  0.00  0.00    +0.145 HD
ENDBRANCH  29  32
ENDBRANCH  24  25
BRANCH  24  35
ATOM     35  C   UNL     1      33.423 -10.642 -23.233  0.00  0.00    +0.153 C 
BRANCH  35  36
ATOM     36  O   UNL     1      32.966 -10.291 -24.534  0.00  0.00    -0.381 OA
ATOM     37  H   UNL     1      33.527 -10.718 -25.200  0.00  0.00    +0.210 HD
ENDBRANCH  35  36
ENDBRANCH  24  35
ENDBRANCH  23  24
ENDBRANCH  22  23
ENDBRANCH   1  22
TORSDOF 11
ENDMDL
MODEL 8
REMARK VINA RESULT:     -10.4      9.312     15.534
REMARK  Name = 448903
REMARK  11 active torsions:
REMARK  status: ('A' for Active; 'I' for Inactive)
REMARK    1  A    between atoms: N_1  and  C_22
REMARK    2  A    between atoms: C_8  and  N_11
REMARK    3  A    between atoms: C_12  and  C_14
REMARK    4  A    between atoms: C_14  and  C_15
REMARK    5  A    between atoms: C_15  and  C_16
REMARK    6  A    between atoms: C_22  and  C_23
REMARK    7  A    between atoms: C_23  and  C_24
REMARK    8  A    between atoms: C_24  and  N_25
REMARK    9  A    between atoms: C_24  and  C_35
REMARK   10  A    between atoms: C_29  and  C_32
REMARK   11  A    between atoms: C_35  and  O_36
REMARK                            x       y       z     vdW  Elec       q    Type
REMARK                         _______ _______ _______ _____ _____    ______ ____
ROOT
ATOM      1  N   UNL     1      33.571 -11.692 -24.142  0.00  0.00    -0.286 N 
ATOM      2  C   UNL     1      33.824 -13.042 -24.049  0.00  0.00    +0.053 C 
ATOM      3  C   UNL     1      33.584 -13.592 -25.311  0.00  0.00    +0.015 C 
ATOM      4  C   UNL     1      33.181 -11.370 -25.414  0.00  0.00    +0.065 C 
ATOM      5  C   UNL     1      33.180 -12.525 -26.161  0.00  0.00    +0.017 C 
ATOM      6  C   UNL     1      34.243 -13.810 -22.957  0.00  0.00    +0.029 C 
ATOM      7  C   UNL     1      33.770 -14.977 -25.493  0.00  0.00    +0.003 C 
ATOM      8  C   UNL     1      34.422 -15.182 -23.162  0.00  0.00    +0.052 C 
ATOM      9  C   UNL     1      34.190 -15.758 -24.410  0.00  0.00    +0.015 C 
ENDROOT
BRANCH   8  11
ATOM     10  O   UNL     1      35.429 -18.015 -23.135  0.00  0.00    -0.275 OA
ATOM     11  N   UNL     1      34.840 -15.984 -22.100  0.00  0.00    -0.284 N 
ATOM     12  C   UNL     1      35.316 -17.301 -22.143  0.00  0.00    +0.226 C 
ATOM     13  H   UNL     1      34.794 -15.573 -21.206  0.00  0.00    +0.155 HD
BRANCH  12  14
ATOM     14  C   UNL     1      35.674 -17.836 -20.766  0.00  0.00    +0.090 C 
BRANCH  14  15
ATOM     15  C   UNL     1      36.162 -19.284 -20.832  0.00  0.00    +0.036 C 
BRANCH  15  16
ATOM     16  C   UNL     1      35.255 -20.255 -20.116  0.00  0.00    -0.022 C 
ATOM     17  C   UNL     1      33.875 -20.187 -20.302  0.00  0.00    -0.004 C 
ATOM     18  C   UNL     1      35.798 -21.222 -19.270  0.00  0.00    -0.004 C 
ATOM     19  C   UNL     1      33.036 -21.084 -19.640  0.00  0.00    -0.000 C 
ATOM     20  C   UNL     1      34.960 -22.120 -18.608  0.00  0.00    -0.000 C 
ATOM     21  C   UNL     1      33.579 -22.051 -18.793  0.00  0.00    -0.000 C 
ENDBRANCH  15  16
ENDBRANCH  14  15
ENDBRANCH  12  14
ENDBRANCH   8  11
BRANCH   1  22
ATOM     22  C   UNL     1      33.694 -10.737 -23.061  0.00  0.00    +0.097 C 
BRANCH  22  23
ATOM     23  C   UNL     1      32.384 -10.029 -22.691  0.00  0.00    +0.040 C 
BRANCH  23  24
ATOM     24  C   UNL     1      32.289  -9.548 -21.225  0.00  0.00    +0.091 C 
BRANCH  24  25
ATOM     25  N   UNL     1      32.049  -8.102 -21.094  0.00  0.00    -0.246 NA
ATOM     26  N   UNL     1      31.899  -6.031 -20.305  0.00  0.00    -0.251 NA
ATOM     27  C   UNL     1      31.577  -7.258 -22.068  0.00  0.00    +0.125 C 
ATOM     28  C   UNL     1      32.233  -7.332 -20.045  0.00  0.00    +0.201 C 
ATOM     29  C   UNL     1      31.475  -5.968 -21.602  0.00  0.00    +0.124 C 
BRANCH  29  32
ATOM     30  O   UNL     1      30.941  -4.694 -23.521  0.00  0.00    -0.269 OA
ATOM     31  N   UNL     1      30.665  -3.688 -21.495  0.00  0.00    -0.324 N 
ATOM     32  C   UNL     1      31.035  -4.791 -22.274  0.00  0.00    +0.257 C 
ATOM     33  H   UNL     1      30.357  -2.860 -21.929  0.00  0.00    +0.145 HD
ATOM     34  H   UNL     1      30.714  -3.741 -20.512  0.00  0.00    +0.145 HD
ENDBRANCH  29  32
ENDBRANCH  24  25
BRANCH  24  35
ATOM     35  C   UNL     1      31.214 -10.342 -20.464  0.00  0.00    +0.153 C 
BRANCH  35  36
ATOM     36  O   UNL     1      30.904 -11.535 -21.176  0.00  0.00    -0.381 OA
ATOM     37  H   UNL     1      31.727 -11.972 -21.448  0.00  0.00    +0.210 HD
ENDBRANCH  35  36
ENDBRANCH  24  35
ENDBRANCH  23  24
ENDBRANCH  22  23
ENDBRANCH   1  22
TORSDOF 11
ENDMDL
MODEL 9
REMARK VINA RESULT:     -10.2      7.297     11.832
REMARK  Name = 448903
REMARK  11 active torsions:
REMARK  status: ('A' for Active; 'I' for Inactive)
REMARK    1  A    between atoms: N_1  and  C_22
REMARK    2  A    between atoms: C_8  and  N_11
REMARK    3  A    between atoms: C_12  and  C_14
REMARK    4  A    between atoms: C_14  and  C_15
REMARK    5  A    between atoms: C_15  and  C_16
REMARK    6  A    between atoms: C_22  and  C_23
REMARK    7  A    between atoms: C_23  and  C_24
REMARK    8  A    between atoms: C_24  and  N_25
REMARK    9  A    between atoms: C_24  and  C_35
REMARK   10  A    between atoms: C_29  and  C_32
REMARK   11  A    between atoms: C_35  and  O_36
REMARK                            x       y       z     vdW  Elec       q    Type
REMARK                         _______ _______ _______ _____ _____    ______ ____
ROOT
ATOM      1  N   UNL     1      34.816 -16.151 -22.731  0.00  0.00    -0.286 N 
ATOM      2  C   UNL     1      34.286 -14.972 -23.204  0.00  0.00    +0.053 C 
ATOM      3  C   UNL     1      33.934 -15.187 -24.538  0.00  0.00    +0.015 C 
ATOM      4  C   UNL     1      34.811 -17.101 -23.716  0.00  0.00    +0.065 C 
ATOM      5  C   UNL     1      34.271 -16.535 -24.847  0.00  0.00    +0.017 C 
ATOM      6  C   UNL     1      34.092 -13.745 -22.559  0.00  0.00    +0.029 C 
ATOM      7  C   UNL     1      33.361 -14.126 -25.268  0.00  0.00    +0.003 C 
ATOM      8  C   UNL     1      33.522 -12.707 -23.303  0.00  0.00    +0.052 C 
ATOM      9  C   UNL     1      33.161 -12.893 -24.636  0.00  0.00    +0.015 C 
ENDROOT
BRANCH   8  11
ATOM     10  O   UNL     1      31.141 -11.650 -21.802  0.00  0.00    -0.275 OA
ATOM     11  N   UNL     1      33.310 -11.467 -22.698  0.00  0.00    -0.284 N 
ATOM     12  C   UNL     1      32.182 -11.028 -21.995  0.00  0.00    +0.226 C 
ATOM     13  H   UNL     1      34.048 -10.819 -22.776  0.00  0.00    +0.155 HD
BRANCH  12  14
ATOM     14  C   UNL     1      32.332  -9.604 -21.483  0.00  0.00    +0.090 C 
BRANCH  14  15
ATOM     15  C   UNL     1      31.695  -8.591 -22.435  0.00  0.00    +0.036 C 
BRANCH  15  16
ATOM     16  C   UNL     1      32.682  -7.599 -23.002  0.00  0.00    -0.022 C 
ATOM     17  C   UNL     1      34.048  -7.772 -22.784  0.00  0.00    -0.004 C 
ATOM     18  C   UNL     1      32.226  -6.510 -23.745  0.00  0.00    -0.004 C 
ATOM     19  C   UNL     1      34.960  -6.855 -23.307  0.00  0.00    -0.000 C 
ATOM     20  C   UNL     1      33.138  -5.593 -24.269  0.00  0.00    -0.000 C 
ATOM     21  C   UNL     1      34.505  -5.766 -24.050  0.00  0.00    -0.000 C 
ENDBRANCH  15  16
ENDBRANCH  14  15
ENDBRANCH  12  14
ENDBRANCH   8  11
BRANCH   1  22
ATOM     22  C   UNL     1      35.312 -16.371 -21.389  0.00  0.00    +0.097 C 
BRANCH  22  23
ATOM     23  C   UNL     1      35.013 -17.766 -20.825  0.00  0.00    +0.040 C 
BRANCH  23  24
ATOM     24  C   UNL     1      36.253 -18.654 -20.576  0.00  0.00    +0.091 C 
BRANCH  24  25
ATOM     25  N   UNL     1      35.942 -19.924 -19.900  0.00  0.00    -0.246 NA
ATOM     26  N   UNL     1      36.085 -21.790 -18.703  0.00  0.00    -0.251 NA
ATOM     27  C   UNL     1      34.736 -20.580 -19.901  0.00  0.00    +0.125 C 
ATOM     28  C   UNL     1      36.732 -20.679 -19.170  0.00  0.00    +0.201 C 
ATOM     29  C   UNL     1      34.800 -21.740 -19.165  0.00  0.00    +0.124 C 
BRANCH  29  32
ATOM     30  O   UNL     1      33.888 -23.920 -19.217  0.00  0.00    -0.269 OA
ATOM     31  N   UNL     1      32.627 -22.287 -18.249  0.00  0.00    -0.324 N 
ATOM     32  C   UNL     1      33.788 -22.708 -18.907  0.00  0.00    +0.257 C 
ATOM     33  H   UNL     1      31.909 -22.932 -18.055  0.00  0.00    +0.145 HD
ATOM     34  H   UNL     1      32.527 -21.345 -17.979  0.00  0.00    +0.145 HD
ENDBRANCH  29  32
ENDBRANCH  24  25
BRANCH  24  35
ATOM     35  C   UNL     1      37.004 -18.916 -21.893  0.00  0.00    +0.153 C 
BRANCH  35  36
ATOM     36  O   UNL     1      38.321 -18.386 -21.807  0.00  0.00    -0.381 OA
ATOM     37  H   UNL     1      38.290 -17.422 -21.915  0.00  0.00    +0.210 HD
ENDBRANCH  35  36
ENDBRANCH  24  35
ENDBRANCH  23  24
ENDBRANCH  22  23
ENDBRANCH   1  22
TORSDOF 11
ENDMDL
