MODEL 1
REMARK VINA RESULT:     -11.7      0.000      0.000
REMARK  Name = 118598754
REMARK  1 active torsions:
REMARK  status: ('A' for Active; 'I' for Inactive)
REMARK    1  A    between atoms: C_15  and  N_19
REMARK                            x       y       z     vdW  Elec       q    Type
REMARK                         _______ _______ _______ _____ _____    ______ ____
ROOT
ATOM      1  O   UNL     1      31.995 -24.671 -12.595  0.00  0.00    -0.269 OA
ATOM      2  O   UNL     1      36.611 -23.326 -15.904  0.00  0.00    -0.268 OA
ATOM      3  N   UNL     1      34.773 -23.862 -14.589  0.00  0.00    -0.238 N 
ATOM      4  N   UNL     1      34.333 -24.713 -12.501  0.00  0.00    -0.288 N 
ATOM      5  C   UNL     1      35.452 -24.362 -13.366  0.00  0.00    +0.124 C 
ATOM      6  C   UNL     1      36.295 -25.617 -13.665  0.00  0.00    +0.038 C 
ATOM      7  C   UNL     1      36.299 -23.257 -12.703  0.00  0.00    +0.038 C 
ATOM      8  C   UNL     1      37.079 -23.766 -11.489  0.00  0.00    +0.003 C 
ATOM      9  C   UNL     1      37.076 -26.104 -12.444  0.00  0.00    +0.003 C 
ATOM     10  C   UNL     1      37.920 -24.991 -11.833  0.00  0.00    +0.000 C 
ATOM     11  C   UNL     1      33.399 -23.926 -14.429  0.00  0.00    +0.105 C 
ATOM     12  C   UNL     1      33.094 -24.474 -13.081  0.00  0.00    +0.260 C 
ATOM     13  C   UNL     1      35.394 -23.394 -15.740  0.00  0.00    +0.267 C 
ATOM     14  C   UNL     1      32.555 -23.532 -15.393  0.00  0.00    -0.002 C 
ATOM     15  C   UNL     1      34.462 -22.946 -16.836  0.00  0.00    +0.104 C 
ATOM     16  C   UNL     1      33.137 -23.030 -16.627  0.00  0.00    +0.016 C 
ATOM     17  C   UNL     1      31.057 -23.548 -15.348  0.00  0.00    +0.033 C 
ATOM     18  H   UNL     1      34.443 -25.083 -11.595  0.00  0.00    +0.151 HD
ENDROOT
BRANCH  15  19
ATOM     19  N   UNL     1      35.047 -22.482 -17.978  0.00  0.00    -0.298 N 
ATOM     20  N   UNL     1      33.171 -21.667 -19.168  0.00  0.00    -0.233 NA
ATOM     21  N   UNL     1      33.474 -19.972 -20.855  0.00  0.00    -0.234 NA
ATOM     22  C   UNL     1      34.503 -21.636 -18.951  0.00  0.00    +0.113 C 
ATOM     23  C   UNL     1      35.372 -20.812 -19.636  0.00  0.00    +0.121 C 
ATOM     24  C   UNL     1      34.796 -19.993 -20.586  0.00  0.00    +0.107 C 
ATOM     25  C   UNL     1      32.730 -20.821 -20.120  0.00  0.00    +0.252 C 
ATOM     26  H   UNL     1      35.971 -22.780 -18.138  0.00  0.00    +0.153 HD
ATOM     27  N   UNL     1      35.656 -19.135 -21.313  0.00  0.00    -0.346 N 
ATOM     28  H   UNL     1      35.287 -18.534 -22.000  0.00  0.00    +0.143 HD
ATOM     29  H   UNL     1      36.624 -19.137 -21.131  0.00  0.00    +0.143 HD
ENDBRANCH  15  19
TORSDOF 1
ENDMDL
MODEL 2
REMARK VINA RESULT:      -9.9      2.739      4.965
REMARK  Name = 118598754
REMARK  1 active torsions:
REMARK  status: ('A' for Active; 'I' for Inactive)
REMARK    1  A    between atoms: C_15  and  N_19
REMARK                            x       y       z     vdW  Elec       q    Type
REMARK                         _______ _______ _______ _____ _____    ______ ____
ROOT
ATOM      1  O   UNL     1      38.413 -22.154 -16.162  0.00  0.00    -0.269 OA
ATOM      2  O   UNL     1      33.594 -24.779 -14.175  0.00  0.00    -0.268 OA
ATOM      3  N   UNL     1      35.510 -23.733 -14.967  0.00  0.00    -0.238 N 
ATOM      4  N   UNL     1      37.708 -23.461 -14.354  0.00  0.00    -0.288 N 
ATOM      5  C   UNL     1      36.478 -24.098 -13.900  0.00  0.00    +0.124 C 
ATOM      6  C   UNL     1      36.058 -23.513 -12.538  0.00  0.00    +0.038 C 
ATOM      7  C   UNL     1      36.678 -25.624 -13.823  0.00  0.00    +0.038 C 
ATOM      8  C   UNL     1      37.603 -26.037 -12.676  0.00  0.00    +0.003 C 
ATOM      9  C   UNL     1      36.988 -23.944 -11.403  0.00  0.00    +0.003 C 
ATOM     10  C   UNL     1      37.140 -25.461 -11.343  0.00  0.00    +0.000 C 
ATOM     11  C   UNL     1      36.136 -22.962 -15.932  0.00  0.00    +0.105 C 
ATOM     12  C   UNL     1      37.561 -22.774 -15.553  0.00  0.00    +0.260 C 
ATOM     13  C   UNL     1      34.170 -24.095 -15.018  0.00  0.00    +0.267 C 
ATOM     14  C   UNL     1      35.478 -22.500 -17.005  0.00  0.00    -0.002 C 
ATOM     15  C   UNL     1      33.413 -23.585 -16.217  0.00  0.00    +0.104 C 
ATOM     16  C   UNL     1      34.070 -22.840 -17.123  0.00  0.00    +0.016 C 
ATOM     17  C   UNL     1      36.033 -21.661 -18.116  0.00  0.00    +0.033 C 
ATOM     18  H   UNL     1      38.559 -23.511 -13.861  0.00  0.00    +0.151 HD
ENDROOT
BRANCH  15  19
ATOM     19  N   UNL     1      32.094 -23.926 -16.293  0.00  0.00    -0.298 N 
ATOM     20  N   UNL     1      31.191 -22.714 -14.472  0.00  0.00    -0.233 NA
ATOM     21  N   UNL     1      28.850 -22.138 -14.468  0.00  0.00    -0.234 NA
ATOM     22  C   UNL     1      31.002 -23.316 -15.665  0.00  0.00    +0.113 C 
ATOM     23  C   UNL     1      29.785 -23.371 -16.312  0.00  0.00    +0.121 C 
ATOM     24  C   UNL     1      28.733 -22.758 -15.660  0.00  0.00    +0.107 C 
ATOM     25  C   UNL     1      30.088 -22.153 -13.938  0.00  0.00    +0.252 C 
ATOM     26  H   UNL     1      31.883 -24.700 -16.863  0.00  0.00    +0.153 HD
ATOM     27  N   UNL     1      27.466 -22.794 -16.291  0.00  0.00    -0.346 N 
ATOM     28  H   UNL     1      26.689 -22.369 -15.861  0.00  0.00    +0.143 HD
ATOM     29  H   UNL     1      27.361 -23.243 -17.162  0.00  0.00    +0.143 HD
ENDBRANCH  15  19
TORSDOF 1
ENDMDL
MODEL 3
REMARK VINA RESULT:      -9.8      2.754      6.587
REMARK  Name = 118598754
REMARK  1 active torsions:
REMARK  status: ('A' for Active; 'I' for Inactive)
REMARK    1  A    between atoms: C_15  and  N_19
REMARK                            x       y       z     vdW  Elec       q    Type
REMARK                         _______ _______ _______ _____ _____    ______ ____
ROOT
ATOM      1  O   UNL     1      32.327 -21.754 -18.815  0.00  0.00    -0.269 OA
ATOM      2  O   UNL     1      34.140 -24.199 -13.835  0.00  0.00    -0.268 OA
ATOM      3  N   UNL     1      33.420 -23.227 -15.818  0.00  0.00    -0.238 N 
ATOM      4  N   UNL     1      31.445 -22.748 -16.890  0.00  0.00    -0.288 N 
ATOM      5  C   UNL     1      31.948 -23.350 -15.661  0.00  0.00    +0.124 C 
ATOM      6  C   UNL     1      31.513 -24.827 -15.586  0.00  0.00    +0.038 C 
ATOM      7  C   UNL     1      31.445 -22.551 -14.443  0.00  0.00    +0.038 C 
ATOM      8  C   UNL     1      29.944 -22.729 -14.205  0.00  0.00    +0.003 C 
ATOM      9  C   UNL     1      30.012 -24.985 -15.338  0.00  0.00    +0.003 C 
ATOM     10  C   UNL     1      29.558 -24.201 -14.110  0.00  0.00    +0.000 C 
ATOM     11  C   UNL     1      33.719 -22.613 -17.022  0.00  0.00    +0.105 C 
ATOM     12  C   UNL     1      32.452 -22.295 -17.731  0.00  0.00    +0.260 C 
ATOM     13  C   UNL     1      34.381 -23.654 -14.910  0.00  0.00    +0.267 C 
ATOM     14  C   UNL     1      34.983 -22.384 -17.405  0.00  0.00    -0.002 C 
ATOM     15  C   UNL     1      35.809 -23.406 -15.322  0.00  0.00    +0.104 C 
ATOM     16  C   UNL     1      36.042 -22.806 -16.503  0.00  0.00    +0.016 C 
ATOM     17  C   UNL     1      35.442 -21.732 -18.675  0.00  0.00    +0.033 C 
ATOM     18  H   UNL     1      30.486 -22.670 -17.102  0.00  0.00    +0.151 HD
ENDROOT
BRANCH  15  19
ATOM     19  N   UNL     1      36.773 -23.816 -14.449  0.00  0.00    -0.298 N 
ATOM     20  N   UNL     1      36.953 -26.112 -14.992  0.00  0.00    -0.233 NA
ATOM     21  N   UNL     1      38.989 -27.300 -14.489  0.00  0.00    -0.234 NA
ATOM     22  C   UNL     1      37.515 -25.002 -14.468  0.00  0.00    +0.113 C 
ATOM     23  C   UNL     1      38.790 -24.964 -13.943  0.00  0.00    +0.121 C 
ATOM     24  C   UNL     1      39.488 -26.154 -13.980  0.00  0.00    +0.107 C 
ATOM     25  C   UNL     1      37.735 -27.209 -14.971  0.00  0.00    +0.252 C 
ATOM     26  H   UNL     1      36.974 -23.197 -13.711  0.00  0.00    +0.153 HD
ATOM     27  N   UNL     1      40.801 -26.156 -13.448  0.00  0.00    -0.346 N 
ATOM     28  H   UNL     1      41.334 -26.984 -13.455  0.00  0.00    +0.143 HD
ATOM     29  H   UNL     1      41.182 -25.329 -13.072  0.00  0.00    +0.143 HD
ENDBRANCH  15  19
TORSDOF 1
ENDMDL
MODEL 4
REMARK VINA RESULT:      -9.7     11.159     15.566
REMARK  Name = 118598754
REMARK  1 active torsions:
REMARK  status: ('A' for Active; 'I' for Inactive)
REMARK    1  A    between atoms: C_15  and  N_19
REMARK                            x       y       z     vdW  Elec       q    Type
REMARK                         _______ _______ _______ _____ _____    ______ ____
ROOT
ATOM      1  O   UNL     1      31.649  -7.879 -19.709  0.00  0.00    -0.269 OA
ATOM      2  O   UNL     1      33.694 -10.125 -24.692  0.00  0.00    -0.268 OA
ATOM      3  N   UNL     1      32.881  -9.233 -22.708  0.00  0.00    -0.238 N 
ATOM      4  N   UNL     1      32.505  -7.170 -21.768  0.00  0.00    -0.288 N 
ATOM      5  C   UNL     1      33.008  -7.781 -22.993  0.00  0.00    +0.124 C 
ATOM      6  C   UNL     1      34.479  -7.377 -23.211  0.00  0.00    +0.038 C 
ATOM      7  C   UNL     1      32.125  -7.363 -24.185  0.00  0.00    +0.038 C 
ATOM      8  C   UNL     1      32.300  -5.889 -24.557  0.00  0.00    +0.003 C 
ATOM      9  C   UNL     1      34.634  -5.904 -23.592  0.00  0.00    +0.003 C 
ATOM     10  C   UNL     1      33.765  -5.537 -24.791  0.00  0.00    +0.000 C 
ATOM     11  C   UNL     1      32.356  -9.424 -21.441  0.00  0.00    +0.105 C 
ATOM     12  C   UNL     1      32.105  -8.099 -20.816  0.00  0.00    +0.260 C 
ATOM     13  C   UNL     1      33.229 -10.270 -23.564  0.00  0.00    +0.267 C 
ATOM     14  C   UNL     1      32.143 -10.650 -20.941  0.00  0.00    -0.002 C 
ATOM     15  C   UNL     1      32.997 -11.656 -23.020  0.00  0.00    +0.104 C 
ATOM     16  C   UNL     1      32.485 -11.784 -21.783  0.00  0.00    +0.016 C 
ATOM     17  C   UNL     1      31.584 -10.994 -19.593  0.00  0.00    +0.033 C 
ATOM     18  H   UNL     1      32.453  -6.197 -21.629  0.00  0.00    +0.151 HD
ENDROOT
BRANCH  15  19
ATOM     19  N   UNL     1      33.331 -12.695 -23.840  0.00  0.00    -0.298 N 
ATOM     20  N   UNL     1      34.587 -14.065 -22.376  0.00  0.00    -0.233 NA
ATOM     21  N   UNL     1      34.792 -16.422 -22.833  0.00  0.00    -0.234 NA
ATOM     22  C   UNL     1      33.831 -13.953 -23.489  0.00  0.00    +0.113 C 
ATOM     23  C   UNL     1      33.518 -15.015 -24.312  0.00  0.00    +0.121 C 
ATOM     24  C   UNL     1      34.031 -16.238 -23.931  0.00  0.00    +0.107 C 
ATOM     25  C   UNL     1      35.028 -15.310 -22.111  0.00  0.00    +0.252 C 
ATOM     26  H   UNL     1      33.201 -12.538 -24.803  0.00  0.00    +0.153 HD
ATOM     27  N   UNL     1      33.733 -17.353 -24.753  0.00  0.00    -0.346 N 
ATOM     28  H   UNL     1      34.079 -18.245 -24.517  0.00  0.00    +0.143 HD
ATOM     29  H   UNL     1      33.179 -17.238 -25.559  0.00  0.00    +0.143 HD
ENDBRANCH  15  19
TORSDOF 1
ENDMDL
MODEL 5
REMARK VINA RESULT:      -8.8      3.901      5.349
REMARK  Name = 118598754
REMARK  1 active torsions:
REMARK  status: ('A' for Active; 'I' for Inactive)
REMARK    1  A    between atoms: C_15  and  N_19
REMARK                            x       y       z     vdW  Elec       q    Type
REMARK                         _______ _______ _______ _____ _____    ______ ____
ROOT
ATOM      1  O   UNL     1      37.937 -25.051 -10.259  0.00  0.00    -0.269 OA
ATOM      2  O   UNL     1      35.755 -24.792 -15.666  0.00  0.00    -0.268 OA
ATOM      3  N   UNL     1      36.621 -24.896 -13.514  0.00  0.00    -0.238 N 
ATOM      4  N   UNL     1      38.575 -25.498 -12.465  0.00  0.00    -0.288 N 
ATOM      5  C   UNL     1      37.984 -25.415 -13.796  0.00  0.00    +0.124 C 
ATOM      6  C   UNL     1      37.930 -26.818 -14.431  0.00  0.00    +0.038 C 
ATOM      7  C   UNL     1      38.791 -24.431 -14.665  0.00  0.00    +0.038 C 
ATOM      8  C   UNL     1      40.169 -24.977 -15.044  0.00  0.00    +0.003 C 
ATOM      9  C   UNL     1      39.315 -27.343 -14.813  0.00  0.00    +0.003 C 
ATOM     10  C   UNL     1      40.070 -26.353 -15.694  0.00  0.00    +0.000 C 
ATOM     11  C   UNL     1      36.458 -24.704 -12.152  0.00  0.00    +0.105 C 
ATOM     12  C   UNL     1      37.714 -25.088 -11.455  0.00  0.00    +0.260 C 
ATOM     13  C   UNL     1      35.633 -24.631 -14.453  0.00  0.00    +0.267 C 
ATOM     14  C   UNL     1      35.312 -24.240 -11.635  0.00  0.00    -0.002 C 
ATOM     15  C   UNL     1      34.336 -24.110 -13.892  0.00  0.00    +0.104 C 
ATOM     16  C   UNL     1      34.233 -23.943 -12.562  0.00  0.00    +0.016 C 
ATOM     17  C   UNL     1      35.006 -23.988 -10.189  0.00  0.00    +0.033 C 
ATOM     18  H   UNL     1      39.493 -25.812 -12.298  0.00  0.00    +0.151 HD
ENDROOT
BRANCH  15  19
ATOM     19  N   UNL     1      33.347 -23.842 -14.793  0.00  0.00    -0.298 N 
ATOM     20  N   UNL     1      31.574 -25.165 -13.953  0.00  0.00    -0.233 NA
ATOM     21  N   UNL     1      29.297 -24.585 -14.491  0.00  0.00    -0.234 NA
ATOM     22  C   UNL     1      31.977 -24.103 -14.684  0.00  0.00    +0.113 C 
ATOM     23  C   UNL     1      31.112 -23.250 -15.338  0.00  0.00    +0.121 C 
ATOM     24  C   UNL     1      29.770 -23.543 -15.205  0.00  0.00    +0.107 C 
ATOM     25  C   UNL     1      30.240 -25.344 -13.900  0.00  0.00    +0.252 C 
ATOM     26  H   UNL     1      33.635 -23.408 -15.629  0.00  0.00    +0.153 HD
ATOM     27  N   UNL     1      28.850 -22.692 -15.865  0.00  0.00    -0.346 N 
ATOM     28  H   UNL     1      27.883 -22.863 -15.796  0.00  0.00    +0.143 HD
ATOM     29  H   UNL     1      29.176 -21.926 -16.391  0.00  0.00    +0.143 HD
ENDBRANCH  15  19
TORSDOF 1
ENDMDL
MODEL 6
REMARK VINA RESULT:      -8.7     11.530     16.369
REMARK  Name = 118598754
REMARK  1 active torsions:
REMARK  status: ('A' for Active; 'I' for Inactive)
REMARK    1  A    between atoms: C_15  and  N_19
REMARK                            x       y       z     vdW  Elec       q    Type
REMARK                         _______ _______ _______ _____ _____    ______ ____
ROOT
ATOM      1  O   UNL     1      34.854  -6.172 -25.137  0.00  0.00    -0.269 OA
ATOM      2  O   UNL     1      32.319 -10.126 -21.672  0.00  0.00    -0.268 OA
ATOM      3  N   UNL     1      33.328  -8.554 -23.052  0.00  0.00    -0.238 N 
ATOM      4  N   UNL     1      33.335  -6.277 -23.360  0.00  0.00    -0.288 N 
ATOM      5  C   UNL     1      32.729  -7.303 -22.520  0.00  0.00    +0.124 C 
ATOM      6  C   UNL     1      31.199  -7.291 -22.704  0.00  0.00    +0.038 C 
ATOM      7  C   UNL     1      33.122  -7.074 -21.048  0.00  0.00    +0.038 C 
ATOM      8  C   UNL     1      32.450  -5.838 -20.447  0.00  0.00    +0.003 C 
ATOM      9  C   UNL     1      30.543  -6.054 -22.089  0.00  0.00    +0.003 C 
ATOM     10  C   UNL     1      30.937  -5.877 -20.625  0.00  0.00    +0.000 C 
ATOM     11  C   UNL     1      34.191  -8.261 -24.094  0.00  0.00    +0.105 C 
ATOM     12  C   UNL     1      34.211  -6.790 -24.309  0.00  0.00    +0.260 C 
ATOM     13  C   UNL     1      33.079  -9.842 -22.595  0.00  0.00    +0.267 C 
ATOM     14  C   UNL     1      34.862  -9.220 -24.749  0.00  0.00    -0.002 C 
ATOM     15  C   UNL     1      33.823 -10.935 -23.318  0.00  0.00    +0.104 C 
ATOM     16  C   UNL     1      34.649 -10.593 -24.323  0.00  0.00    +0.016 C 
ATOM     17  C   UNL     1      35.821  -9.040 -25.887  0.00  0.00    +0.033 C 
ATOM     18  H   UNL     1      33.145  -5.316 -23.264  0.00  0.00    +0.151 HD
ENDROOT
BRANCH  15  19
ATOM     19  N   UNL     1      33.597 -12.210 -22.890  0.00  0.00    -0.298 N 
ATOM     20  N   UNL     1      33.442 -13.376 -24.943  0.00  0.00    -0.233 NA
ATOM     21  N   UNL     1      33.890 -15.743 -25.006  0.00  0.00    -0.234 NA
ATOM     22  C   UNL     1      33.694 -13.402 -23.617  0.00  0.00    +0.113 C 
ATOM     23  C   UNL     1      34.044 -14.543 -22.925  0.00  0.00    +0.121 C 
ATOM     24  C   UNL     1      34.128 -15.696 -23.679  0.00  0.00    +0.107 C 
ATOM     25  C   UNL     1      33.557 -14.565 -25.567  0.00  0.00    +0.252 C 
ATOM     26  H   UNL     1      33.333 -12.304 -21.946  0.00  0.00    +0.153 HD
ATOM     27  N   UNL     1      34.482 -16.890 -23.005  0.00  0.00    -0.346 N 
ATOM     28  H   UNL     1      34.554 -17.736 -23.504  0.00  0.00    +0.143 HD
ATOM     29  H   UNL     1      34.659 -16.875 -22.036  0.00  0.00    +0.143 HD
ENDBRANCH  15  19
TORSDOF 1
ENDMDL
