MODEL 1
REMARK VINA RESULT:     -11.5      0.000      0.000
REMARK  Name = 448890
REMARK  6 active torsions:
REMARK  status: ('A' for Active; 'I' for Inactive)
REMARK    1  A    between atoms: C_1  and  C_2
REMARK    2  A    between atoms: C_1  and  C_17
REMARK    3  A    between atoms: C_2  and  C_3
REMARK    4  A    between atoms: C_3  and  N_4
REMARK    5  A    between atoms: C_8  and  C_11
REMARK    6  A    between atoms: C_17  and  N_21
REMARK                            x       y       z     vdW  Elec       q    Type
REMARK                         _______ _______ _______ _____ _____    ______ ____
ROOT
ATOM      1  C   UNL     1      36.821 -22.076 -15.325  0.00  0.00    +0.022 C 
ENDROOT
BRANCH   1   2
ATOM      2  C   UNL     1      37.235 -21.342 -16.605  0.00  0.00    -0.021 C 
BRANCH   2   3
ATOM      3  C   UNL     1      36.530 -21.927 -17.827  0.00  0.00    -0.077 C 
BRANCH   3   4
ATOM      4  N   UNL     1      36.132 -20.858 -18.742  0.00  0.00    +0.390 N 
ATOM      5  C   UNL     1      37.225 -20.512 -19.656  0.00  0.00    -0.072 C 
ATOM      6  C   UNL     1      34.927 -21.238 -19.495  0.00  0.00    -0.051 C 
ATOM      7  C   UNL     1      36.838 -19.280 -20.489  0.00  0.00    +0.003 C 
ATOM      8  C   UNL     1      35.458 -19.389 -21.098  0.00  0.00    -0.031 C 
ATOM      9  C   UNL     1      34.589 -20.303 -20.624  0.00  0.00    -0.053 C 
ATOM     10  H   UNL     1      35.916 -20.032 -18.184  0.00  0.00    -0.079 HD
BRANCH   8  11
ATOM     11  C   UNL     1      35.103 -18.469 -22.205  0.00  0.00    -0.004 C 
ATOM     12  C   UNL     1      34.449 -18.956 -23.338  0.00  0.00    -0.000 C 
ATOM     13  C   UNL     1      35.421 -17.112 -22.117  0.00  0.00    -0.000 C 
ATOM     14  C   UNL     1      34.114 -18.090 -24.379  0.00  0.00    -0.000 C 
ATOM     15  C   UNL     1      35.087 -16.246 -23.159  0.00  0.00    -0.000 C 
ATOM     16  C   UNL     1      34.433 -16.735 -24.290  0.00  0.00    -0.000 C 
ENDBRANCH   8  11
ENDBRANCH   3   4
ENDBRANCH   2   3
ENDBRANCH   1   2
BRANCH   1  17
ATOM     17  C   UNL     1      36.292 -23.481 -15.600  0.00  0.00    +0.110 C 
BRANCH  17  21
ATOM     18  F   UNL     1      30.319 -23.932 -14.246  0.00  0.00    -0.204 F 
ATOM     19  O   UNL     1      36.451 -24.591 -13.018  0.00  0.00    -0.246 OA
ATOM     20  O   UNL     1      31.914 -24.736 -12.453  0.00  0.00    -0.267 OA
ATOM     21  N   UNL     1      35.133 -23.810 -14.774  0.00  0.00    -0.281 N 
ATOM     22  N   UNL     1      34.186 -24.647 -12.775  0.00  0.00    -0.274 N 
ATOM     23  C   UNL     1      33.820 -23.562 -15.284  0.00  0.00    +0.071 A 
ATOM     24  C   UNL     1      35.339 -24.360 -13.502  0.00  0.00    +0.330 A 
ATOM     25  C   UNL     1      32.697 -23.871 -14.507  0.00  0.00    +0.099 A 
ATOM     26  C   UNL     1      33.608 -23.011 -16.559  0.00  0.00    +0.018 C 
ATOM     27  C   UNL     1      32.872 -24.451 -13.164  0.00  0.00    +0.265 A 
ATOM     28  C   UNL     1      31.400 -23.639 -14.984  0.00  0.00    +0.146 C 
ATOM     29  C   UNL     1      32.315 -22.778 -17.036  0.00  0.00    +0.004 C 
ATOM     30  C   UNL     1      31.212 -23.091 -16.250  0.00  0.00    +0.030 C 
ATOM     31  H   UNL     1      34.321 -25.034 -11.880  0.00  0.00    +0.173 HD
ENDBRANCH  17  21
ENDBRANCH   1  17
TORSDOF 6
ENDMDL
MODEL 2
REMARK VINA RESULT:     -11.5      6.697     11.344
REMARK  Name = 448890
REMARK  6 active torsions:
REMARK  status: ('A' for Active; 'I' for Inactive)
REMARK    1  A    between atoms: C_1  and  C_2
REMARK    2  A    between atoms: C_1  and  C_17
REMARK    3  A    between atoms: C_2  and  C_3
REMARK    4  A    between atoms: C_3  and  N_4
REMARK    5  A    between atoms: C_8  and  C_11
REMARK    6  A    between atoms: C_17  and  N_21
REMARK                            x       y       z     vdW  Elec       q    Type
REMARK                         _______ _______ _______ _____ _____    ______ ____
ROOT
ATOM      1  C   UNL     1      33.480 -14.376 -24.270  0.00  0.00    +0.022 C 
ENDROOT
BRANCH   1   2
ATOM      2  C   UNL     1      33.789 -15.873 -24.376  0.00  0.00    -0.021 C 
BRANCH   2   3
ATOM      3  C   UNL     1      35.272 -16.148 -24.129  0.00  0.00    -0.077 C 
BRANCH   3   4
ATOM      4  N   UNL     1      35.432 -17.262 -23.197  0.00  0.00    +0.390 N 
ATOM      5  C   UNL     1      35.306 -16.810 -21.807  0.00  0.00    -0.072 C 
ATOM      6  C   UNL     1      34.459 -18.326 -23.485  0.00  0.00    -0.051 C 
ATOM      7  C   UNL     1      35.644 -17.964 -20.851  0.00  0.00    +0.003 C 
ATOM      8  C   UNL     1      34.936 -19.252 -21.208  0.00  0.00    -0.031 C 
ATOM      9  C   UNL     1      34.393 -19.399 -22.432  0.00  0.00    -0.053 C 
ATOM     10  H   UNL     1      36.371 -17.641 -23.320  0.00  0.00    -0.079 HD
BRANCH   8  11
ATOM     11  C   UNL     1      34.869 -20.324 -20.187  0.00  0.00    -0.004 C 
ATOM     12  C   UNL     1      36.042 -20.823 -19.616  0.00  0.00    -0.000 C 
ATOM     13  C   UNL     1      33.633 -20.840 -19.791  0.00  0.00    -0.000 C 
ATOM     14  C   UNL     1      35.979 -21.832 -18.654  0.00  0.00    -0.000 C 
ATOM     15  C   UNL     1      33.570 -21.849 -18.830  0.00  0.00    -0.000 C 
ATOM     16  C   UNL     1      34.743 -22.345 -18.261  0.00  0.00    -0.000 C 
ENDBRANCH   8  11
ENDBRANCH   3   4
ENDBRANCH   2   3
ENDBRANCH   1   2
BRANCH   1  17
ATOM     17  C   UNL     1      34.231 -13.702 -23.125  0.00  0.00    +0.110 C 
BRANCH  17  21
ATOM     18  F   UNL     1      31.278  -8.488 -21.784  0.00  0.00    -0.204 F 
ATOM     19  O   UNL     1      32.977 -14.447 -20.717  0.00  0.00    -0.246 OA
ATOM     20  O   UNL     1      30.969 -10.379 -20.130  0.00  0.00    -0.267 OA
ATOM     21  N   UNL     1      33.371 -12.820 -22.339  0.00  0.00    -0.281 N 
ATOM     22  N   UNL     1      31.995 -12.407 -20.461  0.00  0.00    -0.274 N 
ATOM     23  C   UNL     1      33.134 -11.487 -22.797  0.00  0.00    +0.071 A 
ATOM     24  C   UNL     1      32.802 -13.306 -21.154  0.00  0.00    +0.330 A 
ATOM     25  C   UNL     1      32.312 -10.628 -22.058  0.00  0.00    +0.099 A 
ATOM     26  C   UNL     1      33.702 -10.996 -23.985  0.00  0.00    +0.018 C 
ATOM     27  C   UNL     1      31.695 -11.100 -20.806  0.00  0.00    +0.265 A 
ATOM     28  C   UNL     1      32.063  -9.317 -22.486  0.00  0.00    +0.146 C 
ATOM     29  C   UNL     1      33.455  -9.689 -24.414  0.00  0.00    +0.004 C 
ATOM     30  C   UNL     1      32.636  -8.849 -23.665  0.00  0.00    +0.030 C 
ATOM     31  H   UNL     1      31.590 -12.739 -19.627  0.00  0.00    +0.173 HD
ENDBRANCH  17  21
ENDBRANCH   1  17
TORSDOF 6
ENDMDL
MODEL 3
REMARK VINA RESULT:     -11.4      2.368      3.929
REMARK  Name = 448890
REMARK  6 active torsions:
REMARK  status: ('A' for Active; 'I' for Inactive)
REMARK    1  A    between atoms: C_1  and  C_2
REMARK    2  A    between atoms: C_1  and  C_17
REMARK    3  A    between atoms: C_2  and  C_3
REMARK    4  A    between atoms: C_3  and  N_4
REMARK    5  A    between atoms: C_8  and  C_11
REMARK    6  A    between atoms: C_17  and  N_21
REMARK                            x       y       z     vdW  Elec       q    Type
REMARK                         _______ _______ _______ _____ _____    ______ ____
ROOT
ATOM      1  C   UNL     1      33.910 -23.621 -15.786  0.00  0.00    +0.022 C 
ENDROOT
BRANCH   1   2
ATOM      2  C   UNL     1      33.865 -22.881 -17.128  0.00  0.00    -0.021 C 
BRANCH   2   3
ATOM      3  C   UNL     1      35.265 -22.457 -17.569  0.00  0.00    -0.077 C 
BRANCH   3   4
ATOM      4  N   UNL     1      35.184 -21.338 -18.506  0.00  0.00    +0.390 N 
ATOM      5  C   UNL     1      36.334 -21.327 -19.416  0.00  0.00    -0.072 C 
ATOM      6  C   UNL     1      33.924 -21.384 -19.263  0.00  0.00    -0.051 C 
ATOM      7  C   UNL     1      36.307 -20.052 -20.273  0.00  0.00    +0.003 C 
ATOM      8  C   UNL     1      34.954 -19.786 -20.893  0.00  0.00    -0.031 C 
ATOM      9  C   UNL     1      33.863 -20.413 -20.412  0.00  0.00    -0.053 C 
ATOM     10  H   UNL     1      35.203 -20.474 -17.965  0.00  0.00    -0.079 HD
BRANCH   8  11
ATOM     11  C   UNL     1      34.873 -18.825 -22.019  0.00  0.00    -0.004 C 
ATOM     12  C   UNL     1      35.387 -17.535 -21.879  0.00  0.00    -0.000 C 
ATOM     13  C   UNL     1      34.282 -19.208 -23.226  0.00  0.00    -0.000 C 
ATOM     14  C   UNL     1      35.311 -16.631 -22.939  0.00  0.00    -0.000 C 
ATOM     15  C   UNL     1      34.206 -18.305 -24.286  0.00  0.00    -0.000 C 
ATOM     16  C   UNL     1      34.720 -17.016 -24.143  0.00  0.00    -0.000 C 
ENDBRANCH   8  11
ENDBRANCH   3   4
ENDBRANCH   2   3
ENDBRANCH   1   2
BRANCH   1  17
ATOM     17  C   UNL     1      34.734 -22.882 -14.736  0.00  0.00    +0.110 C 
BRANCH  17  21
ATOM     18  F   UNL     1      39.346 -26.247 -12.474  0.00  0.00    -0.204 F 
ATOM     19  O   UNL     1      33.476 -23.992 -12.475  0.00  0.00    -0.246 OA
ATOM     20  O   UNL     1      37.180 -26.335 -11.167  0.00  0.00    -0.267 OA
ATOM     21  N   UNL     1      35.385 -23.793 -13.798  0.00  0.00    -0.281 N 
ATOM     22  N   UNL     1      35.342 -25.144 -11.857  0.00  0.00    -0.274 N 
ATOM     23  C   UNL     1      36.748 -24.163 -14.017  0.00  0.00    +0.071 A 
ATOM     24  C   UNL     1      34.653 -24.281 -12.706  0.00  0.00    +0.330 A 
ATOM     25  C   UNL     1      37.389 -25.035 -13.128  0.00  0.00    +0.099 A 
ATOM     26  C   UNL     1      37.486 -23.676 -15.109  0.00  0.00    +0.018 C 
ATOM     27  C   UNL     1      36.654 -25.570 -11.968  0.00  0.00    +0.265 A 
ATOM     28  C   UNL     1      38.725 -25.412 -13.320  0.00  0.00    +0.146 C 
ATOM     29  C   UNL     1      38.818 -24.052 -15.303  0.00  0.00    +0.004 C 
ATOM     30  C   UNL     1      39.437 -24.919 -14.409  0.00  0.00    +0.030 C 
ATOM     31  H   UNL     1      34.836 -25.492 -11.087  0.00  0.00    +0.173 HD
ENDBRANCH  17  21
ENDBRANCH   1  17
TORSDOF 6
ENDMDL
MODEL 4
REMARK VINA RESULT:     -11.4      7.791     12.208
REMARK  Name = 448890
REMARK  6 active torsions:
REMARK  status: ('A' for Active; 'I' for Inactive)
REMARK    1  A    between atoms: C_1  and  C_2
REMARK    2  A    between atoms: C_1  and  C_17
REMARK    3  A    between atoms: C_2  and  C_3
REMARK    4  A    between atoms: C_3  and  N_4
REMARK    5  A    between atoms: C_8  and  C_11
REMARK    6  A    between atoms: C_17  and  N_21
REMARK                            x       y       z     vdW  Elec       q    Type
REMARK                         _______ _______ _______ _____ _____    ______ ____
ROOT
ATOM      1  C   UNL     1      34.201 -13.760 -23.471  0.00  0.00    +0.022 C 
ENDROOT
BRANCH   1   2
ATOM      2  C   UNL     1      33.829 -15.223 -23.732  0.00  0.00    -0.021 C 
BRANCH   2   3
ATOM      3  C   UNL     1      35.043 -16.024 -24.200  0.00  0.00    -0.077 C 
BRANCH   3   4
ATOM      4  N   UNL     1      35.322 -17.113 -23.265  0.00  0.00    +0.390 N 
ATOM      5  C   UNL     1      35.152 -16.675 -21.877  0.00  0.00    -0.072 C 
ATOM      6  C   UNL     1      34.468 -18.276 -23.551  0.00  0.00    -0.051 C 
ATOM      7  C   UNL     1      35.611 -17.785 -20.919  0.00  0.00    +0.003 C 
ATOM      8  C   UNL     1      35.043 -19.141 -21.273  0.00  0.00    -0.031 C 
ATOM      9  C   UNL     1      34.517 -19.348 -22.496  0.00  0.00    -0.053 C 
ATOM     10  H   UNL     1      36.296 -17.391 -23.390  0.00  0.00    -0.079 HD
BRANCH   8  11
ATOM     11  C   UNL     1      35.092 -20.213 -20.250  0.00  0.00    -0.004 C 
ATOM     12  C   UNL     1      36.317 -20.617 -19.716  0.00  0.00    -0.000 C 
ATOM     13  C   UNL     1      33.912 -20.822 -19.815  0.00  0.00    -0.000 C 
ATOM     14  C   UNL     1      36.363 -21.625 -18.753  0.00  0.00    -0.000 C 
ATOM     15  C   UNL     1      33.958 -21.830 -18.853  0.00  0.00    -0.000 C 
ATOM     16  C   UNL     1      35.184 -22.232 -18.321  0.00  0.00    -0.000 C 
ENDBRANCH   8  11
ENDBRANCH   3   4
ENDBRANCH   2   3
ENDBRANCH   1   2
BRANCH   1  17
ATOM     17  C   UNL     1      33.456 -12.793 -24.387  0.00  0.00    +0.110 C 
BRANCH  17  21
ATOM     18  F   UNL     1      32.083  -8.143 -20.618  0.00  0.00    -0.204 F 
ATOM     19  O   UNL     1      34.920 -10.719 -25.604  0.00  0.00    -0.246 OA
ATOM     20  O   UNL     1      33.626  -7.575 -22.543  0.00  0.00    -0.267 OA
ATOM     21  N   UNL     1      33.497 -11.418 -23.896  0.00  0.00    -0.281 N 
ATOM     22  N   UNL     1      34.252  -9.182 -24.059  0.00  0.00    -0.274 N 
ATOM     23  C   UNL     1      32.754 -11.074 -22.724  0.00  0.00    +0.071 A 
ATOM     24  C   UNL     1      34.264 -10.471 -24.588  0.00  0.00    +0.330 A 
ATOM     25  C   UNL     1      32.782  -9.761 -22.237  0.00  0.00    +0.099 A 
ATOM     26  C   UNL     1      31.984 -12.019 -22.025  0.00  0.00    +0.018 C 
ATOM     27  C   UNL     1      33.575  -8.736 -22.937  0.00  0.00    +0.265 A 
ATOM     28  C   UNL     1      32.063  -9.398 -21.090  0.00  0.00    +0.146 C 
ATOM     29  C   UNL     1      31.267 -11.660 -20.881  0.00  0.00    +0.004 C 
ATOM     30  C   UNL     1      31.306 -10.350 -20.413  0.00  0.00    +0.030 C 
ATOM     31  H   UNL     1      34.788  -8.510 -24.539  0.00  0.00    +0.173 HD
ENDBRANCH  17  21
ENDBRANCH   1  17
TORSDOF 6
ENDMDL
MODEL 5
REMARK VINA RESULT:     -11.2      4.166      7.077
REMARK  Name = 448890
REMARK  6 active torsions:
REMARK  status: ('A' for Active; 'I' for Inactive)
REMARK    1  A    between atoms: C_1  and  C_2
REMARK    2  A    between atoms: C_1  and  C_17
REMARK    3  A    between atoms: C_2  and  C_3
REMARK    4  A    between atoms: C_3  and  N_4
REMARK    5  A    between atoms: C_8  and  C_11
REMARK    6  A    between atoms: C_17  and  N_21
REMARK                            x       y       z     vdW  Elec       q    Type
REMARK                         _______ _______ _______ _____ _____    ______ ____
ROOT
ATOM      1  C   UNL     1      34.941 -19.344 -22.997  0.00  0.00    +0.022 C 
ENDROOT
BRANCH   1   2
ATOM      2  C   UNL     1      34.181 -18.504 -24.030  0.00  0.00    -0.021 C 
BRANCH   2   3
ATOM      3  C   UNL     1      34.896 -17.180 -24.296  0.00  0.00    -0.077 C 
BRANCH   3   4
ATOM      4  N   UNL     1      34.134 -16.070 -23.727  0.00  0.00    +0.390 N 
ATOM      5  C   UNL     1      34.877 -15.421 -22.642  0.00  0.00    -0.072 C 
ATOM      6  C   UNL     1      33.779 -15.095 -24.768  0.00  0.00    -0.051 C 
ATOM      7  C   UNL     1      33.988 -14.372 -21.957  0.00  0.00    +0.003 C 
ATOM      8  C   UNL     1      33.290 -13.458 -22.938  0.00  0.00    -0.031 C 
ATOM      9  C   UNL     1      33.205 -13.809 -24.235  0.00  0.00    -0.053 C 
ATOM     10  H   UNL     1      33.273 -16.450 -23.334  0.00  0.00    -0.079 HD
BRANCH   8  11
ATOM     11  C   UNL     1      32.709 -12.192 -22.429  0.00  0.00    -0.004 C 
ATOM     12  C   UNL     1      31.906 -12.197 -21.288  0.00  0.00    -0.000 C 
ATOM     13  C   UNL     1      32.966 -10.988 -23.091  0.00  0.00    -0.000 C 
ATOM     14  C   UNL     1      31.360 -11.006 -20.809  0.00  0.00    -0.000 C 
ATOM     15  C   UNL     1      32.420  -9.797 -22.612  0.00  0.00    -0.000 C 
ATOM     16  C   UNL     1      31.617  -9.805 -21.472  0.00  0.00    -0.000 C 
ENDBRANCH   8  11
ENDBRANCH   3   4
ENDBRANCH   2   3
ENDBRANCH   1   2
BRANCH   1  17
ATOM     17  C   UNL     1      34.936 -18.710 -21.609  0.00  0.00    +0.110 C 
BRANCH  17  21
ATOM     18  F   UNL     1      34.850 -23.026 -17.241  0.00  0.00    -0.204 F 
ATOM     19  O   UNL     1      37.671 -18.800 -20.945  0.00  0.00    -0.246 OA
ATOM     20  O   UNL     1      37.122 -22.043 -17.766  0.00  0.00    -0.267 OA
ATOM     21  N   UNL     1      35.507 -19.592 -20.594  0.00  0.00    -0.281 N 
ATOM     22  N   UNL     1      37.356 -20.416 -19.369  0.00  0.00    -0.274 N 
ATOM     23  C   UNL     1      34.646 -20.477 -19.874  0.00  0.00    +0.071 A 
ATOM     24  C   UNL     1      36.887 -19.546 -20.352  0.00  0.00    +0.330 A 
ATOM     25  C   UNL     1      35.175 -21.329 -18.897  0.00  0.00    +0.099 A 
ATOM     26  C   UNL     1      33.262 -20.527 -20.113  0.00  0.00    +0.018 C 
ATOM     27  C   UNL     1      36.620 -21.311 -18.613  0.00  0.00    +0.265 A 
ATOM     28  C   UNL     1      34.351 -22.207 -18.178  0.00  0.00    +0.146 C 
ATOM     29  C   UNL     1      32.439 -21.400 -19.397  0.00  0.00    +0.004 C 
ATOM     30  C   UNL     1      32.983 -22.240 -18.430  0.00  0.00    +0.030 C 
ATOM     31  H   UNL     1      38.325 -20.391 -19.193  0.00  0.00    +0.173 HD
ENDBRANCH  17  21
ENDBRANCH   1  17
TORSDOF 6
ENDMDL
MODEL 6
REMARK VINA RESULT:     -11.1      2.877      4.699
REMARK  Name = 448890
REMARK  6 active torsions:
REMARK  status: ('A' for Active; 'I' for Inactive)
REMARK    1  A    between atoms: C_1  and  C_2
REMARK    2  A    between atoms: C_1  and  C_17
REMARK    3  A    between atoms: C_2  and  C_3
REMARK    4  A    between atoms: C_3  and  N_4
REMARK    5  A    between atoms: C_8  and  C_11
REMARK    6  A    between atoms: C_17  and  N_21
REMARK                            x       y       z     vdW  Elec       q    Type
REMARK                         _______ _______ _______ _____ _____    ______ ____
ROOT
ATOM      1  C   UNL     1      34.166 -23.559 -15.315  0.00  0.00    +0.022 C 
ENDROOT
BRANCH   1   2
ATOM      2  C   UNL     1      33.383 -22.847 -16.423  0.00  0.00    -0.021 C 
BRANCH   2   3
ATOM      3  C   UNL     1      33.467 -23.620 -17.739  0.00  0.00    -0.077 C 
BRANCH   3   4
ATOM      4  N   UNL     1      33.702 -22.701 -18.851  0.00  0.00    +0.390 N 
ATOM      5  C   UNL     1      32.814 -21.537 -18.771  0.00  0.00    -0.072 C 
ATOM      6  C   UNL     1      35.110 -22.278 -18.889  0.00  0.00    -0.051 C 
ATOM      7  C   UNL     1      32.965 -20.678 -20.036  0.00  0.00    +0.003 C 
ATOM      8  C   UNL     1      34.408 -20.401 -20.392  0.00  0.00    -0.031 C 
ATOM      9  C   UNL     1      35.387 -21.152 -19.850  0.00  0.00    -0.053 C 
ATOM     10  H   UNL     1      33.491 -23.197 -19.718  0.00  0.00    -0.079 HD
BRANCH   8  11
ATOM     11  C   UNL     1      34.701 -19.304 -21.345  0.00  0.00    -0.004 C 
ATOM     12  C   UNL     1      34.298 -19.406 -22.678  0.00  0.00    -0.000 C 
ATOM     13  C   UNL     1      35.379 -18.162 -20.911  0.00  0.00    -0.000 C 
ATOM     14  C   UNL     1      34.573 -18.373 -23.574  0.00  0.00    -0.000 C 
ATOM     15  C   UNL     1      35.653 -17.129 -21.807  0.00  0.00    -0.000 C 
ATOM     16  C   UNL     1      35.251 -17.234 -23.139  0.00  0.00    -0.000 C 
ENDBRANCH   8  11
ENDBRANCH   3   4
ENDBRANCH   2   3
ENDBRANCH   1   2
BRANCH   1  17
ATOM     17  C   UNL     1      35.215 -22.661 -14.668  0.00  0.00    +0.110 C 
BRANCH  17  21
ATOM     18  F   UNL     1      39.845 -26.268 -12.860  0.00  0.00    -0.204 F 
ATOM     19  O   UNL     1      37.145 -22.004 -16.610  0.00  0.00    -0.246 OA
ATOM     20  O   UNL     1      40.298 -24.843 -14.902  0.00  0.00    -0.267 OA
ATOM     21  N   UNL     1      36.555 -23.240 -14.724  0.00  0.00    -0.281 N 
ATOM     22  N   UNL     1      38.688 -23.429 -15.728  0.00  0.00    -0.274 N 
ATOM     23  C   UNL     1      36.940 -24.205 -13.742  0.00  0.00    +0.071 A 
ATOM     24  C   UNL     1      37.429 -22.833 -15.741  0.00  0.00    +0.330 A 
ATOM     25  C   UNL     1      38.220 -24.772 -13.781  0.00  0.00    +0.099 A 
ATOM     26  C   UNL     1      36.067 -24.617 -12.721  0.00  0.00    +0.018 C 
ATOM     27  C   UNL     1      39.169 -24.370 -14.834  0.00  0.00    +0.265 A 
ATOM     28  C   UNL     1      38.621 -25.721 -12.830  0.00  0.00    +0.146 C 
ATOM     29  C   UNL     1      36.465 -25.563 -11.772  0.00  0.00    +0.004 C 
ATOM     30  C   UNL     1      37.741 -26.114 -11.826  0.00  0.00    +0.030 C 
ATOM     31  H   UNL     1      39.309 -23.149 -16.440  0.00  0.00    +0.173 HD
ENDBRANCH  17  21
ENDBRANCH   1  17
TORSDOF 6
ENDMDL
MODEL 7
REMARK VINA RESULT:     -10.9      3.300      5.419
REMARK  Name = 448890
REMARK  6 active torsions:
REMARK  status: ('A' for Active; 'I' for Inactive)
REMARK    1  A    between atoms: C_1  and  C_2
REMARK    2  A    between atoms: C_1  and  C_17
REMARK    3  A    between atoms: C_2  and  C_3
REMARK    4  A    between atoms: C_3  and  N_4
REMARK    5  A    between atoms: C_8  and  C_11
REMARK    6  A    between atoms: C_17  and  N_21
REMARK                            x       y       z     vdW  Elec       q    Type
REMARK                         _______ _______ _______ _____ _____    ______ ____
ROOT
ATOM      1  C   UNL     1      34.634 -19.693 -20.599  0.00  0.00    +0.022 C 
ENDROOT
BRANCH   1   2
ATOM      2  C   UNL     1      34.928 -19.433 -22.080  0.00  0.00    -0.021 C 
BRANCH   2   3
ATOM      3  C   UNL     1      36.156 -18.538 -22.247  0.00  0.00    -0.077 C 
BRANCH   3   4
ATOM      4  N   UNL     1      35.750 -17.139 -22.372  0.00  0.00    +0.390 N 
ATOM      5  C   UNL     1      34.760 -16.970 -23.440  0.00  0.00    -0.072 C 
ATOM      6  C   UNL     1      35.226 -16.633 -21.094  0.00  0.00    -0.051 C 
ATOM      7  C   UNL     1      34.478 -15.475 -23.658  0.00  0.00    +0.003 C 
ATOM      8  C   UNL     1      34.214 -14.730 -22.369  0.00  0.00    -0.031 C 
ATOM      9  C   UNL     1      34.566 -15.284 -21.192  0.00  0.00    -0.053 C 
ATOM     10  H   UNL     1      36.575 -16.594 -22.620  0.00  0.00    -0.079 HD
BRANCH   8  11
ATOM     11  C   UNL     1      33.574 -13.395 -22.447  0.00  0.00    -0.004 C 
ATOM     12  C   UNL     1      32.594 -13.032 -21.521  0.00  0.00    -0.000 C 
ATOM     13  C   UNL     1      33.950 -12.495 -23.446  0.00  0.00    -0.000 C 
ATOM     14  C   UNL     1      31.993 -11.776 -21.593  0.00  0.00    -0.000 C 
ATOM     15  C   UNL     1      33.348 -11.238 -23.519  0.00  0.00    -0.000 C 
ATOM     16  C   UNL     1      32.369 -10.879 -22.593  0.00  0.00    -0.000 C 
ENDBRANCH   8  11
ENDBRANCH   3   4
ENDBRANCH   2   3
ENDBRANCH   1   2
BRANCH   1  17
ATOM     17  C   UNL     1      35.387 -20.904 -20.055  0.00  0.00    +0.110 C 
BRANCH  17  21
ATOM     18  F   UNL     1      34.657 -23.772 -14.675  0.00  0.00    -0.204 F 
ATOM     19  O   UNL     1      32.624 -21.438 -20.147  0.00  0.00    -0.246 OA
ATOM     20  O   UNL     1      32.561 -23.508 -16.069  0.00  0.00    -0.267 OA
ATOM     21  N   UNL     1      34.647 -21.592 -19.000  0.00  0.00    -0.281 N 
ATOM     22  N   UNL     1      32.634 -22.462 -18.112  0.00  0.00    -0.274 N 
ATOM     23  C   UNL     1      35.344 -22.035 -17.834  0.00  0.00    +0.071 A 
ATOM     24  C   UNL     1      33.270 -21.800 -19.160  0.00  0.00    +0.330 A 
ATOM     25  C   UNL     1      34.652 -22.695 -16.812  0.00  0.00    +0.099 A 
ATOM     26  C   UNL     1      36.724 -21.828 -17.668  0.00  0.00    +0.018 C 
ATOM     27  C   UNL     1      33.204 -22.934 -16.942  0.00  0.00    +0.265 A 
ATOM     28  C   UNL     1      35.312 -23.139 -15.657  0.00  0.00    +0.146 C 
ATOM     29  C   UNL     1      37.385 -22.270 -16.518  0.00  0.00    +0.004 C 
ATOM     30  C   UNL     1      36.680 -22.925 -15.514  0.00  0.00    +0.030 C 
ATOM     31  H   UNL     1      31.666 -22.613 -18.216  0.00  0.00    +0.173 HD
ENDBRANCH  17  21
ENDBRANCH   1  17
TORSDOF 6
ENDMDL
MODEL 8
REMARK VINA RESULT:     -10.6      1.868      3.236
REMARK  Name = 448890
REMARK  6 active torsions:
REMARK  status: ('A' for Active; 'I' for Inactive)
REMARK    1  A    between atoms: C_1  and  C_2
REMARK    2  A    between atoms: C_1  and  C_17
REMARK    3  A    between atoms: C_2  and  C_3
REMARK    4  A    between atoms: C_3  and  N_4
REMARK    5  A    between atoms: C_8  and  C_11
REMARK    6  A    between atoms: C_17  and  N_21
REMARK                            x       y       z     vdW  Elec       q    Type
REMARK                         _______ _______ _______ _____ _____    ______ ____
ROOT
ATOM      1  C   UNL     1      37.335 -21.634 -15.735  0.00  0.00    +0.022 C 
ENDROOT
BRANCH   1   2
ATOM      2  C   UNL     1      37.572 -21.016 -17.118  0.00  0.00    -0.021 C 
BRANCH   2   3
ATOM      3  C   UNL     1      36.591 -21.578 -18.146  0.00  0.00    -0.077 C 
BRANCH   3   4
ATOM      4  N   UNL     1      36.138 -20.518 -19.045  0.00  0.00    +0.390 N 
ATOM      5  C   UNL     1      37.225 -20.063 -19.917  0.00  0.00    -0.072 C 
ATOM      6  C   UNL     1      34.987 -20.967 -19.842  0.00  0.00    -0.051 C 
ATOM      7  C   UNL     1      36.767 -18.842 -20.728  0.00  0.00    +0.003 C 
ATOM      8  C   UNL     1      35.417 -19.039 -21.380  0.00  0.00    -0.031 C 
ATOM      9  C   UNL     1      34.608 -20.030 -20.957  0.00  0.00    -0.053 C 
ATOM     10  H   UNL     1      35.843 -19.726 -18.472  0.00  0.00    -0.079 HD
BRANCH   8  11
ATOM     11  C   UNL     1      35.022 -18.119 -22.473  0.00  0.00    -0.004 C 
ATOM     12  C   UNL     1      35.282 -16.751 -22.367  0.00  0.00    -0.000 C 
ATOM     13  C   UNL     1      34.390 -18.617 -23.615  0.00  0.00    -0.000 C 
ATOM     14  C   UNL     1      34.910 -15.885 -23.395  0.00  0.00    -0.000 C 
ATOM     15  C   UNL     1      34.018 -17.751 -24.644  0.00  0.00    -0.000 C 
ATOM     16  C   UNL     1      34.278 -16.385 -24.534  0.00  0.00    -0.000 C 
ENDBRANCH   8  11
ENDBRANCH   3   4
ENDBRANCH   2   3
ENDBRANCH   1   2
BRANCH   1  17
ATOM     17  C   UNL     1      37.073 -23.136 -15.802  0.00  0.00    +0.110 C 
BRANCH  17  21
ATOM     18  F   UNL     1      34.779 -25.021 -10.427  0.00  0.00    -0.204 F 
ATOM     19  O   UNL     1      34.348 -23.355 -16.474  0.00  0.00    -0.246 OA
ATOM     20  O   UNL     1      33.097 -24.739 -12.297  0.00  0.00    -0.267 OA
ATOM     21  N   UNL     1      36.028 -23.560 -14.873  0.00  0.00    -0.281 N 
ATOM     22  N   UNL     1      33.765 -24.042 -14.381  0.00  0.00    -0.274 N 
ATOM     23  C   UNL     1      36.383 -23.892 -13.528  0.00  0.00    +0.071 A 
ATOM     24  C   UNL     1      34.704 -23.630 -15.325  0.00  0.00    +0.330 A 
ATOM     25  C   UNL     1      35.396 -24.299 -12.623  0.00  0.00    +0.099 A 
ATOM     26  C   UNL     1      37.710 -23.823 -13.069  0.00  0.00    +0.018 C 
ATOM     27  C   UNL     1      33.991 -24.386 -13.060  0.00  0.00    +0.265 A 
ATOM     28  C   UNL     1      35.718 -24.629 -11.299  0.00  0.00    +0.146 C 
ATOM     29  C   UNL     1      38.033 -24.152 -11.750  0.00  0.00    +0.004 C 
ATOM     30  C   UNL     1      37.038 -24.555 -10.866  0.00  0.00    +0.030 C 
ATOM     31  H   UNL     1      32.831 -24.094 -14.690  0.00  0.00    +0.173 HD
ENDBRANCH  17  21
ENDBRANCH   1  17
TORSDOF 6
ENDMDL
MODEL 9
REMARK VINA RESULT:     -10.6      8.845     13.173
REMARK  Name = 448890
REMARK  6 active torsions:
REMARK  status: ('A' for Active; 'I' for Inactive)
REMARK    1  A    between atoms: C_1  and  C_2
REMARK    2  A    between atoms: C_1  and  C_17
REMARK    3  A    between atoms: C_2  and  C_3
REMARK    4  A    between atoms: C_3  and  N_4
REMARK    5  A    between atoms: C_8  and  C_11
REMARK    6  A    between atoms: C_17  and  N_21
REMARK                            x       y       z     vdW  Elec       q    Type
REMARK                         _______ _______ _______ _____ _____    ______ ____
ROOT
ATOM      1  C   UNL     1      32.709 -11.318 -22.715  0.00  0.00    +0.022 C 
ENDROOT
BRANCH   1   2
ATOM      2  C   UNL     1      32.865 -12.836 -22.574  0.00  0.00    -0.021 C 
BRANCH   2   3
ATOM      3  C   UNL     1      33.995 -13.358 -23.461  0.00  0.00    -0.077 C 
BRANCH   3   4
ATOM      4  N   UNL     1      34.641 -14.509 -22.833  0.00  0.00    +0.390 N 
ATOM      5  C   UNL     1      34.083 -14.768 -21.503  0.00  0.00    -0.072 C 
ATOM      6  C   UNL     1      34.524 -15.701 -23.686  0.00  0.00    -0.051 C 
ATOM      7  C   UNL     1      34.891 -15.871 -20.803  0.00  0.00    +0.003 C 
ATOM      8  C   UNL     1      35.125 -17.079 -21.683  0.00  0.00    -0.031 C 
ATOM      9  C   UNL     1      34.948 -16.980 -23.015  0.00  0.00    -0.053 C 
ATOM     10  H   UNL     1      35.631 -14.290 -22.721  0.00  0.00    -0.079 HD
BRANCH   8  11
ATOM     11  C   UNL     1      35.553 -18.345 -21.041  0.00  0.00    -0.004 C 
ATOM     12  C   UNL     1      36.892 -18.539 -20.699  0.00  0.00    -0.000 C 
ATOM     13  C   UNL     1      34.617 -19.347 -20.776  0.00  0.00    -0.000 C 
ATOM     14  C   UNL     1      37.295 -19.730 -20.095  0.00  0.00    -0.000 C 
ATOM     15  C   UNL     1      35.020 -20.538 -20.172  0.00  0.00    -0.000 C 
ATOM     16  C   UNL     1      36.359 -20.730 -19.831  0.00  0.00    -0.000 C 
ENDBRANCH   8  11
ENDBRANCH   3   4
ENDBRANCH   2   3
ENDBRANCH   1   2
BRANCH   1  17
ATOM     17  C   UNL     1      31.509 -10.778 -21.944  0.00  0.00    +0.110 C 
BRANCH  17  21
ATOM     18  F   UNL     1      32.655  -4.825 -20.963  0.00  0.00    -0.204 F 
ATOM     19  O   UNL     1      31.996 -10.816 -19.172  0.00  0.00    -0.246 OA
ATOM     20  O   UNL     1      32.774  -6.316 -18.921  0.00  0.00    -0.267 OA
ATOM     21  N   UNL     1      31.842  -9.597 -21.152  0.00  0.00    -0.281 N 
ATOM     22  N   UNL     1      32.377  -8.571 -19.089  0.00  0.00    -0.274 N 
ATOM     23  C   UNL     1      31.935  -8.326 -21.799  0.00  0.00    +0.071 A 
ATOM     24  C   UNL     1      32.063  -9.742 -19.776  0.00  0.00    +0.330 A 
ATOM     25  C   UNL     1      32.254  -7.182 -21.056  0.00  0.00    +0.099 A 
ATOM     26  C   UNL     1      31.714  -8.174 -23.179  0.00  0.00    +0.018 C 
ATOM     27  C   UNL     1      32.494  -7.293 -19.607  0.00  0.00    +0.265 A 
ATOM     28  C   UNL     1      32.350  -5.924 -21.667  0.00  0.00    +0.146 C 
ATOM     29  C   UNL     1      31.810  -6.921 -23.790  0.00  0.00    +0.004 C 
ATOM     30  C   UNL     1      32.128  -5.797 -23.035  0.00  0.00    +0.030 C 
ATOM     31  H   UNL     1      32.534  -8.664 -18.121  0.00  0.00    +0.173 HD
ENDBRANCH  17  21
ENDBRANCH   1  17
TORSDOF 6
ENDMDL
