MODEL 1
REMARK VINA RESULT:     -11.8      0.000      0.000
REMARK  Name = 4566
REMARK  6 active torsions:
REMARK  status: ('A' for Active; 'I' for Inactive)
REMARK    1  A    between atoms: N_4  and  C_14
REMARK    2  A    between atoms: C_6  and  O_26
REMARK    3  A    between atoms: C_15  and  S_20
REMARK    4  A    between atoms: S_20  and  N_23
REMARK    5  A    between atoms: O_26  and  C_27
REMARK    6  A    between atoms: C_27  and  C_28
REMARK                            x       y       z     vdW  Elec       q    Type
REMARK                         _______ _______ _______ _____ _____    ______ ____
ROOT
ATOM      1  N   UNL     1      34.043 -23.915 -15.655  0.00  0.00    -0.293 NA
ATOM      2  N   UNL     1      30.667 -22.750 -16.535  0.00  0.00    -0.266 NA
ATOM      3  N   UNL     1      32.371 -24.305 -13.922  0.00  0.00    -0.316 NA
ATOM      4  N   UNL     1      34.601 -24.946 -13.628  0.00  0.00    -0.238 N 
ATOM      5  N   UNL     1      30.143 -23.530 -14.514  0.00  0.00    -0.296 N 
ATOM      6  C   UNL     1      33.128 -23.343 -16.469  0.00  0.00    +0.288 C 
ATOM      7  C   UNL     1      31.829 -23.247 -16.016  0.00  0.00    +0.215 C 
ATOM      8  C   UNL     1      31.477 -23.726 -14.761  0.00  0.00    +0.196 C 
ATOM      9  C   UNL     1      33.613 -24.354 -14.448  0.00  0.00    +0.207 C 
ATOM     10  C   UNL     1      29.685 -22.942 -15.598  0.00  0.00    +0.164 C 
ATOM     11  H   UNL     1      30.555 -22.331 -17.419  0.00  0.00    +0.126 HD
ATOM     12  H   UNL     1      34.259 -25.257 -12.758  0.00  0.00    +0.166 HD
ATOM     13  H   UNL     1      29.639 -23.776 -13.704  0.00  0.00    +0.150 HD
ENDROOT
BRANCH   4  14
ATOM     14  C   UNL     1      35.975 -25.178 -13.812  0.00  0.00    +0.059 C 
ATOM     15  C   UNL     1      38.706 -25.640 -14.180  0.00  0.00    +0.122 C 
ATOM     16  C   UNL     1      36.915 -24.303 -13.264  0.00  0.00    +0.017 C 
ATOM     17  C   UNL     1      36.407 -26.287 -14.546  0.00  0.00    +0.017 C 
ATOM     18  C   UNL     1      38.279 -24.533 -13.447  0.00  0.00    +0.021 C 
ATOM     19  C   UNL     1      37.771 -26.516 -14.729  0.00  0.00    +0.021 C 
BRANCH  15  20
ATOM     20  S   UNL     1      40.413 -25.928 -14.410  0.00  0.00    +0.057 S 
ATOM     21  O   UNL     1      41.087 -24.641 -14.509  0.00  0.00    -0.153 OA
ATOM     22  O   UNL     1      40.854 -26.902 -13.420  0.00  0.00    -0.153 OA
BRANCH  20  23
ATOM     23  N   UNL     1      40.414 -26.672 -15.947  0.00  0.00    -0.203 NA
ATOM     24  H   UNL     1      40.600 -25.971 -16.665  0.00  0.00    +0.144 HD
ATOM     25  H   UNL     1      39.503 -27.099 -16.119  0.00  0.00    +0.144 HD
ENDBRANCH  20  23
ENDBRANCH  15  20
ENDBRANCH   4  14
BRANCH   6  26
ATOM     26  O   UNL     1      33.532 -22.886 -17.699  0.00  0.00    -0.453 OA
BRANCH  26  27
ATOM     27  C   UNL     1      34.897 -22.543 -17.843  0.00  0.00    +0.208 C 
BRANCH  27  28
ATOM     28  C   UNL     1      35.073 -21.795 -19.163  0.00  0.00    +0.044 C 
ATOM     29  C   UNL     1      33.822 -20.969 -19.490  0.00  0.00    +0.004 C 
ATOM     30  C   UNL     1      36.321 -20.903 -19.119  0.00  0.00    +0.004 C 
ATOM     31  C   UNL     1      33.993 -20.169 -20.779  0.00  0.00    +0.000 C 
ATOM     32  C   UNL     1      36.488 -20.104 -20.410  0.00  0.00    +0.000 C 
ATOM     33  C   UNL     1      35.239 -19.290 -20.734  0.00  0.00    +0.000 C 
ENDBRANCH  27  28
ENDBRANCH  26  27
ENDBRANCH   6  26
TORSDOF 6
ENDMDL
MODEL 2
REMARK VINA RESULT:     -11.4      1.641      2.233
REMARK  Name = 4566
REMARK  6 active torsions:
REMARK  status: ('A' for Active; 'I' for Inactive)
REMARK    1  A    between atoms: N_4  and  C_14
REMARK    2  A    between atoms: C_6  and  O_26
REMARK    3  A    between atoms: C_15  and  S_20
REMARK    4  A    between atoms: S_20  and  N_23
REMARK    5  A    between atoms: O_26  and  C_27
REMARK    6  A    between atoms: C_27  and  C_28
REMARK                            x       y       z     vdW  Elec       q    Type
REMARK                         _______ _______ _______ _____ _____    ______ ____
ROOT
ATOM      1  N   UNL     1      32.290 -23.427 -15.333  0.00  0.00    -0.293 NA
ATOM      2  N   UNL     1      29.012 -22.633 -16.799  0.00  0.00    -0.266 NA
ATOM      3  N   UNL     1      30.404 -23.843 -13.842  0.00  0.00    -0.316 NA
ATOM      4  N   UNL     1      32.605 -24.259 -13.167  0.00  0.00    -0.238 N 
ATOM      5  N   UNL     1      28.242 -23.314 -14.821  0.00  0.00    -0.296 N 
ATOM      6  C   UNL     1      31.472 -22.997 -16.319  0.00  0.00    +0.288 C 
ATOM      7  C   UNL     1      30.114 -22.987 -16.073  0.00  0.00    +0.215 C 
ATOM      8  C   UNL     1      29.610 -23.407 -14.850  0.00  0.00    +0.196 C 
ATOM      9  C   UNL     1      31.713 -23.817 -14.171  0.00  0.00    +0.207 C 
ATOM     10  C   UNL     1      27.914 -22.846 -16.006  0.00  0.00    +0.164 C 
ATOM     11  H   UNL     1      29.006 -22.288 -17.721  0.00  0.00    +0.126 HD
ATOM     12  H   UNL     1      32.158 -24.538 -12.335  0.00  0.00    +0.166 HD
ATOM     13  H   UNL     1      27.639 -23.547 -14.078  0.00  0.00    +0.150 HD
ENDROOT
BRANCH   4  14
ATOM     14  C   UNL     1      34.005 -24.380 -13.124  0.00  0.00    +0.059 C 
ATOM     15  C   UNL     1      36.787 -24.620 -13.036  0.00  0.00    +0.122 C 
ATOM     16  C   UNL     1      34.688 -25.008 -14.168  0.00  0.00    +0.017 C 
ATOM     17  C   UNL     1      34.720 -23.873 -12.035  0.00  0.00    +0.017 C 
ATOM     18  C   UNL     1      36.077 -25.128 -14.125  0.00  0.00    +0.021 C 
ATOM     19  C   UNL     1      36.109 -23.993 -11.993  0.00  0.00    +0.021 C 
BRANCH  15  20
ATOM     20  S   UNL     1      38.526 -24.771 -12.982  0.00  0.00    +0.057 S 
ATOM     21  O   UNL     1      39.061 -24.395 -14.283  0.00  0.00    -0.153 OA
ATOM     22  O   UNL     1      39.010 -24.105 -11.780  0.00  0.00    -0.153 OA
BRANCH  20  23
ATOM     23  N   UNL     1      38.700 -26.459 -12.780  0.00  0.00    -0.203 NA
ATOM     24  H   UNL     1      39.650 -26.668 -12.473  0.00  0.00    +0.144 HD
ATOM     25  H   UNL     1      38.520 -26.928 -13.668  0.00  0.00    +0.144 HD
ENDBRANCH  20  23
ENDBRANCH  15  20
ENDBRANCH   4  14
BRANCH   6  26
ATOM     26  O   UNL     1      32.024 -22.593 -17.509  0.00  0.00    -0.453 OA
BRANCH  26  27
ATOM     27  C   UNL     1      33.385 -22.914 -17.729  0.00  0.00    +0.208 C 
BRANCH  27  28
ATOM     28  C   UNL     1      33.853 -22.196 -18.993  0.00  0.00    +0.044 C 
ATOM     29  C   UNL     1      32.896 -21.053 -19.355  0.00  0.00    +0.004 C 
ATOM     30  C   UNL     1      35.287 -21.675 -18.821  0.00  0.00    +0.004 C 
ATOM     31  C   UNL     1      33.372 -20.285 -20.586  0.00  0.00    +0.000 C 
ATOM     32  C   UNL     1      35.759 -20.906 -20.054  0.00  0.00    +0.000 C 
ATOM     33  C   UNL     1      34.799 -19.776 -20.414  0.00  0.00    +0.000 C 
ENDBRANCH  27  28
ENDBRANCH  26  27
ENDBRANCH   6  26
TORSDOF 6
ENDMDL
MODEL 3
REMARK VINA RESULT:     -11.1      3.468      7.158
REMARK  Name = 4566
REMARK  6 active torsions:
REMARK  status: ('A' for Active; 'I' for Inactive)
REMARK    1  A    between atoms: N_4  and  C_14
REMARK    2  A    between atoms: C_6  and  O_26
REMARK    3  A    between atoms: C_15  and  S_20
REMARK    4  A    between atoms: S_20  and  N_23
REMARK    5  A    between atoms: O_26  and  C_27
REMARK    6  A    between atoms: C_27  and  C_28
REMARK                            x       y       z     vdW  Elec       q    Type
REMARK                         _______ _______ _______ _____ _____    ______ ____
ROOT
ATOM      1  N   UNL     1      34.377 -24.143 -14.133  0.00  0.00    -0.293 NA
ATOM      2  N   UNL     1      37.912 -24.577 -13.213  0.00  0.00    -0.266 NA
ATOM      3  N   UNL     1      34.739 -24.648 -11.773  0.00  0.00    -0.316 NA
ATOM      4  N   UNL     1      32.588 -24.324 -12.633  0.00  0.00    -0.238 N 
ATOM      5  N   UNL     1      37.079 -24.933 -11.176  0.00  0.00    -0.296 N 
ATOM      6  C   UNL     1      35.704 -24.183 -14.389  0.00  0.00    +0.288 C 
ATOM      7  C   UNL     1      36.557 -24.456 -13.340  0.00  0.00    +0.215 C 
ATOM      8  C   UNL     1      36.062 -24.681 -12.062  0.00  0.00    +0.196 C 
ATOM      9  C   UNL     1      33.983 -24.375 -12.858  0.00  0.00    +0.207 C 
ATOM     10  C   UNL     1      38.176 -24.863 -11.899  0.00  0.00    +0.164 C 
ATOM     11  H   UNL     1      38.576 -24.476 -13.932  0.00  0.00    +0.126 HD
ATOM     12  H   UNL     1      32.330 -24.495 -11.698  0.00  0.00    +0.166 HD
ATOM     13  H   UNL     1      37.003 -25.123 -10.213  0.00  0.00    +0.150 HD
ENDROOT
BRANCH   4  14
ATOM     14  C   UNL     1      31.496 -24.075 -13.484  0.00  0.00    +0.059 C 
ATOM     15  C   UNL     1      29.328 -23.580 -15.176  0.00  0.00    +0.122 C 
ATOM     16  C   UNL     1      30.575 -25.088 -13.758  0.00  0.00    +0.017 C 
ATOM     17  C   UNL     1      31.329 -22.813 -14.060  0.00  0.00    +0.017 C 
ATOM     18  C   UNL     1      29.492 -24.842 -14.602  0.00  0.00    +0.021 C 
ATOM     19  C   UNL     1      30.246 -22.567 -14.905  0.00  0.00    +0.021 C 
BRANCH  15  20
ATOM     20  S   UNL     1      27.973 -23.272 -16.233  0.00  0.00    +0.057 S 
ATOM     21  O   UNL     1      28.271 -22.089 -17.028  0.00  0.00    -0.153 OA
ATOM     22  O   UNL     1      27.612 -24.518 -16.896  0.00  0.00    -0.153 OA
BRANCH  20  23
ATOM     23  N   UNL     1      26.757 -22.883 -15.099  0.00  0.00    -0.203 NA
ATOM     24  H   UNL     1      27.172 -22.795 -14.171  0.00  0.00    +0.144 HD
ATOM     25  H   UNL     1      26.054 -23.623 -15.087  0.00  0.00    +0.144 HD
ENDBRANCH  20  23
ENDBRANCH  15  20
ENDBRANCH   4  14
BRANCH   6  26
ATOM     26  O   UNL     1      36.137 -23.954 -15.671  0.00  0.00    -0.453 OA
BRANCH  26  27
ATOM     27  C   UNL     1      36.209 -22.605 -16.095  0.00  0.00    +0.208 C 
BRANCH  27  28
ATOM     28  C   UNL     1      35.653 -22.515 -17.515  0.00  0.00    +0.044 C 
ATOM     29  C   UNL     1      34.128 -22.344 -17.492  0.00  0.00    +0.004 C 
ATOM     30  C   UNL     1      36.321 -21.367 -18.286  0.00  0.00    +0.004 C 
ATOM     31  C   UNL     1      33.555 -22.197 -18.900  0.00  0.00    +0.000 C 
ATOM     32  C   UNL     1      35.744 -21.223 -19.692  0.00  0.00    +0.000 C 
ATOM     33  C   UNL     1      34.227 -21.061 -19.665  0.00  0.00    +0.000 C 
ENDBRANCH  27  28
ENDBRANCH  26  27
ENDBRANCH   6  26
TORSDOF 6
ENDMDL
MODEL 4
REMARK VINA RESULT:     -10.8      2.765      5.526
REMARK  Name = 4566
REMARK  6 active torsions:
REMARK  status: ('A' for Active; 'I' for Inactive)
REMARK    1  A    between atoms: N_4  and  C_14
REMARK    2  A    between atoms: C_6  and  O_26
REMARK    3  A    between atoms: C_15  and  S_20
REMARK    4  A    between atoms: S_20  and  N_23
REMARK    5  A    between atoms: O_26  and  C_27
REMARK    6  A    between atoms: C_27  and  C_28
REMARK                            x       y       z     vdW  Elec       q    Type
REMARK                         _______ _______ _______ _____ _____    ______ ____
ROOT
ATOM      1  N   UNL     1      34.968 -22.295 -17.369  0.00  0.00    -0.293 NA
ATOM      2  N   UNL     1      33.721 -20.720 -20.450  0.00  0.00    -0.266 NA
ATOM      3  N   UNL     1      36.659 -21.042 -18.603  0.00  0.00    -0.316 NA
ATOM      4  N   UNL     1      37.176 -22.146 -16.607  0.00  0.00    -0.238 N 
ATOM      5  N   UNL     1      35.824 -20.006 -20.638  0.00  0.00    -0.296 N 
ATOM      6  C   UNL     1      34.017 -21.993 -18.281  0.00  0.00    +0.288 C 
ATOM      7  C   UNL     1      34.380 -21.215 -19.361  0.00  0.00    +0.215 C 
ATOM      8  C   UNL     1      35.684 -20.757 -19.500  0.00  0.00    +0.196 C 
ATOM      9  C   UNL     1      36.213 -21.807 -17.584  0.00  0.00    +0.207 C 
ATOM     10  C   UNL     1      34.628 -20.003 -21.186  0.00  0.00    +0.164 C 
ATOM     11  H   UNL     1      32.770 -20.853 -20.667  0.00  0.00    +0.126 HD
ATOM     12  H   UNL     1      38.072 -21.777 -16.788  0.00  0.00    +0.166 HD
ATOM     13  H   UNL     1      36.640 -19.566 -20.971  0.00  0.00    +0.150 HD
ENDROOT
BRANCH   4  14
ATOM     14  C   UNL     1      37.107 -22.905 -15.426  0.00  0.00    +0.059 C 
ATOM     15  C   UNL     1      36.972 -24.414 -13.078  0.00  0.00    +0.122 C 
ATOM     16  C   UNL     1      36.063 -22.702 -14.521  0.00  0.00    +0.017 C 
ATOM     17  C   UNL     1      38.084 -23.867 -15.151  0.00  0.00    +0.017 C 
ATOM     18  C   UNL     1      35.995 -23.456 -13.348  0.00  0.00    +0.021 C 
ATOM     19  C   UNL     1      38.015 -24.620 -13.979  0.00  0.00    +0.021 C 
BRANCH  15  20
ATOM     20  S   UNL     1      36.886 -25.357 -11.610  0.00  0.00    +0.057 S 
ATOM     21  O   UNL     1      37.114 -26.755 -11.948  0.00  0.00    -0.153 OA
ATOM     22  O   UNL     1      37.713 -24.712 -10.599  0.00  0.00    -0.153 OA
BRANCH  20  23
ATOM     23  N   UNL     1      35.244 -25.152 -11.186  0.00  0.00    -0.203 NA
ATOM     24  H   UNL     1      34.868 -26.036 -10.844  0.00  0.00    +0.144 HD
ATOM     25  H   UNL     1      34.716 -24.854 -12.007  0.00  0.00    +0.144 HD
ENDBRANCH  20  23
ENDBRANCH  15  20
ENDBRANCH   4  14
BRANCH   6  26
ATOM     26  O   UNL     1      32.744 -22.473 -18.094  0.00  0.00    -0.453 OA
BRANCH  26  27
ATOM     27  C   UNL     1      32.593 -23.568 -17.210  0.00  0.00    +0.208 C 
BRANCH  27  28
ATOM     28  C   UNL     1      31.934 -23.066 -15.926  0.00  0.00    +0.044 C 
ATOM     29  C   UNL     1      30.425 -23.342 -15.946  0.00  0.00    +0.004 C 
ATOM     30  C   UNL     1      32.591 -23.705 -14.695  0.00  0.00    +0.004 C 
ATOM     31  C   UNL     1      29.752 -22.897 -14.649  0.00  0.00    +0.000 C 
ATOM     32  C   UNL     1      31.914 -23.259 -13.400  0.00  0.00    +0.000 C 
ATOM     33  C   UNL     1      30.413 -23.528 -13.428  0.00  0.00    +0.000 C 
ENDBRANCH  27  28
ENDBRANCH  26  27
ENDBRANCH   6  26
TORSDOF 6
ENDMDL
MODEL 5
REMARK VINA RESULT:     -10.8      3.406      7.030
REMARK  Name = 4566
REMARK  6 active torsions:
REMARK  status: ('A' for Active; 'I' for Inactive)
REMARK    1  A    between atoms: N_4  and  C_14
REMARK    2  A    between atoms: C_6  and  O_26
REMARK    3  A    between atoms: C_15  and  S_20
REMARK    4  A    between atoms: S_20  and  N_23
REMARK    5  A    between atoms: O_26  and  C_27
REMARK    6  A    between atoms: C_27  and  C_28
REMARK                            x       y       z     vdW  Elec       q    Type
REMARK                         _______ _______ _______ _____ _____    ______ ____
ROOT
ATOM      1  N   UNL     1      34.466 -23.668 -15.318  0.00  0.00    -0.293 NA
ATOM      2  N   UNL     1      38.129 -23.906 -15.096  0.00  0.00    -0.266 NA
ATOM      3  N   UNL     1      35.271 -24.842 -13.337  0.00  0.00    -0.316 NA
ATOM      4  N   UNL     1      32.984 -24.545 -13.731  0.00  0.00    -0.238 N 
ATOM      5  N   UNL     1      37.694 -24.994 -13.201  0.00  0.00    -0.296 N 
ATOM      6  C   UNL     1      35.727 -23.452 -15.755  0.00  0.00    +0.288 C 
ATOM      7  C   UNL     1      36.768 -23.930 -14.986  0.00  0.00    +0.215 C 
ATOM      8  C   UNL     1      36.522 -24.609 -13.801  0.00  0.00    +0.196 C 
ATOM      9  C   UNL     1      34.318 -24.341 -14.152  0.00  0.00    +0.207 C 
ATOM     10  C   UNL     1      38.640 -24.557 -14.003  0.00  0.00    +0.164 C 
ATOM     11  H   UNL     1      38.649 -23.498 -15.826  0.00  0.00    +0.126 HD
ATOM     12  H   UNL     1      32.908 -25.035 -12.880  0.00  0.00    +0.166 HD
ATOM     13  H   UNL     1      37.802 -25.487 -12.355  0.00  0.00    +0.150 HD
ENDROOT
BRANCH   4  14
ATOM     14  C   UNL     1      31.745 -24.184 -14.290  0.00  0.00    +0.059 C 
ATOM     15  C   UNL     1      29.284 -23.468 -15.402  0.00  0.00    +0.122 C 
ATOM     16  C   UNL     1      30.604 -24.939 -14.013  0.00  0.00    +0.017 C 
ATOM     17  C   UNL     1      31.651 -23.068 -15.126  0.00  0.00    +0.017 C 
ATOM     18  C   UNL     1      29.375 -24.582 -14.567  0.00  0.00    +0.021 C 
ATOM     19  C   UNL     1      30.422 -22.711 -15.681  0.00  0.00    +0.021 C 
BRANCH  15  20
ATOM     20  S   UNL     1      27.746 -23.021 -16.097  0.00  0.00    +0.057 S 
ATOM     21  O   UNL     1      26.740 -23.051 -15.045  0.00  0.00    -0.153 OA
ATOM     22  O   UNL     1      27.930 -21.811 -16.887  0.00  0.00    -0.153 OA
BRANCH  20  23
ATOM     23  N   UNL     1      27.475 -24.332 -17.158  0.00  0.00    -0.203 NA
ATOM     24  H   UNL     1      26.492 -24.352 -17.429  0.00  0.00    +0.144 HD
ATOM     25  H   UNL     1      27.715 -25.205 -16.688  0.00  0.00    +0.144 HD
ENDBRANCH  20  23
ENDBRANCH  15  20
ENDBRANCH   4  14
BRANCH   6  26
ATOM     26  O   UNL     1      35.911 -22.774 -16.935  0.00  0.00    -0.453 OA
BRANCH  26  27
ATOM     27  C   UNL     1      34.761 -22.524 -17.720  0.00  0.00    +0.208 C 
BRANCH  27  28
ATOM     28  C   UNL     1      35.197 -21.826 -19.007  0.00  0.00    +0.044 C 
ATOM     29  C   UNL     1      34.067 -20.944 -19.556  0.00  0.00    +0.004 C 
ATOM     30  C   UNL     1      36.469 -21.000 -18.772  0.00  0.00    +0.004 C 
ATOM     31  C   UNL     1      34.496 -20.193 -20.814  0.00  0.00    +0.000 C 
ATOM     32  C   UNL     1      36.895 -20.250 -20.032  0.00  0.00    +0.000 C 
ATOM     33  C   UNL     1      35.766 -19.381 -20.578  0.00  0.00    +0.000 C 
ENDBRANCH  27  28
ENDBRANCH  26  27
ENDBRANCH   6  26
TORSDOF 6
ENDMDL
MODEL 6
REMARK VINA RESULT:     -10.5      3.362      7.281
REMARK  Name = 4566
REMARK  6 active torsions:
REMARK  status: ('A' for Active; 'I' for Inactive)
REMARK    1  A    between atoms: N_4  and  C_14
REMARK    2  A    between atoms: C_6  and  O_26
REMARK    3  A    between atoms: C_15  and  S_20
REMARK    4  A    between atoms: S_20  and  N_23
REMARK    5  A    between atoms: O_26  and  C_27
REMARK    6  A    between atoms: C_27  and  C_28
REMARK                            x       y       z     vdW  Elec       q    Type
REMARK                         _______ _______ _______ _____ _____    ______ ____
ROOT
ATOM      1  N   UNL     1      33.778 -22.816 -15.953  0.00  0.00    -0.293 NA
ATOM      2  N   UNL     1      32.753 -24.718 -12.976  0.00  0.00    -0.266 NA
ATOM      3  N   UNL     1      31.585 -23.866 -16.147  0.00  0.00    -0.316 NA
ATOM      4  N   UNL     1      32.485 -22.596 -17.892  0.00  0.00    -0.238 N 
ATOM      5  N   UNL     1      30.917 -25.121 -14.174  0.00  0.00    -0.296 N 
ATOM      6  C   UNL     1      33.948 -23.302 -14.703  0.00  0.00    +0.288 C 
ATOM      7  C   UNL     1      32.938 -24.074 -14.167  0.00  0.00    +0.215 C 
ATOM      8  C   UNL     1      31.784 -24.339 -14.893  0.00  0.00    +0.196 C 
ATOM      9  C   UNL     1      32.623 -23.124 -16.588  0.00  0.00    +0.207 C 
ATOM     10  C   UNL     1      31.528 -25.331 -13.028  0.00  0.00    +0.164 C 
ATOM     11  H   UNL     1      33.383 -24.738 -12.220  0.00  0.00    +0.126 HD
ATOM     12  H   UNL     1      31.636 -22.835 -18.330  0.00  0.00    +0.166 HD
ATOM     13  H   UNL     1      30.033 -25.452 -14.454  0.00  0.00    +0.150 HD
ENDROOT
BRANCH   4  14
ATOM     14  C   UNL     1      33.324 -21.795 -18.687  0.00  0.00    +0.059 C 
ATOM     15  C   UNL     1      34.993 -20.205 -20.267  0.00  0.00    +0.122 C 
ATOM     16  C   UNL     1      32.776 -20.847 -19.553  0.00  0.00    +0.017 C 
ATOM     17  C   UNL     1      34.712 -21.945 -18.615  0.00  0.00    +0.017 C 
ATOM     18  C   UNL     1      33.608 -20.052 -20.342  0.00  0.00    +0.021 C 
ATOM     19  C   UNL     1      35.544 -21.151 -19.404  0.00  0.00    +0.021 C 
BRANCH  15  20
ATOM     20  S   UNL     1      36.035 -19.212 -21.255  0.00  0.00    +0.057 S 
ATOM     21  O   UNL     1      37.416 -19.477 -20.878  0.00  0.00    -0.153 OA
ATOM     22  O   UNL     1      35.624 -19.352 -22.645  0.00  0.00    -0.153 OA
BRANCH  20  23
ATOM     23  N   UNL     1      35.605 -17.650 -20.713  0.00  0.00    -0.203 NA
ATOM     24  H   UNL     1      36.449 -17.128 -20.475  0.00  0.00    +0.144 HD
ATOM     25  H   UNL     1      35.011 -17.728 -19.887  0.00  0.00    +0.144 HD
ENDBRANCH  20  23
ENDBRANCH  15  20
ENDBRANCH   4  14
BRANCH   6  26
ATOM     26  O   UNL     1      35.108 -23.010 -14.031  0.00  0.00    -0.453 OA
BRANCH  26  27
ATOM     27  C   UNL     1      36.324 -23.212 -14.727  0.00  0.00    +0.208 C 
BRANCH  27  28
ATOM     28  C   UNL     1      37.197 -24.164 -13.911  0.00  0.00    +0.044 C 
ATOM     29  C   UNL     1      37.077 -23.859 -12.411  0.00  0.00    +0.004 C 
ATOM     30  C   UNL     1      36.826 -25.624 -14.203  0.00  0.00    +0.004 C 
ATOM     31  C   UNL     1      37.899 -24.832 -11.570  0.00  0.00    +0.000 C 
ATOM     32  C   UNL     1      37.650 -26.594 -13.359  0.00  0.00    +0.000 C 
ATOM     33  C   UNL     1      37.533 -26.283 -11.869  0.00  0.00    +0.000 C 
ENDBRANCH  27  28
ENDBRANCH  26  27
ENDBRANCH   6  26
TORSDOF 6
ENDMDL
MODEL 7
REMARK VINA RESULT:      -9.1      3.728      7.562
REMARK  Name = 4566
REMARK  6 active torsions:
REMARK  status: ('A' for Active; 'I' for Inactive)
REMARK    1  A    between atoms: N_4  and  C_14
REMARK    2  A    between atoms: C_6  and  O_26
REMARK    3  A    between atoms: C_15  and  S_20
REMARK    4  A    between atoms: S_20  and  N_23
REMARK    5  A    between atoms: O_26  and  C_27
REMARK    6  A    between atoms: C_27  and  C_28
REMARK                            x       y       z     vdW  Elec       q    Type
REMARK                         _______ _______ _______ _____ _____    ______ ____
ROOT
ATOM      1  N   UNL     1      35.159 -23.073 -15.932  0.00  0.00    -0.293 NA
ATOM      2  N   UNL     1      35.178 -25.012 -12.807  0.00  0.00    -0.266 NA
ATOM      3  N   UNL     1      37.380 -23.405 -14.978  0.00  0.00    -0.316 NA
ATOM      4  N   UNL     1      37.075 -22.206 -16.963  0.00  0.00    -0.238 N 
ATOM      5  N   UNL     1      37.380 -24.688 -12.912  0.00  0.00    -0.296 N 
ATOM      6  C   UNL     1      34.577 -23.766 -14.928  0.00  0.00    +0.288 C 
ATOM      7  C   UNL     1      35.392 -24.282 -13.942  0.00  0.00    +0.215 C 
ATOM      8  C   UNL     1      36.767 -24.094 -13.985  0.00  0.00    +0.196 C 
ATOM      9  C   UNL     1      36.507 -22.937 -15.895  0.00  0.00    +0.207 C 
ATOM     10  C   UNL     1      36.399 -25.230 -12.224  0.00  0.00    +0.164 C 
ATOM     11  H   UNL     1      34.307 -25.325 -12.470  0.00  0.00    +0.126 HD
ATOM     12  H   UNL     1      38.055 -22.125 -16.911  0.00  0.00    +0.166 HD
ATOM     13  H   UNL     1      38.343 -24.704 -12.704  0.00  0.00    +0.150 HD
ENDROOT
BRANCH   4  14
ATOM     14  C   UNL     1      36.514 -21.574 -18.086  0.00  0.00    +0.059 C 
ATOM     15  C   UNL     1      35.403 -20.316 -20.321  0.00  0.00    +0.122 C 
ATOM     16  C   UNL     1      35.223 -21.901 -18.506  0.00  0.00    +0.017 C 
ATOM     17  C   UNL     1      37.248 -20.614 -18.790  0.00  0.00    +0.017 C 
ATOM     18  C   UNL     1      34.668 -21.274 -19.622  0.00  0.00    +0.021 C 
ATOM     19  C   UNL     1      36.692 -19.986 -19.905  0.00  0.00    +0.021 C 
BRANCH  15  20
ATOM     20  S   UNL     1      34.708 -19.531 -21.717  0.00  0.00    +0.057 S 
ATOM     21  O   UNL     1      35.471 -19.925 -22.894  0.00  0.00    -0.153 OA
ATOM     22  O   UNL     1      33.266 -19.731 -21.689  0.00  0.00    -0.153 OA
BRANCH  20  23
ATOM     23  N   UNL     1      35.040 -17.892 -21.368  0.00  0.00    -0.203 NA
ATOM     24  H   UNL     1      34.368 -17.548 -20.682  0.00  0.00    +0.144 HD
ATOM     25  H   UNL     1      34.964 -17.340 -22.223  0.00  0.00    +0.144 HD
ENDBRANCH  20  23
ENDBRANCH  15  20
ENDBRANCH   4  14
BRANCH   6  26
ATOM     26  O   UNL     1      33.213 -23.920 -14.935  0.00  0.00    -0.453 OA
BRANCH  26  27
ATOM     27  C   UNL     1      32.458 -23.004 -14.164  0.00  0.00    +0.208 C 
BRANCH  27  28
ATOM     28  C   UNL     1      30.974 -23.290 -14.391  0.00  0.00    +0.044 C 
ATOM     29  C   UNL     1      30.554 -22.884 -15.809  0.00  0.00    +0.004 C 
ATOM     30  C   UNL     1      30.661 -24.769 -14.130  0.00  0.00    +0.004 C 
ATOM     31  C   UNL     1      29.086 -23.209 -16.078  0.00  0.00    +0.000 C 
ATOM     32  C   UNL     1      29.193 -25.091 -14.401  0.00  0.00    +0.000 C 
ATOM     33  C   UNL     1      28.777 -24.678 -15.810  0.00  0.00    +0.000 C 
ENDBRANCH  27  28
ENDBRANCH  26  27
ENDBRANCH   6  26
TORSDOF 6
ENDMDL
MODEL 8
REMARK VINA RESULT:      -9.0     14.370     18.493
REMARK  Name = 4566
REMARK  6 active torsions:
REMARK  status: ('A' for Active; 'I' for Inactive)
REMARK    1  A    between atoms: N_4  and  C_14
REMARK    2  A    between atoms: C_6  and  O_26
REMARK    3  A    between atoms: C_15  and  S_20
REMARK    4  A    between atoms: S_20  and  N_23
REMARK    5  A    between atoms: O_26  and  C_27
REMARK    6  A    between atoms: C_27  and  C_28
REMARK                            x       y       z     vdW  Elec       q    Type
REMARK                         _______ _______ _______ _____ _____    ______ ____
ROOT
ATOM      1  N   UNL     1      32.726  -8.236 -22.804  0.00  0.00    -0.293 NA
ATOM      2  N   UNL     1      31.736 -10.658 -20.219  0.00  0.00    -0.266 NA
ATOM      3  N   UNL     1      32.594  -7.298 -20.556  0.00  0.00    -0.316 NA
ATOM      4  N   UNL     1      33.200  -5.981 -22.391  0.00  0.00    -0.238 N 
ATOM      5  N   UNL     1      31.938  -8.907 -18.855  0.00  0.00    -0.296 N 
ATOM      6  C   UNL     1      32.364  -9.460 -22.360  0.00  0.00    +0.288 C 
ATOM      7  C   UNL     1      32.113  -9.612 -21.012  0.00  0.00    +0.215 C 
ATOM      8  C   UNL     1      32.232  -8.536 -20.142  0.00  0.00    +0.196 C 
ATOM      9  C   UNL     1      32.818  -7.244 -21.886  0.00  0.00    +0.207 C 
ATOM     10  C   UNL     1      31.644 -10.187 -18.935  0.00  0.00    +0.164 C 
ATOM     11  H   UNL     1      31.563 -11.581 -20.514  0.00  0.00    +0.126 HD
ATOM     12  H   UNL     1      33.259  -5.279 -21.702  0.00  0.00    +0.166 HD
ATOM     13  H   UNL     1      31.946  -8.340 -18.050  0.00  0.00    +0.150 HD
ENDROOT
BRANCH   4  14
ATOM     14  C   UNL     1      33.513  -5.529 -23.686  0.00  0.00    +0.059 C 
ATOM     15  C   UNL     1      34.137  -4.634 -26.258  0.00  0.00    +0.122 C 
ATOM     16  C   UNL     1      32.565  -4.828 -24.433  0.00  0.00    +0.017 C 
ATOM     17  C   UNL     1      34.775  -5.782 -24.231  0.00  0.00    +0.017 C 
ATOM     18  C   UNL     1      32.876  -4.380 -25.718  0.00  0.00    +0.021 C 
ATOM     19  C   UNL     1      35.086  -5.334 -25.515  0.00  0.00    +0.021 C 
BRANCH  15  20
ATOM     20  S   UNL     1      34.525  -4.075 -27.866  0.00  0.00    +0.057 S 
ATOM     21  O   UNL     1      35.943  -4.309 -28.104  0.00  0.00    -0.153 OA
ATOM     22  O   UNL     1      33.538  -4.611 -28.793  0.00  0.00    -0.153 OA
BRANCH  20  23
ATOM     23  N   UNL     1      34.263  -2.395 -27.699  0.00  0.00    -0.203 NA
ATOM     24  H   UNL     1      33.296  -2.228 -27.422  0.00  0.00    +0.144 HD
ATOM     25  H   UNL     1      34.446  -1.932 -28.590  0.00  0.00    +0.144 HD
ENDBRANCH  20  23
ENDBRANCH  15  20
ENDBRANCH   4  14
BRANCH   6  26
ATOM     26  O   UNL     1      32.260 -10.488 -23.265  0.00  0.00    -0.453 OA
BRANCH  26  27
ATOM     27  C   UNL     1      33.462 -11.125 -23.655  0.00  0.00    +0.208 C 
BRANCH  27  28
ATOM     28  C   UNL     1      33.334 -12.620 -23.365  0.00  0.00    +0.044 C 
ATOM     29  C   UNL     1      33.605 -13.444 -24.631  0.00  0.00    +0.004 C 
ATOM     30  C   UNL     1      34.280 -13.034 -22.229  0.00  0.00    +0.004 C 
ATOM     31  C   UNL     1      33.535 -14.944 -24.354  0.00  0.00    +0.000 C 
ATOM     32  C   UNL     1      34.208 -14.536 -21.957  0.00  0.00    +0.000 C 
ATOM     33  C   UNL     1      34.471 -15.350 -23.220  0.00  0.00    +0.000 C 
ENDBRANCH  27  28
ENDBRANCH  26  27
ENDBRANCH   6  26
TORSDOF 6
ENDMDL
