MODEL 1
REMARK VINA RESULT:     -12.2      0.000      0.000
REMARK  Name = 107971
REMARK  9 active torsions:
REMARK  status: ('A' for Active; 'I' for Inactive)
REMARK    1  A    between atoms: C_3  and  O_20
REMARK    2  A    between atoms: C_10  and  C_12
REMARK    3  A    between atoms: C_17  and  O_18
REMARK    4  A    between atoms: O_20  and  C_26
REMARK    5  A    between atoms: C_22  and  O_27
REMARK    6  A    between atoms: C_23  and  O_29
REMARK    7  A    between atoms: C_24  and  O_31
REMARK    8  A    between atoms: C_25  and  C_33
REMARK    9  A    between atoms: C_33  and  O_34
REMARK                            x       y       z     vdW  Elec       q    Type
REMARK                         _______ _______ _______ _____ _____    ______ ____
ROOT
ATOM      1  O   UNL     1      36.083 -21.556 -18.638  0.00  0.00    -0.450 OA
ATOM      2  O   UNL     1      32.476 -20.517 -20.237  0.00  0.00    -0.286 OA
ATOM      3  C   UNL     1      33.894 -23.406 -16.389  0.00  0.00    +0.144 C 
ATOM      4  C   UNL     1      35.040 -22.887 -16.990  0.00  0.00    +0.075 C 
ATOM      5  C   UNL     1      32.632 -23.076 -16.886  0.00  0.00    +0.037 C 
ATOM      6  C   UNL     1      34.922 -22.036 -18.089  0.00  0.00    +0.151 C 
ATOM      7  C   UNL     1      33.662 -21.706 -18.586  0.00  0.00    +0.074 C 
ATOM      8  C   UNL     1      32.512 -22.225 -17.986  0.00  0.00    +0.009 C 
ATOM      9  C   UNL     1      33.562 -20.808 -19.751  0.00  0.00    +0.202 C 
ATOM     10  C   UNL     1      34.846 -20.295 -20.304  0.00  0.00    +0.077 C 
ATOM     11  C   UNL     1      35.977 -20.705 -19.711  0.00  0.00    +0.183 C 
ENDROOT
BRANCH  10  12
ATOM     12  C   UNL     1      34.886 -19.361 -21.442  0.00  0.00    +0.006 C 
ATOM     13  C   UNL     1      35.447 -18.091 -21.287  0.00  0.00    +0.003 C 
ATOM     14  C   UNL     1      34.364 -19.743 -22.680  0.00  0.00    +0.003 C 
ATOM     15  C   UNL     1      35.486 -17.208 -22.365  0.00  0.00    +0.037 C 
ATOM     16  C   UNL     1      34.401 -18.858 -23.757  0.00  0.00    +0.037 C 
ATOM     17  C   UNL     1      34.962 -17.590 -23.601  0.00  0.00    +0.134 C 
BRANCH  17  18
ATOM     18  O   UNL     1      34.999 -16.727 -24.652  0.00  0.00    -0.506 OA
ATOM     19  H   UNL     1      35.821 -16.497 -25.040  0.00  0.00    +0.292 HD
ENDBRANCH  17  18
ENDBRANCH  10  12
BRANCH   3  20
ATOM     20  O   UNL     1      34.005 -24.236 -15.314  0.00  0.00    -0.450 OA
BRANCH  20  26
ATOM     21  O   UNL     1      36.224 -24.514 -14.650  0.00  0.00    -0.316 OA
ATOM     22  C   UNL     1      35.532 -24.154 -11.885  0.00  0.00    +0.173 C 
ATOM     23  C   UNL     1      36.890 -24.701 -12.326  0.00  0.00    +0.169 C 
ATOM     24  C   UNL     1      34.476 -24.356 -12.972  0.00  0.00    +0.210 C 
ATOM     25  C   UNL     1      37.257 -24.184 -13.719  0.00  0.00    +0.177 C 
ATOM     26  C   UNL     1      34.984 -23.886 -14.335  0.00  0.00    +0.318 C 
BRANCH  22  27
ATOM     27  O   UNL     1      35.137 -24.853 -10.703  0.00  0.00    -0.379 OA
ATOM     28  H   UNL     1      35.718 -25.618 -10.570  0.00  0.00    +0.211 HD
ENDBRANCH  22  27
BRANCH  23  29
ATOM     29  O   UNL     1      37.887 -24.292 -11.394  0.00  0.00    -0.379 OA
ATOM     30  H   UNL     1      37.707 -24.694 -10.530  0.00  0.00    +0.211 HD
ENDBRANCH  23  29
BRANCH  24  31
ATOM     31  O   UNL     1      33.310 -23.600 -12.645  0.00  0.00    -0.377 OA
ATOM     32  H   UNL     1      33.519 -22.975 -11.933  0.00  0.00    +0.211 HD
ENDBRANCH  24  31
BRANCH  25  33
ATOM     33  C   UNL     1      38.553 -24.808 -14.229  0.00  0.00    +0.169 C 
BRANCH  33  34
ATOM     34  O   UNL     1      39.065 -23.994 -15.269  0.00  0.00    -0.379 OA
ATOM     35  H   UNL     1      39.781 -23.441 -14.923  0.00  0.00    +0.211 HD
ENDBRANCH  33  34
ENDBRANCH  25  33
ENDBRANCH  20  26
ENDBRANCH   3  20
TORSDOF 9
ENDMDL
MODEL 2
REMARK VINA RESULT:     -11.9      1.109      1.801
REMARK  Name = 107971
REMARK  9 active torsions:
REMARK  status: ('A' for Active; 'I' for Inactive)
REMARK    1  A    between atoms: C_3  and  O_20
REMARK    2  A    between atoms: C_10  and  C_12
REMARK    3  A    between atoms: C_17  and  O_18
REMARK    4  A    between atoms: O_20  and  C_26
REMARK    5  A    between atoms: C_22  and  O_27
REMARK    6  A    between atoms: C_23  and  O_29
REMARK    7  A    between atoms: C_24  and  O_31
REMARK    8  A    between atoms: C_25  and  C_33
REMARK    9  A    between atoms: C_33  and  O_34
REMARK                            x       y       z     vdW  Elec       q    Type
REMARK                         _______ _______ _______ _____ _____    ______ ____
ROOT
ATOM      1  O   UNL     1      33.037 -21.498 -19.472  0.00  0.00    -0.450 OA
ATOM      2  O   UNL     1      36.739 -19.852 -19.955  0.00  0.00    -0.286 OA
ATOM      3  C   UNL     1      34.792 -23.205 -16.774  0.00  0.00    +0.144 C 
ATOM      4  C   UNL     1      33.784 -22.795 -17.646  0.00  0.00    +0.075 C 
ATOM      5  C   UNL     1      36.080 -22.685 -16.899  0.00  0.00    +0.037 C 
ATOM      6  C   UNL     1      34.067 -21.863 -18.644  0.00  0.00    +0.151 C 
ATOM      7  C   UNL     1      35.355 -21.342 -18.769  0.00  0.00    +0.074 C 
ATOM      8  C   UNL     1      36.367 -21.752 -17.897  0.00  0.00    +0.009 C 
ATOM      9  C   UNL     1      35.630 -20.355 -19.829  0.00  0.00    +0.202 C 
ATOM     10  C   UNL     1      34.489 -20.002 -20.718  0.00  0.00    +0.077 C 
ATOM     11  C   UNL     1      33.310 -20.592 -20.468  0.00  0.00    +0.183 C 
ENDROOT
BRANCH  10  12
ATOM     12  C   UNL     1      34.637 -19.058 -21.838  0.00  0.00    +0.006 C 
ATOM     13  C   UNL     1      35.221 -17.807 -21.630  0.00  0.00    +0.003 C 
ATOM     14  C   UNL     1      34.192 -19.412 -23.115  0.00  0.00    +0.003 C 
ATOM     15  C   UNL     1      35.361 -16.915 -22.692  0.00  0.00    +0.037 C 
ATOM     16  C   UNL     1      34.332 -18.519 -24.177  0.00  0.00    +0.037 C 
ATOM     17  C   UNL     1      34.916 -17.270 -23.966  0.00  0.00    +0.134 C 
BRANCH  17  18
ATOM     18  O   UNL     1      35.052 -16.398 -25.002  0.00  0.00    -0.506 OA
ATOM     19  H   UNL     1      35.885 -16.293 -25.419  0.00  0.00    +0.292 HD
ENDBRANCH  17  18
ENDBRANCH  10  12
BRANCH   3  20
ATOM     20  O   UNL     1      34.519 -24.117 -15.798  0.00  0.00    -0.450 OA
BRANCH  20  26
ATOM     21  O   UNL     1      36.365 -25.252 -14.933  0.00  0.00    -0.316 OA
ATOM     22  C   UNL     1      35.572 -24.661 -12.236  0.00  0.00    +0.173 C 
ATOM     23  C   UNL     1      36.646 -25.697 -12.566  0.00  0.00    +0.169 C 
ATOM     24  C   UNL     1      34.647 -24.424 -13.429  0.00  0.00    +0.210 C 
ATOM     25  C   UNL     1      37.336 -25.361 -13.891  0.00  0.00    +0.177 C 
ATOM     26  C   UNL     1      35.444 -24.187 -14.712  0.00  0.00    +0.318 C 
BRANCH  22  27
ATOM     27  O   UNL     1      34.808 -25.152 -11.133  0.00  0.00    -0.379 OA
ATOM     28  H   UNL     1      34.908 -24.552 -10.378  0.00  0.00    +0.211 HD
ENDBRANCH  22  27
BRANCH  23  29
ATOM     29  O   UNL     1      37.616 -25.720 -11.522  0.00  0.00    -0.379 OA
ATOM     30  H   UNL     1      37.951 -26.623 -11.412  0.00  0.00    +0.211 HD
ENDBRANCH  23  29
BRANCH  24  31
ATOM     31  O   UNL     1      33.842 -23.271 -13.183  0.00  0.00    -0.377 OA
ATOM     32  H   UNL     1      34.074 -22.893 -12.320  0.00  0.00    +0.211 HD
ENDBRANCH  24  31
BRANCH  25  33
ATOM     33  C   UNL     1      38.331 -26.443 -14.300  0.00  0.00    +0.169 C 
BRANCH  33  34
ATOM     34  O   UNL     1      39.437 -26.394 -13.417  0.00  0.00    -0.379 OA
ATOM     35  H   UNL     1      39.319 -27.053 -12.715  0.00  0.00    +0.211 HD
ENDBRANCH  33  34
ENDBRANCH  25  33
ENDBRANCH  20  26
ENDBRANCH   3  20
TORSDOF 9
ENDMDL
MODEL 3
REMARK VINA RESULT:     -11.4      1.551      3.145
REMARK  Name = 107971
REMARK  9 active torsions:
REMARK  status: ('A' for Active; 'I' for Inactive)
REMARK    1  A    between atoms: C_3  and  O_20
REMARK    2  A    between atoms: C_10  and  C_12
REMARK    3  A    between atoms: C_17  and  O_18
REMARK    4  A    between atoms: O_20  and  C_26
REMARK    5  A    between atoms: C_22  and  O_27
REMARK    6  A    between atoms: C_23  and  O_29
REMARK    7  A    between atoms: C_24  and  O_31
REMARK    8  A    between atoms: C_25  and  C_33
REMARK    9  A    between atoms: C_33  and  O_34
REMARK                            x       y       z     vdW  Elec       q    Type
REMARK                         _______ _______ _______ _____ _____    ______ ____
ROOT
ATOM      1  O   UNL     1      37.094 -19.805 -19.698  0.00  0.00    -0.450 OA
ATOM      2  O   UNL     1      33.270 -20.167 -21.074  0.00  0.00    -0.286 OA
ATOM      3  C   UNL     1      35.877 -22.339 -17.381  0.00  0.00    +0.144 C 
ATOM      4  C   UNL     1      36.714 -21.432 -18.029  0.00  0.00    +0.075 C 
ATOM      5  C   UNL     1      34.556 -22.497 -17.801  0.00  0.00    +0.037 C 
ATOM      6  C   UNL     1      36.226 -20.681 -19.099  0.00  0.00    +0.151 C 
ATOM      7  C   UNL     1      34.905 -20.839 -19.519  0.00  0.00    +0.074 C 
ATOM      8  C   UNL     1      34.065 -21.748 -18.871  0.00  0.00    +0.009 C 
ATOM      9  C   UNL     1      34.413 -20.037 -20.655  0.00  0.00    +0.202 C 
ATOM     10  C   UNL     1      35.382 -19.084 -21.263  0.00  0.00    +0.077 C 
ATOM     11  C   UNL     1      36.618 -19.049 -20.742  0.00  0.00    +0.183 C 
ENDROOT
BRANCH  10  12
ATOM     12  C   UNL     1      35.008 -18.198 -22.377  0.00  0.00    +0.006 C 
ATOM     13  C   UNL     1      34.438 -18.730 -23.536  0.00  0.00    +0.003 C 
ATOM     14  C   UNL     1      35.224 -16.821 -22.280  0.00  0.00    +0.003 C 
ATOM     15  C   UNL     1      34.084 -17.890 -24.591  0.00  0.00    +0.037 C 
ATOM     16  C   UNL     1      34.871 -15.981 -23.336  0.00  0.00    +0.037 C 
ATOM     17  C   UNL     1      34.301 -16.515 -24.492  0.00  0.00    +0.134 C 
BRANCH  17  18
ATOM     18  O   UNL     1      33.956 -15.695 -25.522  0.00  0.00    -0.506 OA
ATOM     19  H   UNL     1      34.286 -15.862 -26.383  0.00  0.00    +0.292 HD
ENDBRANCH  17  18
ENDBRANCH  10  12
BRANCH   3  20
ATOM     20  O   UNL     1      36.350 -23.073 -16.334  0.00  0.00    -0.450 OA
BRANCH  20  26
ATOM     21  O   UNL     1      34.365 -22.977 -15.111  0.00  0.00    -0.316 OA
ATOM     22  C   UNL     1      35.131 -25.247 -13.527  0.00  0.00    +0.173 C 
ATOM     23  C   UNL     1      33.962 -24.339 -13.146  0.00  0.00    +0.169 C 
ATOM     24  C   UNL     1      36.114 -24.527 -14.449  0.00  0.00    +0.210 C 
ATOM     25  C   UNL     1      33.355 -23.685 -14.390  0.00  0.00    +0.177 C 
ATOM     26  C   UNL     1      35.389 -23.838 -15.605  0.00  0.00    +0.318 C 
BRANCH  22  27
ATOM     27  O   UNL     1      35.802 -25.632 -12.325  0.00  0.00    -0.379 OA
ATOM     28  H   UNL     1      35.980 -26.585 -12.344  0.00  0.00    +0.211 HD
ENDBRANCH  22  27
BRANCH  23  29
ATOM     29  O   UNL     1      32.963 -25.110 -12.483  0.00  0.00    -0.379 OA
ATOM     30  H   UNL     1      32.098 -24.686 -12.599  0.00  0.00    +0.211 HD
ENDBRANCH  23  29
BRANCH  24  31
ATOM     31  O   UNL     1      37.031 -25.474 -14.997  0.00  0.00    -0.377 OA
ATOM     32  H   UNL     1      36.788 -25.663 -15.917  0.00  0.00    +0.211 HD
ENDBRANCH  24  31
BRANCH  25  33
ATOM     33  C   UNL     1      32.262 -22.685 -14.025  0.00  0.00    +0.169 C 
BRANCH  33  34
ATOM     34  O   UNL     1      31.034 -23.380 -13.917  0.00  0.00    -0.379 OA
ATOM     35  H   UNL     1      30.576 -23.102 -13.109  0.00  0.00    +0.211 HD
ENDBRANCH  33  34
ENDBRANCH  25  33
ENDBRANCH  20  26
ENDBRANCH   3  20
TORSDOF 9
ENDMDL
MODEL 4
REMARK VINA RESULT:     -11.0      0.747      1.167
REMARK  Name = 107971
REMARK  9 active torsions:
REMARK  status: ('A' for Active; 'I' for Inactive)
REMARK    1  A    between atoms: C_3  and  O_20
REMARK    2  A    between atoms: C_10  and  C_12
REMARK    3  A    between atoms: C_17  and  O_18
REMARK    4  A    between atoms: O_20  and  C_26
REMARK    5  A    between atoms: C_22  and  O_27
REMARK    6  A    between atoms: C_23  and  O_29
REMARK    7  A    between atoms: C_24  and  O_31
REMARK    8  A    between atoms: C_25  and  C_33
REMARK    9  A    between atoms: C_33  and  O_34
REMARK                            x       y       z     vdW  Elec       q    Type
REMARK                         _______ _______ _______ _____ _____    ______ ____
ROOT
ATOM      1  O   UNL     1      35.963 -21.307 -19.073  0.00  0.00    -0.450 OA
ATOM      2  O   UNL     1      32.311 -20.213 -20.527  0.00  0.00    -0.286 OA
ATOM      3  C   UNL     1      33.838 -23.183 -16.785  0.00  0.00    +0.144 C 
ATOM      4  C   UNL     1      34.967 -22.661 -17.415  0.00  0.00    +0.075 C 
ATOM      5  C   UNL     1      32.562 -22.835 -17.232  0.00  0.00    +0.037 C 
ATOM      6  C   UNL     1      34.818 -21.789 -18.494  0.00  0.00    +0.151 C 
ATOM      7  C   UNL     1      33.543 -21.441 -18.940  0.00  0.00    +0.074 C 
ATOM      8  C   UNL     1      32.411 -21.963 -18.311  0.00  0.00    +0.009 C 
ATOM      9  C   UNL     1      33.410 -20.520 -20.084  0.00  0.00    +0.202 C 
ATOM     10  C   UNL     1      34.678 -20.005 -20.671  0.00  0.00    +0.077 C 
ATOM     11  C   UNL     1      35.826 -20.434 -20.125  0.00  0.00    +0.183 C 
ENDROOT
BRANCH  10  12
ATOM     12  C   UNL     1      34.687 -19.050 -21.792  0.00  0.00    +0.006 C 
ATOM     13  C   UNL     1      34.237 -19.446 -23.054  0.00  0.00    +0.003 C 
ATOM     14  C   UNL     1      35.146 -17.745 -21.596  0.00  0.00    +0.003 C 
ATOM     15  C   UNL     1      34.246 -18.540 -24.114  0.00  0.00    +0.037 C 
ATOM     16  C   UNL     1      35.155 -16.841 -22.658  0.00  0.00    +0.037 C 
ATOM     17  C   UNL     1      34.705 -17.238 -23.917  0.00  0.00    +0.134 C 
BRANCH  17  18
ATOM     18  O   UNL     1      34.714 -16.355 -24.953  0.00  0.00    -0.506 OA
ATOM     19  H   UNL     1      34.371 -15.491 -24.834  0.00  0.00    +0.292 HD
ENDBRANCH  17  18
ENDBRANCH  10  12
BRANCH   3  20
ATOM     20  O   UNL     1      33.979 -24.035 -15.730  0.00  0.00    -0.450 OA
BRANCH  20  26
ATOM     21  O   UNL     1      36.289 -23.984 -15.404  0.00  0.00    -0.316 OA
ATOM     22  C   UNL     1      35.989 -24.470 -12.589  0.00  0.00    +0.173 C 
ATOM     23  C   UNL     1      37.336 -24.587 -13.303  0.00  0.00    +0.169 C 
ATOM     24  C   UNL     1      34.828 -24.621 -13.572  0.00  0.00    +0.210 C 
ATOM     25  C   UNL     1      37.380 -23.678 -14.534  0.00  0.00    +0.177 C 
ATOM     26  C   UNL     1      35.022 -23.734 -14.802  0.00  0.00    +0.318 C 
BRANCH  22  27
ATOM     27  O   UNL     1      35.918 -25.505 -11.607  0.00  0.00    -0.379 OA
ATOM     28  H   UNL     1      34.989 -25.697 -11.406  0.00  0.00    +0.211 HD
ENDBRANCH  22  27
BRANCH  23  29
ATOM     29  O   UNL     1      38.379 -24.215 -12.405  0.00  0.00    -0.379 OA
ATOM     30  H   UNL     1      39.047 -24.917 -12.377  0.00  0.00    +0.211 HD
ENDBRANCH  23  29
BRANCH  24  31
ATOM     31  O   UNL     1      33.612 -24.237 -12.931  0.00  0.00    -0.377 OA
ATOM     32  H   UNL     1      33.609 -24.568 -12.019  0.00  0.00    +0.211 HD
ENDBRANCH  24  31
BRANCH  25  33
ATOM     33  C   UNL     1      38.669 -23.864 -15.328  0.00  0.00    +0.169 C 
BRANCH  33  34
ATOM     34  O   UNL     1      38.705 -22.897 -16.361  0.00  0.00    -0.379 OA
ATOM     35  H   UNL     1      39.349 -23.167 -17.034  0.00  0.00    +0.211 HD
ENDBRANCH  33  34
ENDBRANCH  25  33
ENDBRANCH  20  26
ENDBRANCH   3  20
TORSDOF 9
ENDMDL
MODEL 5
REMARK VINA RESULT:     -11.0      1.375      2.137
REMARK  Name = 107971
REMARK  9 active torsions:
REMARK  status: ('A' for Active; 'I' for Inactive)
REMARK    1  A    between atoms: C_3  and  O_20
REMARK    2  A    between atoms: C_10  and  C_12
REMARK    3  A    between atoms: C_17  and  O_18
REMARK    4  A    between atoms: O_20  and  C_26
REMARK    5  A    between atoms: C_22  and  O_27
REMARK    6  A    between atoms: C_23  and  O_29
REMARK    7  A    between atoms: C_24  and  O_31
REMARK    8  A    between atoms: C_25  and  C_33
REMARK    9  A    between atoms: C_33  and  O_34
REMARK                            x       y       z     vdW  Elec       q    Type
REMARK                         _______ _______ _______ _____ _____    ______ ____
ROOT
ATOM      1  O   UNL     1      36.833 -20.470 -19.563  0.00  0.00    -0.450 OA
ATOM      2  O   UNL     1      32.957 -20.181 -20.801  0.00  0.00    -0.286 OA
ATOM      3  C   UNL     1      35.312 -22.869 -17.282  0.00  0.00    +0.144 C 
ATOM      4  C   UNL     1      36.258 -22.079 -17.933  0.00  0.00    +0.075 C 
ATOM      5  C   UNL     1      33.969 -22.803 -17.655  0.00  0.00    +0.037 C 
ATOM      6  C   UNL     1      35.859 -21.222 -18.959  0.00  0.00    +0.151 C 
ATOM      7  C   UNL     1      34.517 -21.157 -19.333  0.00  0.00    +0.074 C 
ATOM      8  C   UNL     1      33.567 -21.948 -18.681  0.00  0.00    +0.009 C 
ATOM      9  C   UNL     1      34.119 -20.247 -20.423  0.00  0.00    +0.202 C 
ATOM     10  C   UNL     1      35.205 -19.435 -21.037  0.00  0.00    +0.077 C 
ATOM     11  C   UNL     1      36.447 -19.611 -20.564  0.00  0.00    +0.183 C 
ENDROOT
BRANCH  10  12
ATOM     12  C   UNL     1      34.938 -18.460 -22.108  0.00  0.00    +0.006 C 
ATOM     13  C   UNL     1      34.387 -18.883 -23.320  0.00  0.00    +0.003 C 
ATOM     14  C   UNL     1      35.235 -17.109 -21.915  0.00  0.00    +0.003 C 
ATOM     15  C   UNL     1      34.135 -17.960 -24.334  0.00  0.00    +0.037 C 
ATOM     16  C   UNL     1      34.983 -16.186 -22.930  0.00  0.00    +0.037 C 
ATOM     17  C   UNL     1      34.433 -16.611 -24.140  0.00  0.00    +0.134 C 
BRANCH  17  18
ATOM     18  O   UNL     1      34.187 -15.709 -25.129  0.00  0.00    -0.506 OA
ATOM     19  H   UNL     1      34.378 -15.929 -26.020  0.00  0.00    +0.292 HD
ENDBRANCH  17  18
ENDBRANCH  10  12
BRANCH   3  20
ATOM     20  O   UNL     1      35.698 -23.706 -16.277  0.00  0.00    -0.450 OA
BRANCH  20  26
ATOM     21  O   UNL     1      36.445 -23.473 -14.080  0.00  0.00    -0.316 OA
ATOM     22  C   UNL     1      33.818 -23.992 -13.041  0.00  0.00    +0.173 C 
ATOM     23  C   UNL     1      35.065 -23.999 -12.157  0.00  0.00    +0.169 C 
ATOM     24  C   UNL     1      34.178 -24.231 -14.507  0.00  0.00    +0.210 C 
ATOM     25  C   UNL     1      36.147 -23.085 -12.737  0.00  0.00    +0.177 C 
ATOM     26  C   UNL     1      35.327 -23.326 -14.952  0.00  0.00    +0.318 C 
BRANCH  22  27
ATOM     27  O   UNL     1      32.950 -25.033 -12.589  0.00  0.00    -0.379 OA
ATOM     28  H   UNL     1      32.394 -24.700 -11.867  0.00  0.00    +0.211 HD
ENDBRANCH  22  27
BRANCH  23  29
ATOM     29  O   UNL     1      34.719 -23.548 -10.849  0.00  0.00    -0.379 OA
ATOM     30  H   UNL     1      34.056 -24.144 -10.468  0.00  0.00    +0.211 HD
ENDBRANCH  23  29
BRANCH  24  31
ATOM     31  O   UNL     1      33.043 -23.947 -15.325  0.00  0.00    -0.377 OA
ATOM     32  H   UNL     1      32.391 -23.446 -14.811  0.00  0.00    +0.211 HD
ENDBRANCH  24  31
BRANCH  25  33
ATOM     33  C   UNL     1      37.443 -23.165 -11.936  0.00  0.00    +0.169 C 
BRANCH  33  34
ATOM     34  O   UNL     1      37.360 -22.257 -10.853  0.00  0.00    -0.379 OA
ATOM     35  H   UNL     1      37.936 -21.496 -11.025  0.00  0.00    +0.211 HD
ENDBRANCH  33  34
ENDBRANCH  25  33
ENDBRANCH  20  26
ENDBRANCH   3  20
TORSDOF 9
ENDMDL
MODEL 6
REMARK VINA RESULT:     -10.5      2.700     10.046
REMARK  Name = 107971
REMARK  9 active torsions:
REMARK  status: ('A' for Active; 'I' for Inactive)
REMARK    1  A    between atoms: C_3  and  O_20
REMARK    2  A    between atoms: C_10  and  C_12
REMARK    3  A    between atoms: C_17  and  O_18
REMARK    4  A    between atoms: O_20  and  C_26
REMARK    5  A    between atoms: C_22  and  O_27
REMARK    6  A    between atoms: C_23  and  O_29
REMARK    7  A    between atoms: C_24  and  O_31
REMARK    8  A    between atoms: C_25  and  C_33
REMARK    9  A    between atoms: C_33  and  O_34
REMARK                            x       y       z     vdW  Elec       q    Type
REMARK                         _______ _______ _______ _____ _____    ______ ____
ROOT
ATOM      1  O   UNL     1      32.369 -21.450 -18.696  0.00  0.00    -0.450 OA
ATOM      2  O   UNL     1      34.960 -23.329 -16.166  0.00  0.00    -0.286 OA
ATOM      3  C   UNL     1      35.504 -20.637 -20.362  0.00  0.00    +0.144 C 
ATOM      4  C   UNL     1      34.144 -20.714 -20.068  0.00  0.00    +0.075 C 
ATOM      5  C   UNL     1      36.438 -21.250 -19.526  0.00  0.00    +0.037 C 
ATOM      6  C   UNL     1      33.718 -21.408 -18.934  0.00  0.00    +0.151 C 
ATOM      7  C   UNL     1      34.651 -22.021 -18.099  0.00  0.00    +0.074 C 
ATOM      8  C   UNL     1      36.015 -21.944 -18.392  0.00  0.00    +0.009 C 
ATOM      9  C   UNL     1      34.177 -22.751 -16.909  0.00  0.00    +0.202 C 
ATOM     10  C   UNL     1      32.707 -22.756 -16.676  0.00  0.00    +0.077 C 
ATOM     11  C   UNL     1      31.941 -22.117 -17.573  0.00  0.00    +0.183 C 
ENDROOT
BRANCH  10  12
ATOM     12  C   UNL     1      32.105 -23.416 -15.505  0.00  0.00    +0.006 C 
ATOM     13  C   UNL     1      30.897 -24.106 -15.633  0.00  0.00    +0.003 C 
ATOM     14  C   UNL     1      32.741 -23.354 -14.263  0.00  0.00    +0.003 C 
ATOM     15  C   UNL     1      30.328 -24.730 -14.523  0.00  0.00    +0.037 C 
ATOM     16  C   UNL     1      32.171 -23.978 -13.153  0.00  0.00    +0.037 C 
ATOM     17  C   UNL     1      30.964 -24.666 -13.283  0.00  0.00    +0.134 C 
BRANCH  17  18
ATOM     18  O   UNL     1      30.408 -25.275 -12.200  0.00  0.00    -0.506 OA
ATOM     19  H   UNL     1      29.986 -24.761 -11.540  0.00  0.00    +0.292 HD
ENDBRANCH  17  18
ENDBRANCH  10  12
BRANCH   3  20
ATOM     20  O   UNL     1      35.924 -19.959 -21.468  0.00  0.00    -0.450 OA
BRANCH  20  26
ATOM     21  O   UNL     1      34.533 -19.523 -23.289  0.00  0.00    -0.316 OA
ATOM     22  C   UNL     1      34.855 -16.687 -22.966  0.00  0.00    +0.173 C 
ATOM     23  C   UNL     1      34.242 -17.304 -24.223  0.00  0.00    +0.169 C 
ATOM     24  C   UNL     1      35.728 -17.697 -22.223  0.00  0.00    +0.210 C 
ATOM     25  C   UNL     1      33.583 -18.648 -23.902  0.00  0.00    +0.177 C 
ATOM     26  C   UNL     1      35.001 -19.029 -22.036  0.00  0.00    +0.318 C 
BRANCH  22  27
ATOM     27  O   UNL     1      35.654 -15.572 -23.366  0.00  0.00    -0.379 OA
ATOM     28  H   UNL     1      36.071 -15.176 -22.585  0.00  0.00    +0.211 HD
ENDBRANCH  22  27
BRANCH  23  29
ATOM     29  O   UNL     1      33.263 -16.415 -24.755  0.00  0.00    -0.379 OA
ATOM     30  H   UNL     1      33.644 -15.527 -24.838  0.00  0.00    +0.211 HD
ENDBRANCH  23  29
BRANCH  24  31
ATOM     31  O   UNL     1      36.055 -17.182 -20.932  0.00  0.00    -0.377 OA
ATOM     32  H   UNL     1      36.968 -16.854 -20.937  0.00  0.00    +0.211 HD
ENDBRANCH  24  31
BRANCH  25  33
ATOM     33  C   UNL     1      33.066 -19.339 -25.160  0.00  0.00    +0.169 C 
BRANCH  33  34
ATOM     34  O   UNL     1      31.822 -18.761 -25.511  0.00  0.00    -0.379 OA
ATOM     35  H   UNL     1      31.792 -17.844 -25.198  0.00  0.00    +0.211 HD
ENDBRANCH  33  34
ENDBRANCH  25  33
ENDBRANCH  20  26
ENDBRANCH   3  20
TORSDOF 9
ENDMDL
MODEL 7
REMARK VINA RESULT:     -10.3      1.669      3.195
REMARK  Name = 107971
REMARK  9 active torsions:
REMARK  status: ('A' for Active; 'I' for Inactive)
REMARK    1  A    between atoms: C_3  and  O_20
REMARK    2  A    between atoms: C_10  and  C_12
REMARK    3  A    between atoms: C_17  and  O_18
REMARK    4  A    between atoms: O_20  and  C_26
REMARK    5  A    between atoms: C_22  and  O_27
REMARK    6  A    between atoms: C_23  and  O_29
REMARK    7  A    between atoms: C_24  and  O_31
REMARK    8  A    between atoms: C_25  and  C_33
REMARK    9  A    between atoms: C_33  and  O_34
REMARK                            x       y       z     vdW  Elec       q    Type
REMARK                         _______ _______ _______ _____ _____    ______ ____
ROOT
ATOM      1  O   UNL     1      37.788 -19.378 -18.970  0.00  0.00    -0.450 OA
ATOM      2  O   UNL     1      34.319 -21.031 -20.341  0.00  0.00    -0.286 OA
ATOM      3  C   UNL     1      37.304 -21.926 -16.411  0.00  0.00    +0.144 C 
ATOM      4  C   UNL     1      37.851 -20.873 -17.143  0.00  0.00    +0.075 C 
ATOM      5  C   UNL     1      36.113 -22.523 -16.826  0.00  0.00    +0.037 C 
ATOM      6  C   UNL     1      37.204 -20.416 -18.292  0.00  0.00    +0.151 C 
ATOM      7  C   UNL     1      36.013 -21.013 -18.707  0.00  0.00    +0.074 C 
ATOM      8  C   UNL     1      35.463 -22.069 -17.975  0.00  0.00    +0.009 C 
ATOM      9  C   UNL     1      35.349 -20.517 -19.926  0.00  0.00    +0.202 C 
ATOM     10  C   UNL     1      36.006 -19.376 -20.621  0.00  0.00    +0.077 C 
ATOM     11  C   UNL     1      37.149 -18.911 -20.094  0.00  0.00    +0.183 C 
ENDROOT
BRANCH  10  12
ATOM     12  C   UNL     1      35.428 -18.760 -21.827  0.00  0.00    +0.006 C 
ATOM     13  C   UNL     1      34.820 -19.558 -22.799  0.00  0.00    +0.003 C 
ATOM     14  C   UNL     1      35.485 -17.375 -22.003  0.00  0.00    +0.003 C 
ATOM     15  C   UNL     1      34.273 -18.974 -23.941  0.00  0.00    +0.037 C 
ATOM     16  C   UNL     1      34.938 -16.792 -23.145  0.00  0.00    +0.037 C 
ATOM     17  C   UNL     1      34.332 -17.591 -24.115  0.00  0.00    +0.134 C 
BRANCH  17  18
ATOM     18  O   UNL     1      33.798 -17.022 -25.230  0.00  0.00    -0.506 OA
ATOM     19  H   UNL     1      34.275 -16.362 -25.692  0.00  0.00    +0.292 HD
ENDBRANCH  17  18
ENDBRANCH  10  12
BRANCH   3  20
ATOM     20  O   UNL     1      37.933 -22.373 -15.288  0.00  0.00    -0.450 OA
BRANCH  20  26
ATOM     21  O   UNL     1      36.623 -23.315 -13.602  0.00  0.00    -0.316 OA
ATOM     22  C   UNL     1      38.229 -25.696 -13.565  0.00  0.00    +0.173 C 
ATOM     23  C   UNL     1      37.219 -25.372 -12.465  0.00  0.00    +0.169 C 
ATOM     24  C   UNL     1      38.659 -24.433 -14.312  0.00  0.00    +0.210 C 
ATOM     25  C   UNL     1      36.085 -24.498 -13.009  0.00  0.00    +0.177 C 
ATOM     26  C   UNL     1      37.450 -23.595 -14.729  0.00  0.00    +0.318 C 
BRANCH  22  27
ATOM     27  O   UNL     1      39.371 -26.298 -12.953  0.00  0.00    -0.379 OA
ATOM     28  H   UNL     1      40.060 -26.438 -13.621  0.00  0.00    +0.211 HD
ENDBRANCH  22  27
BRANCH  23  29
ATOM     29  O   UNL     1      36.674 -26.585 -11.953  0.00  0.00    -0.379 OA
ATOM     30  H   UNL     1      36.112 -26.389 -11.187  0.00  0.00    +0.211 HD
ENDBRANCH  23  29
BRANCH  24  31
ATOM     31  O   UNL     1      39.376 -24.800 -15.489  0.00  0.00    -0.377 OA
ATOM     32  H   UNL     1      39.387 -25.766 -15.573  0.00  0.00    +0.211 HD
ENDBRANCH  24  31
BRANCH  25  33
ATOM     33  C   UNL     1      35.126 -24.065 -11.904  0.00  0.00    +0.169 C 
BRANCH  33  34
ATOM     34  O   UNL     1      34.312 -25.170 -11.556  0.00  0.00    -0.379 OA
ATOM     35  H   UNL     1      33.388 -24.971 -11.771  0.00  0.00    +0.211 HD
ENDBRANCH  33  34
ENDBRANCH  25  33
ENDBRANCH  20  26
ENDBRANCH   3  20
TORSDOF 9
ENDMDL
MODEL 8
REMARK VINA RESULT:     -10.1      1.722     10.012
REMARK  Name = 107971
REMARK  9 active torsions:
REMARK  status: ('A' for Active; 'I' for Inactive)
REMARK    1  A    between atoms: C_3  and  O_20
REMARK    2  A    between atoms: C_10  and  C_12
REMARK    3  A    between atoms: C_17  and  O_18
REMARK    4  A    between atoms: O_20  and  C_26
REMARK    5  A    between atoms: C_22  and  O_27
REMARK    6  A    between atoms: C_23  and  O_29
REMARK    7  A    between atoms: C_24  and  O_31
REMARK    8  A    between atoms: C_25  and  C_33
REMARK    9  A    between atoms: C_33  and  O_34
REMARK                            x       y       z     vdW  Elec       q    Type
REMARK                         _______ _______ _______ _____ _____    ______ ____
ROOT
ATOM      1  O   UNL     1      33.533 -22.887 -17.286  0.00  0.00    -0.450 OA
ATOM      2  O   UNL     1      37.476 -22.563 -16.293  0.00  0.00    -0.286 OA
ATOM      3  C   UNL     1      34.664 -20.809 -20.057  0.00  0.00    +0.144 C 
ATOM      4  C   UNL     1      33.845 -21.561 -19.216  0.00  0.00    +0.075 C 
ATOM      5  C   UNL     1      36.019 -20.654 -19.761  0.00  0.00    +0.037 C 
ATOM      6  C   UNL     1      34.385 -22.159 -18.076  0.00  0.00    +0.151 C 
ATOM      7  C   UNL     1      35.739 -22.004 -17.780  0.00  0.00    +0.074 C 
ATOM      8  C   UNL     1      36.561 -21.251 -18.622  0.00  0.00    +0.009 C 
ATOM      9  C   UNL     1      36.288 -22.649 -16.573  0.00  0.00    +0.202 C 
ATOM     10  C   UNL     1      35.324 -23.413 -15.733  0.00  0.00    +0.077 C 
ATOM     11  C   UNL     1      34.051 -23.466 -16.153  0.00  0.00    +0.183 C 
ENDROOT
BRANCH  10  12
ATOM     12  C   UNL     1      35.733 -24.072 -14.482  0.00  0.00    +0.006 C 
ATOM     13  C   UNL     1      35.390 -23.511 -13.249  0.00  0.00    +0.003 C 
ATOM     14  C   UNL     1      36.465 -25.261 -14.524  0.00  0.00    +0.003 C 
ATOM     15  C   UNL     1      35.777 -24.137 -12.065  0.00  0.00    +0.037 C 
ATOM     16  C   UNL     1      36.853 -25.885 -13.338  0.00  0.00    +0.037 C 
ATOM     17  C   UNL     1      36.509 -25.324 -12.109  0.00  0.00    +0.134 C 
BRANCH  17  18
ATOM     18  O   UNL     1      36.888 -25.933 -10.952  0.00  0.00    -0.506 OA
ATOM     19  H   UNL     1      37.550 -25.546 -10.414  0.00  0.00    +0.292 HD
ENDBRANCH  17  18
ENDBRANCH  10  12
BRANCH   3  20
ATOM     20  O   UNL     1      34.140 -20.222 -21.170  0.00  0.00    -0.450 OA
BRANCH  20  26
ATOM     21  O   UNL     1      34.525 -17.932 -20.948  0.00  0.00    -0.316 OA
ATOM     22  C   UNL     1      35.048 -17.660 -23.759  0.00  0.00    +0.173 C 
ATOM     23  C   UNL     1      34.814 -16.454 -22.848  0.00  0.00    +0.169 C 
ATOM     24  C   UNL     1      34.446 -18.930 -23.160  0.00  0.00    +0.210 C 
ATOM     25  C   UNL     1      35.224 -16.774 -21.408  0.00  0.00    +0.177 C 
ATOM     26  C   UNL     1      34.851 -19.101 -21.696  0.00  0.00    +0.318 C 
BRANCH  22  27
ATOM     27  O   UNL     1      34.430 -17.389 -25.018  0.00  0.00    -0.379 OA
ATOM     28  H   UNL     1      33.477 -17.557 -24.954  0.00  0.00    +0.211 HD
ENDBRANCH  22  27
BRANCH  23  29
ATOM     29  O   UNL     1      35.581 -15.350 -23.322  0.00  0.00    -0.379 OA
ATOM     30  H   UNL     1      35.125 -14.523 -23.104  0.00  0.00    +0.211 HD
ENDBRANCH  23  29
BRANCH  24  31
ATOM     31  O   UNL     1      34.915 -20.065 -23.888  0.00  0.00    -0.377 OA
ATOM     32  H   UNL     1      34.468 -20.105 -24.748  0.00  0.00    +0.211 HD
ENDBRANCH  24  31
BRANCH  25  33
ATOM     33  C   UNL     1      34.892 -15.627 -20.459  0.00  0.00    +0.169 C 
BRANCH  33  34
ATOM     34  O   UNL     1      34.114 -14.674 -21.160  0.00  0.00    -0.379 OA
ATOM     35  H   UNL     1      33.899 -15.018 -22.041  0.00  0.00    +0.211 HD
ENDBRANCH  33  34
ENDBRANCH  25  33
ENDBRANCH  20  26
ENDBRANCH   3  20
TORSDOF 9
ENDMDL
MODEL 9
REMARK VINA RESULT:     -10.1      1.290      2.600
REMARK  Name = 107971
REMARK  9 active torsions:
REMARK  status: ('A' for Active; 'I' for Inactive)
REMARK    1  A    between atoms: C_3  and  O_20
REMARK    2  A    between atoms: C_10  and  C_12
REMARK    3  A    between atoms: C_17  and  O_18
REMARK    4  A    between atoms: O_20  and  C_26
REMARK    5  A    between atoms: C_22  and  O_27
REMARK    6  A    between atoms: C_23  and  O_29
REMARK    7  A    between atoms: C_24  and  O_31
REMARK    8  A    between atoms: C_25  and  C_33
REMARK    9  A    between atoms: C_33  and  O_34
REMARK                            x       y       z     vdW  Elec       q    Type
REMARK                         _______ _______ _______ _____ _____    ______ ____
ROOT
ATOM      1  O   UNL     1      32.971 -21.880 -18.769  0.00  0.00    -0.450 OA
ATOM      2  O   UNL     1      36.729 -20.354 -19.210  0.00  0.00    -0.286 OA
ATOM      3  C   UNL     1      34.624 -23.594 -16.012  0.00  0.00    +0.144 C 
ATOM      4  C   UNL     1      33.645 -23.168 -16.909  0.00  0.00    +0.075 C 
ATOM      5  C   UNL     1      35.930 -23.114 -16.121  0.00  0.00    +0.037 C 
ATOM      6  C   UNL     1      33.974 -22.262 -17.917  0.00  0.00    +0.151 C 
ATOM      7  C   UNL     1      35.280 -21.782 -18.026  0.00  0.00    +0.074 C 
ATOM      8  C   UNL     1      36.262 -22.207 -17.128  0.00  0.00    +0.009 C 
ATOM      9  C   UNL     1      35.604 -20.822 -19.097  0.00  0.00    +0.202 C 
ATOM     10  C   UNL     1      34.490 -20.449 -20.012  0.00  0.00    +0.077 C 
ATOM     11  C   UNL     1      33.290 -21.000 -19.775  0.00  0.00    +0.183 C 
ENDROOT
BRANCH  10  12
ATOM     12  C   UNL     1      34.687 -19.530 -21.145  0.00  0.00    +0.006 C 
ATOM     13  C   UNL     1      35.383 -18.332 -20.964  0.00  0.00    +0.003 C 
ATOM     14  C   UNL     1      34.178 -19.852 -22.405  0.00  0.00    +0.003 C 
ATOM     15  C   UNL     1      35.569 -17.462 -22.038  0.00  0.00    +0.037 C 
ATOM     16  C   UNL     1      34.363 -18.981 -23.479  0.00  0.00    +0.037 C 
ATOM     17  C   UNL     1      35.059 -17.786 -23.295  0.00  0.00    +0.134 C 
BRANCH  17  18
ATOM     18  O   UNL     1      35.241 -16.936 -24.343  0.00  0.00    -0.506 OA
ATOM     19  H   UNL     1      34.815 -16.101 -24.347  0.00  0.00    +0.292 HD
ENDBRANCH  17  18
ENDBRANCH  10  12
BRANCH   3  20
ATOM     20  O   UNL     1      34.306 -24.481 -15.027  0.00  0.00    -0.450 OA
BRANCH  20  26
ATOM     21  O   UNL     1      35.872 -23.699 -13.485  0.00  0.00    -0.316 OA
ATOM     22  C   UNL     1      37.690 -25.829 -14.119  0.00  0.00    +0.173 C 
ATOM     23  C   UNL     1      38.113 -24.605 -13.308  0.00  0.00    +0.169 C 
ATOM     24  C   UNL     1      36.455 -25.530 -14.969  0.00  0.00    +0.210 C 
ATOM     25  C   UNL     1      36.917 -24.008 -12.561  0.00  0.00    +0.177 C 
ATOM     26  C   UNL     1      35.361 -24.856 -14.141  0.00  0.00    +0.318 C 
BRANCH  22  27
ATOM     27  O   UNL     1      38.777 -26.191 -14.973  0.00  0.00    -0.379 OA
ATOM     28  H   UNL     1      38.438 -26.405 -15.856  0.00  0.00    +0.211 HD
ENDBRANCH  22  27
BRANCH  23  29
ATOM     29  O   UNL     1      39.113 -24.986 -12.367  0.00  0.00    -0.379 OA
ATOM     30  H   UNL     1      39.986 -24.947 -12.788  0.00  0.00    +0.211 HD
ENDBRANCH  23  29
BRANCH  24  31
ATOM     31  O   UNL     1      35.932 -26.751 -15.491  0.00  0.00    -0.377 OA
ATOM     32  H   UNL     1      35.064 -26.927 -15.095  0.00  0.00    +0.211 HD
ENDBRANCH  24  31
BRANCH  25  33
ATOM     33  C   UNL     1      37.290 -22.718 -11.838  0.00  0.00    +0.169 C 
BRANCH  33  34
ATOM     34  O   UNL     1      37.643 -23.037 -10.504  0.00  0.00    -0.379 OA
ATOM     35  H   UNL     1      38.254 -23.790 -10.502  0.00  0.00    +0.211 HD
ENDBRANCH  33  34
ENDBRANCH  25  33
ENDBRANCH  20  26
ENDBRANCH   3  20
TORSDOF 9
ENDMDL
