MODEL 1
REMARK VINA RESULT:     -11.7      0.000      0.000
REMARK  Name = 11677589
REMARK  7 active torsions:
REMARK  status: ('A' for Active; 'I' for Inactive)
REMARK    1  A    between atoms: C_1  and  N_7
REMARK    2  A    between atoms: C_2  and  C_20
REMARK    3  A    between atoms: C_11  and  C_18
REMARK    4  A    between atoms: C_20  and  C_21
REMARK    5  A    between atoms: C_21  and  N_23
REMARK    6  A    between atoms: N_24  and  S_28
REMARK    7  A    between atoms: S_28  and  C_31
REMARK                            x       y       z     vdW  Elec       q    Type
REMARK                         _______ _______ _______ _____ _____    ______ ____
ROOT
ATOM      1  C   UNL     1      35.420 -22.802 -16.431  0.00  0.00    +0.058 C 
ATOM      2  C   UNL     1      35.233 -21.514 -18.884  0.00  0.00    -0.020 C 
ATOM      3  C   UNL     1      34.241 -22.885 -17.161  0.00  0.00    +0.015 C 
ATOM      4  C   UNL     1      36.507 -22.083 -16.912  0.00  0.00    +0.015 C 
ATOM      5  C   UNL     1      34.147 -22.238 -18.393  0.00  0.00    -0.003 C 
ATOM      6  C   UNL     1      36.413 -21.436 -18.144  0.00  0.00    -0.003 C 
ENDROOT
BRANCH   1   7
ATOM      7  N   UNL     1      35.514 -23.449 -15.198  0.00  0.00    -0.242 N 
ATOM      8  N   UNL     1      34.904 -24.256 -13.219  0.00  0.00    -0.387 NA
ATOM      9  N   UNL     1      38.433 -25.378 -13.101  0.00  0.00    -0.408 NA
ATOM     10  C   UNL     1      36.637 -24.045 -14.684  0.00  0.00    +0.091 C 
ATOM     11  C   UNL     1      34.506 -23.602 -14.287  0.00  0.00    +0.168 C 
ATOM     12  C   UNL     1      36.229 -24.541 -13.449  0.00  0.00    +0.172 C 
ATOM     13  C   UNL     1      37.928 -24.190 -15.171  0.00  0.00    +0.045 C 
ATOM     14  C   UNL     1      37.161 -25.216 -12.660  0.00  0.00    +0.140 C 
ATOM     15  C   UNL     1      38.776 -24.875 -14.312  0.00  0.00    +0.110 C 
ATOM     16  C   UNL     1      36.834 -25.788 -11.321  0.00  0.00    +0.069 C 
ATOM     17  C   UNL     1      40.193 -25.092 -14.733  0.00  0.00    +0.066 C 
BRANCH  11  18
ATOM     18  C   UNL     1      33.142 -23.078 -14.512  0.00  0.00    +0.075 C 
ATOM     19  C   UNL     1      32.154 -23.518 -13.426  0.00  0.00    +0.009 C 
ENDBRANCH  11  18
ENDBRANCH   1   7
BRANCH   2  20
ATOM     20  C   UNL     1      35.132 -20.821 -20.201  0.00  0.00    +0.048 C 
BRANCH  20  21
ATOM     21  C   UNL     1      36.252 -19.801 -20.444  0.00  0.00    +0.096 C 
BRANCH  21  23
ATOM     22  O   UNL     1      35.278 -19.432 -23.121  0.00  0.00    -0.251 OA
ATOM     23  N   UNL     1      35.762 -18.580 -21.025  0.00  0.00    -0.287 N 
ATOM     24  N   UNL     1      34.878 -17.172 -22.681  0.00  0.00    -0.169 N 
ATOM     25  C   UNL     1      35.309 -18.492 -22.332  0.00  0.00    +0.319 C 
ATOM     26  H   UNL     1      35.748 -17.768 -20.469  0.00  0.00    +0.151 HD
ATOM     27  H   UNL     1      34.942 -16.478 -21.986  0.00  0.00    +0.178 HD
BRANCH  24  28
ATOM     28  S   UNL     1      34.263 -16.703 -24.205  0.00  0.00    +0.077 S 
ATOM     29  O   UNL     1      35.308 -16.825 -25.203  0.00  0.00    -0.150 OA
ATOM     30  O   UNL     1      32.971 -17.329 -24.413  0.00  0.00    -0.150 OA
BRANCH  28  31
ATOM     31  C   UNL     1      33.959 -14.984 -23.932  0.00  0.00    +0.125 C 
ATOM     32  C   UNL     1      34.182 -14.448 -22.676  0.00  0.00    +0.020 C 
ATOM     33  C   UNL     1      33.503 -14.204 -24.981  0.00  0.00    +0.020 C 
ATOM     34  C   UNL     1      33.483 -12.290 -23.507  0.00  0.00    -0.022 C 
ATOM     35  C   UNL     1      33.943 -13.090 -22.461  0.00  0.00    -0.003 C 
ATOM     36  C   UNL     1      33.264 -12.846 -24.767  0.00  0.00    -0.003 C 
ATOM     37  C   UNL     1      33.229 -10.839 -23.277  0.00  0.00    +0.031 C 
ENDBRANCH  28  31
ENDBRANCH  24  28
ENDBRANCH  21  23
ENDBRANCH  20  21
ENDBRANCH   2  20
TORSDOF 7
ENDMDL
MODEL 2
REMARK VINA RESULT:     -11.6      3.758     13.099
REMARK  Name = 11677589
REMARK  7 active torsions:
REMARK  status: ('A' for Active; 'I' for Inactive)
REMARK    1  A    between atoms: C_1  and  N_7
REMARK    2  A    between atoms: C_2  and  C_20
REMARK    3  A    between atoms: C_11  and  C_18
REMARK    4  A    between atoms: C_20  and  C_21
REMARK    5  A    between atoms: C_21  and  N_23
REMARK    6  A    between atoms: N_24  and  S_28
REMARK    7  A    between atoms: S_28  and  C_31
REMARK                            x       y       z     vdW  Elec       q    Type
REMARK                         _______ _______ _______ _____ _____    ______ ____
ROOT
ATOM      1  C   UNL     1      33.723 -12.833 -23.454  0.00  0.00    +0.058 C 
ATOM      2  C   UNL     1      34.247 -15.560 -23.422  0.00  0.00    -0.020 C 
ATOM      3  C   UNL     1      33.401 -13.606 -24.562  0.00  0.00    +0.015 C 
ATOM      4  C   UNL     1      34.304 -13.406 -22.330  0.00  0.00    +0.015 C 
ATOM      5  C   UNL     1      33.664 -14.976 -24.546  0.00  0.00    -0.003 C 
ATOM      6  C   UNL     1      34.568 -14.776 -22.313  0.00  0.00    -0.003 C 
ENDROOT
BRANCH   1   7
ATOM      7  N   UNL     1      33.460 -11.463 -23.469  0.00  0.00    -0.242 N 
ATOM      8  N   UNL     1      33.409  -9.361 -24.192  0.00  0.00    -0.387 NA
ATOM      9  N   UNL     1      31.687  -8.776 -20.965  0.00  0.00    -0.408 NA
ATOM     10  C   UNL     1      32.829 -10.751 -22.482  0.00  0.00    +0.091 C 
ATOM     11  C   UNL     1      33.787 -10.589 -24.469  0.00  0.00    +0.168 C 
ATOM     12  C   UNL     1      32.810  -9.443 -22.958  0.00  0.00    +0.172 C 
ATOM     13  C   UNL     1      32.292 -11.121 -21.257  0.00  0.00    +0.045 C 
ATOM     14  C   UNL     1      32.223  -8.454 -22.169  0.00  0.00    +0.140 C 
ATOM     15  C   UNL     1      31.733 -10.066 -20.550  0.00  0.00    +0.110 C 
ATOM     16  C   UNL     1      32.146  -7.022 -22.578  0.00  0.00    +0.069 C 
ATOM     17  C   UNL     1      31.123 -10.346 -19.215  0.00  0.00    +0.066 C 
BRANCH  11  18
ATOM     18  C   UNL     1      34.485 -11.013 -25.702  0.00  0.00    +0.075 C 
ATOM     19  C   UNL     1      35.652 -10.089 -26.068  0.00  0.00    +0.009 C 
ENDBRANCH  11  18
ENDBRANCH   1   7
BRANCH   2  20
ATOM     20  C   UNL     1      34.529 -17.025 -23.405  0.00  0.00    +0.048 C 
BRANCH  20  21
ATOM     21  C   UNL     1      35.668 -17.418 -22.458  0.00  0.00    +0.096 C 
BRANCH  21  23
ATOM     22  O   UNL     1      37.397 -19.122 -20.922  0.00  0.00    -0.251 OA
ATOM     23  N   UNL     1      35.271 -18.431 -21.517  0.00  0.00    -0.287 N 
ATOM     24  N   UNL     1      35.540 -20.152 -19.946  0.00  0.00    -0.169 N 
ATOM     25  C   UNL     1      36.177 -19.211 -20.816  0.00  0.00    +0.319 C 
ATOM     26  H   UNL     1      34.310 -18.579 -21.365  0.00  0.00    +0.151 HD
ATOM     27  H   UNL     1      34.556 -20.157 -19.928  0.00  0.00    +0.178 HD
BRANCH  24  28
ATOM     28  S   UNL     1      36.349 -21.269 -18.935  0.00  0.00    +0.077 S 
ATOM     29  O   UNL     1      36.941 -22.313 -19.750  0.00  0.00    -0.150 OA
ATOM     30  O   UNL     1      37.153 -20.545 -17.969  0.00  0.00    -0.150 OA
BRANCH  28  31
ATOM     31  C   UNL     1      34.990 -21.968 -18.047  0.00  0.00    +0.125 C 
ATOM     32  C   UNL     1      35.227 -22.613 -16.846  0.00  0.00    +0.020 C 
ATOM     33  C   UNL     1      33.713 -21.857 -18.570  0.00  0.00    +0.020 C 
ATOM     34  C   UNL     1      32.861 -23.061 -16.657  0.00  0.00    -0.022 C 
ATOM     35  C   UNL     1      34.154 -23.164 -16.145  0.00  0.00    -0.003 C 
ATOM     36  C   UNL     1      32.640 -22.408 -17.869  0.00  0.00    -0.003 C 
ATOM     37  C   UNL     1      31.714 -23.649 -15.907  0.00  0.00    +0.031 C 
ENDBRANCH  28  31
ENDBRANCH  24  28
ENDBRANCH  21  23
ENDBRANCH  20  21
ENDBRANCH   2  20
TORSDOF 7
ENDMDL
MODEL 3
REMARK VINA RESULT:     -11.4      0.744      2.794
REMARK  Name = 11677589
REMARK  7 active torsions:
REMARK  status: ('A' for Active; 'I' for Inactive)
REMARK    1  A    between atoms: C_1  and  N_7
REMARK    2  A    between atoms: C_2  and  C_20
REMARK    3  A    between atoms: C_11  and  C_18
REMARK    4  A    between atoms: C_20  and  C_21
REMARK    5  A    between atoms: C_21  and  N_23
REMARK    6  A    between atoms: N_24  and  S_28
REMARK    7  A    between atoms: S_28  and  C_31
REMARK                            x       y       z     vdW  Elec       q    Type
REMARK                         _______ _______ _______ _____ _____    ______ ____
ROOT
ATOM      1  C   UNL     1      35.826 -22.612 -16.464  0.00  0.00    +0.058 C 
ATOM      2  C   UNL     1      35.459 -21.419 -18.944  0.00  0.00    -0.020 C 
ATOM      3  C   UNL     1      34.619 -22.777 -17.131  0.00  0.00    +0.015 C 
ATOM      4  C   UNL     1      36.852 -21.859 -17.019  0.00  0.00    +0.015 C 
ATOM      5  C   UNL     1      34.435 -22.177 -18.377  0.00  0.00    -0.003 C 
ATOM      6  C   UNL     1      36.668 -21.259 -18.265  0.00  0.00    -0.003 C 
ENDROOT
BRANCH   1   7
ATOM      7  N   UNL     1      36.011 -23.211 -15.217  0.00  0.00    -0.242 N 
ATOM      8  N   UNL     1      37.055 -24.147 -13.491  0.00  0.00    -0.387 NA
ATOM      9  N   UNL     1      33.625 -24.336 -12.106  0.00  0.00    -0.408 NA
ATOM     10  C   UNL     1      35.027 -23.502 -14.308  0.00  0.00    +0.091 C 
ATOM     11  C   UNL     1      37.204 -23.615 -14.684  0.00  0.00    +0.168 C 
ATOM     12  C   UNL     1      35.705 -24.085 -13.241  0.00  0.00    +0.172 C 
ATOM     13  C   UNL     1      33.652 -23.315 -14.322  0.00  0.00    +0.045 C 
ATOM     14  C   UNL     1      34.970 -24.502 -12.130  0.00  0.00    +0.140 C 
ATOM     15  C   UNL     1      33.015 -23.763 -13.173  0.00  0.00    +0.110 C 
ATOM     16  C   UNL     1      35.592 -25.137 -10.933  0.00  0.00    +0.069 C 
ATOM     17  C   UNL     1      31.532 -23.612 -13.076  0.00  0.00    +0.066 C 
BRANCH  11  18
ATOM     18  C   UNL     1      38.490 -23.455 -15.396  0.00  0.00    +0.075 C 
ATOM     19  C   UNL     1      39.507 -24.541 -15.029  0.00  0.00    +0.009 C 
ENDBRANCH  11  18
ENDBRANCH   1   7
BRANCH   2  20
ATOM     20  C   UNL     1      35.262 -20.777 -20.276  0.00  0.00    +0.048 C 
BRANCH  20  21
ATOM     21  C   UNL     1      36.388 -19.811 -20.663  0.00  0.00    +0.096 C 
BRANCH  21  23
ATOM     22  O   UNL     1      35.301 -19.349 -23.282  0.00  0.00    -0.251 OA
ATOM     23  N   UNL     1      35.885 -18.568 -21.185  0.00  0.00    -0.287 N 
ATOM     24  N   UNL     1      34.944 -17.101 -22.755  0.00  0.00    -0.169 N 
ATOM     25  C   UNL     1      35.376 -18.435 -22.467  0.00  0.00    +0.319 C 
ATOM     26  H   UNL     1      35.905 -17.773 -20.604  0.00  0.00    +0.151 HD
ATOM     27  H   UNL     1      35.046 -16.429 -22.043  0.00  0.00    +0.178 HD
BRANCH  24  28
ATOM     28  S   UNL     1      34.267 -16.579 -24.235  0.00  0.00    +0.077 S 
ATOM     29  O   UNL     1      35.289 -16.596 -25.264  0.00  0.00    -0.150 OA
ATOM     30  O   UNL     1      33.000 -17.254 -24.446  0.00  0.00    -0.150 OA
BRANCH  28  31
ATOM     31  C   UNL     1      33.891 -14.894 -23.860  0.00  0.00    +0.125 C 
ATOM     32  C   UNL     1      33.957 -14.462 -22.546  0.00  0.00    +0.020 C 
ATOM     33  C   UNL     1      33.537 -14.036 -24.886  0.00  0.00    +0.020 C 
ATOM     34  C   UNL     1      33.302 -12.253 -23.272  0.00  0.00    -0.022 C 
ATOM     35  C   UNL     1      33.660 -13.131 -22.250  0.00  0.00    -0.003 C 
ATOM     36  C   UNL     1      33.241 -12.705 -24.591  0.00  0.00    -0.003 C 
ATOM     37  C   UNL     1      32.987 -10.831 -22.956  0.00  0.00    +0.031 C 
ENDBRANCH  28  31
ENDBRANCH  24  28
ENDBRANCH  21  23
ENDBRANCH  20  21
ENDBRANCH   2  20
TORSDOF 7
ENDMDL
MODEL 4
REMARK VINA RESULT:     -11.4      1.692      3.962
REMARK  Name = 11677589
REMARK  7 active torsions:
REMARK  status: ('A' for Active; 'I' for Inactive)
REMARK    1  A    between atoms: C_1  and  N_7
REMARK    2  A    between atoms: C_2  and  C_20
REMARK    3  A    between atoms: C_11  and  C_18
REMARK    4  A    between atoms: C_20  and  C_21
REMARK    5  A    between atoms: C_21  and  N_23
REMARK    6  A    between atoms: N_24  and  S_28
REMARK    7  A    between atoms: S_28  and  C_31
REMARK                            x       y       z     vdW  Elec       q    Type
REMARK                         _______ _______ _______ _____ _____    ______ ____
ROOT
ATOM      1  C   UNL     1      33.985 -22.508 -17.280  0.00  0.00    +0.058 C 
ATOM      2  C   UNL     1      34.984 -21.237 -19.538  0.00  0.00    -0.020 C 
ATOM      3  C   UNL     1      33.108 -22.067 -18.263  0.00  0.00    +0.015 C 
ATOM      4  C   UNL     1      35.355 -22.322 -17.411  0.00  0.00    +0.015 C 
ATOM      5  C   UNL     1      33.610 -21.428 -19.397  0.00  0.00    -0.003 C 
ATOM      6  C   UNL     1      35.857 -21.683 -18.545  0.00  0.00    -0.003 C 
ENDROOT
BRANCH   1   7
ATOM      7  N   UNL     1      33.484 -23.147 -16.145  0.00  0.00    -0.242 N 
ATOM      8  N   UNL     1      33.464 -24.269 -14.226  0.00  0.00    -0.387 NA
ATOM      9  N   UNL     1      29.795 -23.892 -14.572  0.00  0.00    -0.408 NA
ATOM     10  C   UNL     1      32.161 -23.278 -15.812  0.00  0.00    +0.091 C 
ATOM     11  C   UNL     1      34.223 -23.754 -15.168  0.00  0.00    +0.168 C 
ATOM     12  C   UNL     1      32.176 -23.982 -14.611  0.00  0.00    +0.172 C 
ATOM     13  C   UNL     1      30.991 -22.860 -16.432  0.00  0.00    +0.045 C 
ATOM     14  C   UNL     1      30.959 -24.283 -13.998  0.00  0.00    +0.140 C 
ATOM     15  C   UNL     1      29.838 -23.208 -15.742  0.00  0.00    +0.110 C 
ATOM     16  C   UNL     1      30.857 -25.031 -12.712  0.00  0.00    +0.069 C 
ATOM     17  C   UNL     1      28.517 -22.809 -16.316  0.00  0.00    +0.066 C 
BRANCH  11  18
ATOM     18  C   UNL     1      35.700 -23.806 -15.202  0.00  0.00    +0.075 C 
ATOM     19  C   UNL     1      36.325 -23.741 -13.804  0.00  0.00    +0.009 C 
ENDBRANCH  11  18
ENDBRANCH   1   7
BRANCH   2  20
ATOM     20  C   UNL     1      35.521 -20.553 -20.750  0.00  0.00    +0.048 C 
BRANCH  20  21
ATOM     21  C   UNL     1      36.370 -19.317 -20.431  0.00  0.00    +0.096 C 
BRANCH  21  23
ATOM     22  O   UNL     1      35.356 -19.023 -23.103  0.00  0.00    -0.251 OA
ATOM     23  N   UNL     1      35.840 -18.121 -21.028  0.00  0.00    -0.287 N 
ATOM     24  N   UNL     1      34.898 -16.768 -22.698  0.00  0.00    -0.169 N 
ATOM     25  C   UNL     1      35.370 -18.069 -22.331  0.00  0.00    +0.319 C 
ATOM     26  H   UNL     1      35.810 -17.300 -20.487  0.00  0.00    +0.151 HD
ATOM     27  H   UNL     1      34.951 -16.060 -22.016  0.00  0.00    +0.178 HD
BRANCH  24  28
ATOM     28  S   UNL     1      34.252 -16.344 -24.222  0.00  0.00    +0.077 S 
ATOM     29  O   UNL     1      35.289 -16.452 -25.230  0.00  0.00    -0.150 OA
ATOM     30  O   UNL     1      32.977 -17.011 -24.404  0.00  0.00    -0.150 OA
BRANCH  28  31
ATOM     31  C   UNL     1      33.901 -14.629 -23.975  0.00  0.00    +0.125 C 
ATOM     32  C   UNL     1      33.628 -13.830 -25.072  0.00  0.00    +0.020 C 
ATOM     33  C   UNL     1      33.905 -14.117 -22.690  0.00  0.00    +0.020 C 
ATOM     34  C   UNL     1      33.350 -11.944 -23.588  0.00  0.00    -0.022 C 
ATOM     35  C   UNL     1      33.350 -12.477 -24.877  0.00  0.00    -0.003 C 
ATOM     36  C   UNL     1      33.627 -12.764 -22.494  0.00  0.00    -0.003 C 
ATOM     37  C   UNL     1      33.052 -10.498 -23.380  0.00  0.00    +0.031 C 
ENDBRANCH  28  31
ENDBRANCH  24  28
ENDBRANCH  21  23
ENDBRANCH  20  21
ENDBRANCH   2  20
TORSDOF 7
ENDMDL
MODEL 5
REMARK VINA RESULT:     -11.4      5.751     15.652
REMARK  Name = 11677589
REMARK  7 active torsions:
REMARK  status: ('A' for Active; 'I' for Inactive)
REMARK    1  A    between atoms: C_1  and  N_7
REMARK    2  A    between atoms: C_2  and  C_20
REMARK    3  A    between atoms: C_11  and  C_18
REMARK    4  A    between atoms: C_20  and  C_21
REMARK    5  A    between atoms: C_21  and  N_23
REMARK    6  A    between atoms: N_24  and  S_28
REMARK    7  A    between atoms: S_28  and  C_31
REMARK                            x       y       z     vdW  Elec       q    Type
REMARK                         _______ _______ _______ _____ _____    ______ ____
ROOT
ATOM      1  C   UNL     1      32.780  -7.524 -22.914  0.00  0.00    +0.058 C 
ATOM      2  C   UNL     1      33.781 -10.037 -23.542  0.00  0.00    -0.020 C 
ATOM      3  C   UNL     1      31.919  -8.613 -22.958  0.00  0.00    +0.015 C 
ATOM      4  C   UNL     1      34.135  -7.674 -23.180  0.00  0.00    +0.015 C 
ATOM      5  C   UNL     1      32.423  -9.875 -23.274  0.00  0.00    -0.003 C 
ATOM      6  C   UNL     1      34.638  -8.936 -23.496  0.00  0.00    -0.003 C 
ENDROOT
BRANCH   1   7
ATOM      7  N   UNL     1      32.278  -6.261 -22.598  0.00  0.00    -0.242 N 
ATOM      8  N   UNL     1      31.404  -4.610 -21.393  0.00  0.00    -0.387 NA
ATOM      9  N   UNL     1      31.658  -2.756 -24.589  0.00  0.00    -0.408 NA
ATOM     10  C   UNL     1      32.161  -5.201 -23.459  0.00  0.00    +0.091 C 
ATOM     11  C   UNL     1      31.813  -5.859 -21.376  0.00  0.00    +0.168 C 
ATOM     12  C   UNL     1      31.613  -4.184 -22.683  0.00  0.00    +0.172 C 
ATOM     13  C   UNL     1      32.474  -5.045 -24.802  0.00  0.00    +0.045 C 
ATOM     14  C   UNL     1      31.366  -2.947 -23.279  0.00  0.00    +0.140 C 
ATOM     15  C   UNL     1      32.190  -3.781 -25.299  0.00  0.00    +0.110 C 
ATOM     16  C   UNL     1      30.782  -1.788 -22.543  0.00  0.00    +0.069 C 
ATOM     17  C   UNL     1      32.486  -3.497 -26.736  0.00  0.00    +0.066 C 
BRANCH  11  18
ATOM     18  C   UNL     1      31.788  -6.753 -20.199  0.00  0.00    +0.075 C 
ATOM     19  C   UNL     1      33.182  -6.989 -19.608  0.00  0.00    +0.009 C 
ENDBRANCH  11  18
ENDBRANCH   1   7
BRANCH   2  20
ATOM     20  C   UNL     1      34.319 -11.386 -23.881  0.00  0.00    +0.048 C 
BRANCH  20  21
ATOM     21  C   UNL     1      33.229 -12.435 -24.132  0.00  0.00    +0.096 C 
BRANCH  21  23
ATOM     22  O   UNL     1      33.498 -14.882 -25.611  0.00  0.00    -0.251 OA
ATOM     23  N   UNL     1      33.583 -13.727 -23.609  0.00  0.00    -0.287 N 
ATOM     24  N   UNL     1      34.049 -16.026 -23.649  0.00  0.00    -0.169 N 
ATOM     25  C   UNL     1      33.691 -14.860 -24.399  0.00  0.00    +0.319 C 
ATOM     26  H   UNL     1      33.756 -13.810 -22.644  0.00  0.00    +0.151 HD
ATOM     27  H   UNL     1      34.180 -15.916 -22.679  0.00  0.00    +0.178 HD
BRANCH  24  28
ATOM     28  S   UNL     1      34.268 -17.591 -24.299  0.00  0.00    +0.077 S 
ATOM     29  O   UNL     1      32.977 -18.150 -24.652  0.00  0.00    -0.150 OA
ATOM     30  O   UNL     1      35.346 -17.560 -25.269  0.00  0.00    -0.150 OA
BRANCH  28  31
ATOM     31  C   UNL     1      34.877 -18.462 -22.887  0.00  0.00    +0.125 C 
ATOM     32  C   UNL     1      34.079 -19.420 -22.286  0.00  0.00    +0.020 C 
ATOM     33  C   UNL     1      36.142 -18.169 -22.406  0.00  0.00    +0.020 C 
ATOM     34  C   UNL     1      35.832 -19.825 -20.675  0.00  0.00    -0.022 C 
ATOM     35  C   UNL     1      34.560 -20.107 -21.172  0.00  0.00    -0.003 C 
ATOM     36  C   UNL     1      36.623 -18.857 -21.292  0.00  0.00    -0.003 C 
ATOM     37  C   UNL     1      36.347 -20.561 -19.484  0.00  0.00    +0.031 C 
ENDBRANCH  28  31
ENDBRANCH  24  28
ENDBRANCH  21  23
ENDBRANCH  20  21
ENDBRANCH   2  20
TORSDOF 7
ENDMDL
MODEL 6
REMARK VINA RESULT:     -11.1      2.311      4.249
REMARK  Name = 11677589
REMARK  7 active torsions:
REMARK  status: ('A' for Active; 'I' for Inactive)
REMARK    1  A    between atoms: C_1  and  N_7
REMARK    2  A    between atoms: C_2  and  C_20
REMARK    3  A    between atoms: C_11  and  C_18
REMARK    4  A    between atoms: C_20  and  C_21
REMARK    5  A    between atoms: C_21  and  N_23
REMARK    6  A    between atoms: N_24  and  S_28
REMARK    7  A    between atoms: S_28  and  C_31
REMARK                            x       y       z     vdW  Elec       q    Type
REMARK                         _______ _______ _______ _____ _____    ______ ____
ROOT
ATOM      1  C   UNL     1      34.644 -21.484 -18.704  0.00  0.00    +0.058 C 
ATOM      2  C   UNL     1      34.587 -20.099 -21.110  0.00  0.00    -0.020 C 
ATOM      3  C   UNL     1      33.422 -21.138 -19.266  0.00  0.00    +0.015 C 
ATOM      4  C   UNL     1      35.838 -21.147 -19.328  0.00  0.00    +0.015 C 
ATOM      5  C   UNL     1      33.394 -20.442 -20.475  0.00  0.00    -0.003 C 
ATOM      6  C   UNL     1      35.810 -20.450 -20.537  0.00  0.00    -0.003 C 
ENDROOT
BRANCH   1   7
ATOM      7  N   UNL     1      34.674 -22.180 -17.495  0.00  0.00    -0.242 N 
ATOM      8  N   UNL     1      35.496 -23.163 -15.678  0.00  0.00    -0.387 NA
ATOM      9  N   UNL     1      31.923 -23.861 -14.996  0.00  0.00    -0.408 NA
ATOM     10  C   UNL     1      33.586 -22.665 -16.816  0.00  0.00    +0.091 C 
ATOM     11  C   UNL     1      35.791 -22.502 -16.775  0.00  0.00    +0.168 C 
ATOM     12  C   UNL     1      34.126 -23.274 -15.687  0.00  0.00    +0.172 C 
ATOM     13  C   UNL     1      32.223 -22.628 -17.080  0.00  0.00    +0.045 C 
ATOM     14  C   UNL     1      33.260 -23.876 -14.774  0.00  0.00    +0.140 C 
ATOM     15  C   UNL     1      31.450 -23.255 -16.113  0.00  0.00    +0.110 C 
ATOM     16  C   UNL     1      33.729 -24.556 -13.532  0.00  0.00    +0.069 C 
ATOM     17  C   UNL     1      29.966 -23.277 -16.291  0.00  0.00    +0.066 C 
BRANCH  11  18
ATOM     18  C   UNL     1      37.155 -22.134 -17.213  0.00  0.00    +0.075 C 
ATOM     19  C   UNL     1      37.862 -21.203 -16.222  0.00  0.00    +0.009 C 
ENDBRANCH  11  18
ENDBRANCH   1   7
BRANCH   2  20
ATOM     20  C   UNL     1      34.557 -19.353 -22.402  0.00  0.00    +0.048 C 
BRANCH  20  21
ATOM     21  C   UNL     1      35.660 -18.296 -22.525  0.00  0.00    +0.096 C 
BRANCH  21  23
ATOM     22  O   UNL     1      34.532 -16.462 -24.426  0.00  0.00    -0.251 OA
ATOM     23  N   UNL     1      35.176 -16.968 -22.263  0.00  0.00    -0.287 N 
ATOM     24  N   UNL     1      34.238 -14.871 -22.739  0.00  0.00    -0.169 N 
ATOM     25  C   UNL     1      34.645 -16.147 -23.244  0.00  0.00    +0.319 C 
ATOM     26  H   UNL     1      35.226 -16.624 -21.342  0.00  0.00    +0.151 HD
ATOM     27  H   UNL     1      34.369 -14.703 -21.778  0.00  0.00    +0.178 HD
BRANCH  24  28
ATOM     28  S   UNL     1      33.543 -13.616 -23.668  0.00  0.00    +0.077 S 
ATOM     29  O   UNL     1      34.596 -12.864 -24.323  0.00  0.00    -0.150 OA
ATOM     30  O   UNL     1      32.431 -14.146 -24.435  0.00  0.00    -0.150 OA
BRANCH  28  31
ATOM     31  C   UNL     1      32.849 -12.600 -22.399  0.00  0.00    +0.125 C 
ATOM     32  C   UNL     1      32.589 -13.153 -21.157  0.00  0.00    +0.020 C 
ATOM     33  C   UNL     1      32.578 -11.271 -22.670  0.00  0.00    +0.020 C 
ATOM     34  C   UNL     1      31.763 -11.009 -20.411  0.00  0.00    -0.022 C 
ATOM     35  C   UNL     1      32.042 -12.351 -20.155  0.00  0.00    -0.003 C 
ATOM     36  C   UNL     1      32.031 -10.468 -21.668  0.00  0.00    -0.003 C 
ATOM     37  C   UNL     1      31.179 -10.152 -19.340  0.00  0.00    +0.031 C 
ENDBRANCH  28  31
ENDBRANCH  24  28
ENDBRANCH  21  23
ENDBRANCH  20  21
ENDBRANCH   2  20
TORSDOF 7
ENDMDL
MODEL 7
REMARK VINA RESULT:     -10.7      4.298     12.413
REMARK  Name = 11677589
REMARK  7 active torsions:
REMARK  status: ('A' for Active; 'I' for Inactive)
REMARK    1  A    between atoms: C_1  and  N_7
REMARK    2  A    between atoms: C_2  and  C_20
REMARK    3  A    between atoms: C_11  and  C_18
REMARK    4  A    between atoms: C_20  and  C_21
REMARK    5  A    between atoms: C_21  and  N_23
REMARK    6  A    between atoms: N_24  and  S_28
REMARK    7  A    between atoms: S_28  and  C_31
REMARK                            x       y       z     vdW  Elec       q    Type
REMARK                         _______ _______ _______ _____ _____    ______ ____
ROOT
ATOM      1  C   UNL     1      35.399 -18.618 -21.719  0.00  0.00    +0.058 C 
ATOM      2  C   UNL     1      36.324 -20.500 -19.899  0.00  0.00    -0.020 C 
ATOM      3  C   UNL     1      34.511 -19.532 -21.167  0.00  0.00    +0.015 C 
ATOM      4  C   UNL     1      36.744 -18.632 -21.372  0.00  0.00    +0.015 C 
ATOM      5  C   UNL     1      34.976 -20.478 -20.253  0.00  0.00    -0.003 C 
ATOM      6  C   UNL     1      37.209 -19.578 -20.458  0.00  0.00    -0.003 C 
ENDROOT
BRANCH   1   7
ATOM      7  N   UNL     1      34.935 -17.672 -22.634  0.00  0.00    -0.242 N 
ATOM      8  N   UNL     1      34.258 -16.799 -24.563  0.00  0.00    -0.387 NA
ATOM      9  N   UNL     1      33.915 -13.724 -22.526  0.00  0.00    -0.408 NA
ATOM     10  C   UNL     1      34.650 -16.359 -22.361  0.00  0.00    +0.091 C 
ATOM     11  C   UNL     1      34.685 -17.886 -23.961  0.00  0.00    +0.168 C 
ATOM     12  C   UNL     1      34.230 -15.837 -23.581  0.00  0.00    +0.172 C 
ATOM     13  C   UNL     1      34.720 -15.606 -21.198  0.00  0.00    +0.045 C 
ATOM     14  C   UNL     1      33.860 -14.493 -23.641  0.00  0.00    +0.140 C 
ATOM     15  C   UNL     1      34.332 -14.284 -21.363  0.00  0.00    +0.110 C 
ATOM     16  C   UNL     1      33.395 -13.830 -24.893  0.00  0.00    +0.069 C 
ATOM     17  C   UNL     1      34.367 -13.377 -20.176  0.00  0.00    +0.066 C 
BRANCH  11  18
ATOM     18  C   UNL     1      34.885 -19.201 -24.607  0.00  0.00    +0.075 C 
ATOM     19  C   UNL     1      33.583 -20.000 -24.735  0.00  0.00    +0.009 C 
ENDBRANCH  11  18
ENDBRANCH   1   7
BRANCH   2  20
ATOM     20  C   UNL     1      36.821 -21.512 -18.922  0.00  0.00    +0.048 C 
BRANCH  20  21
ATOM     21  C   UNL     1      35.879 -21.729 -17.732  0.00  0.00    +0.096 C 
BRANCH  21  23
ATOM     22  O   UNL     1      35.724 -23.900 -15.857  0.00  0.00    -0.251 OA
ATOM     23  N   UNL     1      36.590 -21.849 -16.488  0.00  0.00    -0.287 N 
ATOM     24  N   UNL     1      37.260 -22.824 -14.461  0.00  0.00    -0.169 N 
ATOM     25  C   UNL     1      36.454 -22.937 -15.640  0.00  0.00    +0.319 C 
ATOM     26  H   UNL     1      37.202 -21.124 -16.225  0.00  0.00    +0.151 HD
ATOM     27  H   UNL     1      37.812 -22.015 -14.368  0.00  0.00    +0.178 HD
BRANCH  24  28
ATOM     28  S   UNL     1      37.339 -23.979 -13.204  0.00  0.00    +0.077 S 
ATOM     29  O   UNL     1      38.103 -23.434 -12.098  0.00  0.00    -0.150 OA
ATOM     30  O   UNL     1      36.018 -24.537 -12.982  0.00  0.00    -0.150 OA
BRANCH  28  31
ATOM     31  C   UNL     1      38.305 -25.246 -13.969  0.00  0.00    +0.125 C 
ATOM     32  C   UNL     1      37.667 -26.348 -14.514  0.00  0.00    +0.020 C 
ATOM     33  C   UNL     1      39.682 -25.114 -14.009  0.00  0.00    +0.020 C 
ATOM     34  C   UNL     1      39.819 -27.230 -15.167  0.00  0.00    -0.022 C 
ATOM     35  C   UNL     1      38.431 -27.347 -15.118  0.00  0.00    -0.003 C 
ATOM     36  C   UNL     1      40.445 -26.114 -14.613  0.00  0.00    -0.003 C 
ATOM     37  C   UNL     1      40.634 -28.298 -15.814  0.00  0.00    +0.031 C 
ENDBRANCH  28  31
ENDBRANCH  24  28
ENDBRANCH  21  23
ENDBRANCH  20  21
ENDBRANCH   2  20
TORSDOF 7
ENDMDL
MODEL 8
REMARK VINA RESULT:     -10.6      3.444     12.905
REMARK  Name = 11677589
REMARK  7 active torsions:
REMARK  status: ('A' for Active; 'I' for Inactive)
REMARK    1  A    between atoms: C_1  and  N_7
REMARK    2  A    between atoms: C_2  and  C_20
REMARK    3  A    between atoms: C_11  and  C_18
REMARK    4  A    between atoms: C_20  and  C_21
REMARK    5  A    between atoms: C_21  and  N_23
REMARK    6  A    between atoms: N_24  and  S_28
REMARK    7  A    between atoms: S_28  and  C_31
REMARK                            x       y       z     vdW  Elec       q    Type
REMARK                         _______ _______ _______ _____ _____    ______ ____
ROOT
ATOM      1  C   UNL     1      33.956 -13.646 -22.752  0.00  0.00    +0.058 C 
ATOM      2  C   UNL     1      34.975 -16.163 -22.173  0.00  0.00    -0.020 C 
ATOM      3  C   UNL     1      34.245 -13.982 -21.436  0.00  0.00    +0.015 C 
ATOM      4  C   UNL     1      34.171 -14.551 -23.783  0.00  0.00    +0.015 C 
ATOM      5  C   UNL     1      34.756 -15.247 -21.145  0.00  0.00    -0.003 C 
ATOM      6  C   UNL     1      34.682 -15.817 -23.492  0.00  0.00    -0.003 C 
ENDROOT
BRANCH   1   7
ATOM      7  N   UNL     1      33.444 -12.381 -23.043  0.00  0.00    -0.242 N 
ATOM      8  N   UNL     1      32.914 -10.570 -24.219  0.00  0.00    -0.387 NA
ATOM      9  N   UNL     1      31.530  -9.430 -20.978  0.00  0.00    -0.408 NA
ATOM     10  C   UNL     1      32.820 -11.540 -22.159  0.00  0.00    +0.091 C 
ATOM     11  C   UNL     1      33.476 -11.758 -24.260  0.00  0.00    +0.168 C 
ATOM     12  C   UNL     1      32.500 -10.418 -22.918  0.00  0.00    +0.172 C 
ATOM     13  C   UNL     1      32.518 -11.655 -20.809  0.00  0.00    +0.045 C 
ATOM     14  C   UNL     1      31.842  -9.356 -22.296  0.00  0.00    +0.140 C 
ATOM     15  C   UNL     1      31.866 -10.547 -20.286  0.00  0.00    +0.110 C 
ATOM     16  C   UNL     1      31.451  -8.107 -23.011  0.00  0.00    +0.069 C 
ATOM     17  C   UNL     1      31.490 -10.559 -18.840  0.00  0.00    +0.066 C 
BRANCH  11  18
ATOM     18  C   UNL     1      34.081 -12.379 -25.459  0.00  0.00    +0.075 C 
ATOM     19  C   UNL     1      33.147 -12.352 -26.673  0.00  0.00    +0.009 C 
ENDBRANCH  11  18
ENDBRANCH   1   7
BRANCH   2  20
ATOM     20  C   UNL     1      35.522 -17.516 -21.862  0.00  0.00    +0.048 C 
BRANCH  20  21
ATOM     21  C   UNL     1      34.440 -18.590 -21.696  0.00  0.00    +0.096 C 
BRANCH  21  23
ATOM     22  O   UNL     1      32.722 -20.605 -20.582  0.00  0.00    -0.251 OA
ATOM     23  N   UNL     1      34.782 -19.558 -20.688  0.00  0.00    -0.287 N 
ATOM     24  N   UNL     1      34.457 -21.346 -19.205  0.00  0.00    -0.169 N 
ATOM     25  C   UNL     1      33.886 -20.498 -20.206  0.00  0.00    +0.319 C 
ATOM     26  H   UNL     1      35.695 -19.551 -20.322  0.00  0.00    +0.151 HD
ATOM     27  H   UNL     1      35.398 -21.187 -18.961  0.00  0.00    +0.178 HD
BRANCH  24  28
ATOM     28  S   UNL     1      33.641 -22.611 -18.396  0.00  0.00    +0.077 S 
ATOM     29  O   UNL     1      32.322 -22.156 -18.000  0.00  0.00    -0.150 OA
ATOM     30  O   UNL     1      33.799 -23.841 -19.149  0.00  0.00    -0.150 OA
BRANCH  28  31
ATOM     31  C   UNL     1      34.628 -22.774 -16.939  0.00  0.00    +0.125 C 
ATOM     32  C   UNL     1      35.930 -22.304 -16.948  0.00  0.00    +0.020 C 
ATOM     33  C   UNL     1      34.081 -23.370 -15.816  0.00  0.00    +0.020 C 
ATOM     34  C   UNL     1      36.173 -23.029 -14.657  0.00  0.00    -0.022 C 
ATOM     35  C   UNL     1      36.708 -22.432 -15.797  0.00  0.00    -0.003 C 
ATOM     36  C   UNL     1      34.860 -23.498 -14.665  0.00  0.00    -0.003 C 
ATOM     37  C   UNL     1      37.005 -23.165 -13.427  0.00  0.00    +0.031 C 
ENDBRANCH  28  31
ENDBRANCH  24  28
ENDBRANCH  21  23
ENDBRANCH  20  21
ENDBRANCH   2  20
TORSDOF 7
ENDMDL
MODEL 9
REMARK VINA RESULT:     -10.6      4.860     14.186
REMARK  Name = 11677589
REMARK  7 active torsions:
REMARK  status: ('A' for Active; 'I' for Inactive)
REMARK    1  A    between atoms: C_1  and  N_7
REMARK    2  A    between atoms: C_2  and  C_20
REMARK    3  A    between atoms: C_11  and  C_18
REMARK    4  A    between atoms: C_20  and  C_21
REMARK    5  A    between atoms: C_21  and  N_23
REMARK    6  A    between atoms: N_24  and  S_28
REMARK    7  A    between atoms: S_28  and  C_31
REMARK                            x       y       z     vdW  Elec       q    Type
REMARK                         _______ _______ _______ _____ _____    ______ ____
ROOT
ATOM      1  C   UNL     1      32.836  -9.706 -22.422  0.00  0.00    +0.058 C 
ATOM      2  C   UNL     1      33.774 -12.081 -23.511  0.00  0.00    -0.020 C 
ATOM      3  C   UNL     1      33.903  -9.677 -23.310  0.00  0.00    +0.015 C 
ATOM      4  C   UNL     1      32.231 -10.905 -22.071  0.00  0.00    +0.015 C 
ATOM      5  C   UNL     1      34.374 -10.871 -23.857  0.00  0.00    -0.003 C 
ATOM      6  C   UNL     1      32.702 -12.099 -22.618  0.00  0.00    -0.003 C 
ENDROOT
BRANCH   1   7
ATOM      7  N   UNL     1      32.364  -8.512 -21.874  0.00  0.00    -0.242 N 
ATOM      8  N   UNL     1      31.702  -7.043 -20.342  0.00  0.00    -0.387 NA
ATOM      9  N   UNL     1      31.206  -4.871 -23.302  0.00  0.00    -0.408 NA
ATOM     10  C   UNL     1      32.029  -7.381 -22.572  0.00  0.00    +0.091 C 
ATOM     11  C   UNL     1      32.152  -8.261 -20.547  0.00  0.00    +0.168 C 
ATOM     12  C   UNL     1      31.619  -6.480 -21.594  0.00  0.00    +0.172 C 
ATOM     13  C   UNL     1      32.046  -7.075 -23.926  0.00  0.00    +0.045 C 
ATOM     14  C   UNL     1      31.205  -5.207 -21.988  0.00  0.00    +0.140 C 
ATOM     15  C   UNL     1      31.616  -5.787 -24.213  0.00  0.00    +0.110 C 
ATOM     16  C   UNL     1      30.746  -4.164 -21.026  0.00  0.00    +0.069 C 
ATOM     17  C   UNL     1      31.592  -5.346 -25.641  0.00  0.00    +0.066 C 
BRANCH  11  18
ATOM     18  C   UNL     1      32.410  -9.267 -19.494  0.00  0.00    +0.075 C 
ATOM     19  C   UNL     1      31.136  -9.991 -19.045  0.00  0.00    +0.009 C 
ENDBRANCH  11  18
ENDBRANCH   1   7
BRANCH   2  20
ATOM     20  C   UNL     1      34.278 -13.358 -24.096  0.00  0.00    +0.048 C 
BRANCH  20  21
ATOM     21  C   UNL     1      33.512 -14.596 -23.616  0.00  0.00    +0.096 C 
BRANCH  21  23
ATOM     22  O   UNL     1      34.799 -17.099 -24.193  0.00  0.00    -0.251 OA
ATOM     23  N   UNL     1      34.287 -15.400 -22.709  0.00  0.00    -0.287 N 
ATOM     24  N   UNL     1      35.589 -17.217 -21.997  0.00  0.00    -0.169 N 
ATOM     25  C   UNL     1      34.875 -16.600 -23.074  0.00  0.00    +0.319 C 
ATOM     26  H   UNL     1      34.404 -15.083 -21.784  0.00  0.00    +0.151 HD
ATOM     27  H   UNL     1      35.593 -16.748 -21.131  0.00  0.00    +0.178 HD
BRANCH  24  28
ATOM     28  S   UNL     1      36.432 -18.701 -22.091  0.00  0.00    +0.077 S 
ATOM     29  O   UNL     1      36.294 -19.247 -23.428  0.00  0.00    -0.150 OA
ATOM     30  O   UNL     1      37.743 -18.546 -21.491  0.00  0.00    -0.150 OA
BRANCH  28  31
ATOM     31  C   UNL     1      35.481 -19.701 -20.987  0.00  0.00    +0.125 C 
ATOM     32  C   UNL     1      36.129 -20.428 -20.004  0.00  0.00    +0.020 C 
ATOM     33  C   UNL     1      34.104 -19.739 -21.126  0.00  0.00    +0.020 C 
ATOM     34  C   UNL     1      33.990 -21.267 -19.258  0.00  0.00    -0.022 C 
ATOM     35  C   UNL     1      35.378 -21.217 -19.132  0.00  0.00    -0.003 C 
ATOM     36  C   UNL     1      33.353 -20.528 -20.255  0.00  0.00    -0.003 C 
ATOM     37  C   UNL     1      33.187 -22.109 -18.326  0.00  0.00    +0.031 C 
ENDBRANCH  28  31
ENDBRANCH  24  28
ENDBRANCH  21  23
ENDBRANCH  20  21
ENDBRANCH   2  20
TORSDOF 7
ENDMDL
