MODEL 1
REMARK VINA RESULT:     -11.7      0.000      0.000
REMARK  Name = 6323454
REMARK  1 active torsions:
REMARK  status: ('A' for Active; 'I' for Inactive)
REMARK    1  A    between atoms: C_18  and  O_22
REMARK                            x       y       z     vdW  Elec       q    Type
REMARK                         _______ _______ _______ _____ _____    ______ ____
ROOT
ATOM      1  O   UNL     1      34.385 -24.661 -12.941  0.00  0.00    -0.350 OA
ATOM      2  O   UNL     1      37.460 -22.944 -13.138  0.00  0.00    -0.445 OA
ATOM      3  O   UNL     1      37.851 -22.499 -15.866  0.00  0.00    -0.287 OA
ATOM      4  O   UNL     1      38.350 -22.852 -11.013  0.00  0.00    -0.250 OA
ATOM      5  O   UNL     1      32.705 -23.594 -16.721  0.00  0.00    -0.287 OA
ATOM      6  C   UNL     1      35.377 -23.712 -12.613  0.00  0.00    +0.171 C 
ATOM      7  C   UNL     1      36.423 -23.740 -13.699  0.00  0.00    +0.221 C 
ATOM      8  C   UNL     1      35.799 -23.285 -14.983  0.00  0.00    +0.060 C 
ATOM      9  C   UNL     1      33.633 -24.242 -14.112  0.00  0.00    +0.141 C 
ATOM     10  C   UNL     1      34.492 -23.547 -15.179  0.00  0.00    +0.046 C 
ATOM     11  C   UNL     1      36.240 -24.002 -11.410  0.00  0.00    +0.143 C 
ATOM     12  C   UNL     1      37.471 -23.208 -11.783  0.00  0.00    +0.320 C 
ATOM     13  C   UNL     1      36.645 -22.646 -16.019  0.00  0.00    +0.195 C 
ATOM     14  C   UNL     1      33.848 -23.222 -16.483  0.00  0.00    +0.197 C 
ATOM     15  C   UNL     1      32.468 -23.374 -13.625  0.00  0.00    +0.037 C 
ATOM     16  C   UNL     1      35.983 -22.191 -17.254  0.00  0.00    +0.045 C 
ATOM     17  C   UNL     1      34.635 -22.470 -17.477  0.00  0.00    +0.075 C 
ATOM     18  C   UNL     1      34.021 -22.041 -18.661  0.00  0.00    +0.137 C 
ATOM     19  C   UNL     1      36.720 -21.487 -18.213  0.00  0.00    +0.003 C 
ATOM     20  C   UNL     1      34.758 -21.336 -19.614  0.00  0.00    +0.037 C 
ATOM     21  C   UNL     1      36.104 -21.060 -19.391  0.00  0.00    +0.003 C 
ENDROOT
BRANCH  18  22
ATOM     22  O   UNL     1      32.707 -22.272 -18.938  0.00  0.00    -0.505 OA
ATOM     23  H   UNL     1      32.042 -21.922 -18.378  0.00  0.00    +0.292 HD
ENDBRANCH  18  22
TORSDOF 1
ENDMDL
MODEL 2
REMARK VINA RESULT:     -10.8      1.165      1.521
REMARK  Name = 6323454
REMARK  1 active torsions:
REMARK  status: ('A' for Active; 'I' for Inactive)
REMARK    1  A    between atoms: C_18  and  O_22
REMARK                            x       y       z     vdW  Elec       q    Type
REMARK                         _______ _______ _______ _____ _____    ______ ____
ROOT
ATOM      1  O   UNL     1      33.813 -24.454 -14.515  0.00  0.00    -0.350 OA
ATOM      2  O   UNL     1      37.017 -22.979 -14.482  0.00  0.00    -0.445 OA
ATOM      3  O   UNL     1      37.456 -22.174 -17.118  0.00  0.00    -0.287 OA
ATOM      4  O   UNL     1      37.902 -23.269 -12.372  0.00  0.00    -0.250 OA
ATOM      5  O   UNL     1      32.242 -22.716 -18.087  0.00  0.00    -0.287 OA
ATOM      6  C   UNL     1      34.877 -23.646 -14.059  0.00  0.00    +0.171 C 
ATOM      7  C   UNL     1      35.922 -23.599 -15.145  0.00  0.00    +0.221 C 
ATOM      8  C   UNL     1      35.343 -22.913 -16.344  0.00  0.00    +0.060 C 
ATOM      9  C   UNL     1      33.103 -23.809 -15.607  0.00  0.00    +0.141 C 
ATOM     10  C   UNL     1      34.019 -23.038 -16.567  0.00  0.00    +0.046 C 
ATOM     11  C   UNL     1      35.708 -24.176 -12.917  0.00  0.00    +0.143 C 
ATOM     12  C   UNL     1      37.001 -23.437 -13.179  0.00  0.00    +0.320 C 
ATOM     13  C   UNL     1      36.243 -22.200 -17.282  0.00  0.00    +0.195 C 
ATOM     14  C   UNL     1      33.410 -22.476 -17.805  0.00  0.00    +0.197 C 
ATOM     15  C   UNL     1      32.009 -22.931 -14.990  0.00  0.00    +0.037 C 
ATOM     16  C   UNL     1      35.624 -21.518 -18.434  0.00  0.00    +0.045 C 
ATOM     17  C   UNL     1      34.259 -21.652 -18.684  0.00  0.00    +0.075 C 
ATOM     18  C   UNL     1      33.688 -21.007 -19.789  0.00  0.00    +0.137 C 
ATOM     19  C   UNL     1      36.420 -20.743 -19.285  0.00  0.00    +0.003 C 
ATOM     20  C   UNL     1      34.483 -20.232 -20.634  0.00  0.00    +0.037 C 
ATOM     21  C   UNL     1      35.847 -20.101 -20.383  0.00  0.00    +0.003 C 
ENDROOT
BRANCH  18  22
ATOM     22  O   UNL     1      32.360 -21.090 -20.087  0.00  0.00    -0.505 OA
ATOM     23  H   UNL     1      32.044 -20.767 -20.909  0.00  0.00    +0.292 HD
ENDBRANCH  18  22
TORSDOF 1
ENDMDL
MODEL 3
REMARK VINA RESULT:     -10.5      1.910      6.149
REMARK  Name = 6323454
REMARK  1 active torsions:
REMARK  status: ('A' for Active; 'I' for Inactive)
REMARK    1  A    between atoms: C_18  and  O_22
REMARK                            x       y       z     vdW  Elec       q    Type
REMARK                         _______ _______ _______ _____ _____    ______ ____
ROOT
ATOM      1  O   UNL     1      37.058 -22.401 -17.600  0.00  0.00    -0.350 OA
ATOM      2  O   UNL     1      34.120 -21.292 -19.209  0.00  0.00    -0.445 OA
ATOM      3  O   UNL     1      32.050 -22.652 -17.923  0.00  0.00    -0.287 OA
ATOM      4  O   UNL     1      34.750 -19.933 -20.961  0.00  0.00    -0.250 OA
ATOM      5  O   UNL     1      35.390 -23.852 -13.945  0.00  0.00    -0.287 OA
ATOM      6  C   UNL     1      36.144 -21.491 -18.175  0.00  0.00    +0.171 C 
ATOM      7  C   UNL     1      34.851 -22.225 -18.422  0.00  0.00    +0.221 C 
ATOM      8  C   UNL     1      34.273 -22.644 -17.105  0.00  0.00    +0.060 C 
ATOM      9  C   UNL     1      36.645 -22.773 -16.257  0.00  0.00    +0.141 C 
ATOM     10  C   UNL     1      35.126 -22.923 -16.099  0.00  0.00    +0.046 C 
ATOM     11  C   UNL     1      36.440 -21.002 -19.571  0.00  0.00    +0.143 C 
ATOM     12  C   UNL     1      35.039 -20.657 -20.022  0.00  0.00    +0.320 C 
ATOM     13  C   UNL     1      32.806 -22.818 -16.974  0.00  0.00    +0.195 C 
ATOM     14  C   UNL     1      34.613 -23.455 -14.805  0.00  0.00    +0.197 C 
ATOM     15  C   UNL     1      37.248 -21.749 -15.290  0.00  0.00    +0.037 C 
ATOM     16  C   UNL     1      32.281 -23.205 -15.652  0.00  0.00    +0.045 C 
ATOM     17  C   UNL     1      33.153 -23.512 -14.608  0.00  0.00    +0.075 C 
ATOM     18  C   UNL     1      32.639 -23.889 -13.361  0.00  0.00    +0.137 C 
ATOM     19  C   UNL     1      30.898 -23.277 -15.454  0.00  0.00    +0.003 C 
ATOM     20  C   UNL     1      31.260 -23.956 -13.164  0.00  0.00    +0.037 C 
ATOM     21  C   UNL     1      30.390 -23.651 -14.209  0.00  0.00    +0.003 C 
ENDROOT
BRANCH  18  22
ATOM     22  O   UNL     1      33.434 -24.195 -12.296  0.00  0.00    -0.505 OA
ATOM     23  H   UNL     1      33.128 -24.788 -11.638  0.00  0.00    +0.292 HD
ENDBRANCH  18  22
TORSDOF 1
ENDMDL
MODEL 4
REMARK VINA RESULT:     -10.5      1.798      4.479
REMARK  Name = 6323454
REMARK  1 active torsions:
REMARK  status: ('A' for Active; 'I' for Inactive)
REMARK    1  A    between atoms: C_18  and  O_22
REMARK                            x       y       z     vdW  Elec       q    Type
REMARK                         _______ _______ _______ _____ _____    ______ ____
ROOT
ATOM      1  O   UNL     1      33.188 -24.166 -12.659  0.00  0.00    -0.350 OA
ATOM      2  O   UNL     1      30.695 -24.481 -15.135  0.00  0.00    -0.445 OA
ATOM      3  O   UNL     1      31.511 -22.773 -17.186  0.00  0.00    -0.287 OA
ATOM      4  O   UNL     1      29.031 -25.834 -14.289  0.00  0.00    -0.250 OA
ATOM      5  O   UNL     1      36.383 -22.609 -15.028  0.00  0.00    -0.287 OA
ATOM      6  C   UNL     1      32.270 -24.809 -13.518  0.00  0.00    +0.171 C 
ATOM      7  C   UNL     1      31.766 -23.788 -14.506  0.00  0.00    +0.221 C 
ATOM      8  C   UNL     1      32.911 -23.334 -15.359  0.00  0.00    +0.060 C 
ATOM      9  C   UNL     1      34.397 -23.796 -13.374  0.00  0.00    +0.141 C 
ATOM     10  C   UNL     1      34.142 -23.318 -14.810  0.00  0.00    +0.046 C 
ATOM     11  C   UNL     1      30.963 -25.263 -12.919  0.00  0.00    +0.143 C 
ATOM     12  C   UNL     1      30.098 -25.254 -14.159  0.00  0.00    +0.320 C 
ATOM     13  C   UNL     1      32.647 -22.842 -16.732  0.00  0.00    +0.195 C 
ATOM     14  C   UNL     1      35.297 -22.766 -15.573  0.00  0.00    +0.197 C 
ATOM     15  C   UNL     1      35.357 -24.989 -13.304  0.00  0.00    +0.037 C 
ATOM     16  C   UNL     1      33.807 -22.430 -17.543  0.00  0.00    +0.045 C 
ATOM     17  C   UNL     1      35.083 -22.394 -16.983  0.00  0.00    +0.075 C 
ATOM     18  C   UNL     1      36.174 -21.990 -17.763  0.00  0.00    +0.137 C 
ATOM     19  C   UNL     1      33.618 -22.061 -18.880  0.00  0.00    +0.003 C 
ATOM     20  C   UNL     1      35.984 -21.626 -19.097  0.00  0.00    +0.037 C 
ATOM     21  C   UNL     1      34.708 -21.661 -19.654  0.00  0.00    +0.003 C 
ENDROOT
BRANCH  18  22
ATOM     22  O   UNL     1      37.449 -21.939 -17.281  0.00  0.00    -0.505 OA
ATOM     23  H   UNL     1      38.148 -21.655 -17.836  0.00  0.00    +0.292 HD
ENDBRANCH  18  22
TORSDOF 1
ENDMDL
MODEL 5
REMARK VINA RESULT:     -10.4      2.062      5.738
REMARK  Name = 6323454
REMARK  1 active torsions:
REMARK  status: ('A' for Active; 'I' for Inactive)
REMARK    1  A    between atoms: C_18  and  O_22
REMARK                            x       y       z     vdW  Elec       q    Type
REMARK                         _______ _______ _______ _____ _____    ______ ____
ROOT
ATOM      1  O   UNL     1      31.998 -23.078 -14.451  0.00  0.00    -0.350 OA
ATOM      2  O   UNL     1      34.196 -23.004 -17.210  0.00  0.00    -0.445 OA
ATOM      3  O   UNL     1      36.743 -23.241 -16.095  0.00  0.00    -0.287 OA
ATOM      4  O   UNL     1      32.939 -22.591 -19.099  0.00  0.00    -0.250 OA
ATOM      5  O   UNL     1      34.529 -24.921 -11.546  0.00  0.00    -0.287 OA
ATOM      6  C   UNL     1      32.498 -23.387 -15.735  0.00  0.00    +0.171 C 
ATOM      7  C   UNL     1      33.905 -22.854 -15.825  0.00  0.00    +0.221 C 
ATOM      8  C   UNL     1      34.764 -23.587 -14.840  0.00  0.00    +0.060 C 
ATOM      9  C   UNL     1      32.690 -23.843 -13.428  0.00  0.00    +0.141 C 
ATOM     10  C   UNL     1      34.189 -24.027 -13.704  0.00  0.00    +0.046 C 
ATOM     11  C   UNL     1      31.872 -22.677 -16.910  0.00  0.00    +0.143 C 
ATOM     12  C   UNL     1      33.022 -22.745 -17.890  0.00  0.00    +0.320 C 
ATOM     13  C   UNL     1      36.216 -23.728 -15.102  0.00  0.00    +0.195 C 
ATOM     14  C   UNL     1      35.017 -24.658 -12.638  0.00  0.00    +0.197 C 
ATOM     15  C   UNL     1      31.945 -25.172 -13.263  0.00  0.00    +0.037 C 
ATOM     16  C   UNL     1      37.016 -24.480 -14.118  0.00  0.00    +0.045 C 
ATOM     17  C   UNL     1      36.437 -24.927 -12.931  0.00  0.00    +0.075 C 
ATOM     18  C   UNL     1      37.212 -25.630 -12.001  0.00  0.00    +0.137 C 
ATOM     19  C   UNL     1      38.368 -24.732 -14.376  0.00  0.00    +0.003 C 
ATOM     20  C   UNL     1      38.559 -25.884 -12.262  0.00  0.00    +0.037 C 
ATOM     21  C   UNL     1      39.137 -25.434 -13.447  0.00  0.00    +0.003 C 
ENDROOT
BRANCH  18  22
ATOM     22  O   UNL     1      36.708 -26.102 -10.825  0.00  0.00    -0.505 OA
ATOM     23  H   UNL     1      37.269 -26.545 -10.219  0.00  0.00    +0.292 HD
ENDBRANCH  18  22
TORSDOF 1
ENDMDL
MODEL 6
REMARK VINA RESULT:     -10.0      2.013      5.143
REMARK  Name = 6323454
REMARK  1 active torsions:
REMARK  status: ('A' for Active; 'I' for Inactive)
REMARK    1  A    between atoms: C_18  and  O_22
REMARK                            x       y       z     vdW  Elec       q    Type
REMARK                         _______ _______ _______ _____ _____    ______ ____
ROOT
ATOM      1  O   UNL     1      36.766 -23.974 -14.494  0.00  0.00    -0.350 OA
ATOM      2  O   UNL     1      35.503 -21.994 -17.127  0.00  0.00    -0.445 OA
ATOM      3  O   UNL     1      32.837 -22.775 -17.387  0.00  0.00    -0.287 OA
ATOM      4  O   UNL     1      37.260 -20.779 -17.997  0.00  0.00    -0.250 OA
ATOM      5  O   UNL     1      33.107 -25.081 -12.588  0.00  0.00    -0.287 OA
ATOM      6  C   UNL     1      36.533 -22.813 -15.263  0.00  0.00    +0.171 C 
ATOM      7  C   UNL     1      35.467 -23.136 -16.279  0.00  0.00    +0.221 C 
ATOM      8  C   UNL     1      34.189 -23.441 -15.560  0.00  0.00    +0.060 C 
ATOM      9  C   UNL     1      35.617 -24.282 -13.659  0.00  0.00    +0.141 C 
ATOM     10  C   UNL     1      34.269 -24.003 -14.338  0.00  0.00    +0.046 C 
ATOM     11  C   UNL     1      37.640 -22.356 -16.179  0.00  0.00    +0.143 C 
ATOM     12  C   UNL     1      36.826 -21.604 -17.207  0.00  0.00    +0.320 C 
ATOM     13  C   UNL     1      32.894 -23.199 -16.240  0.00  0.00    +0.195 C 
ATOM     14  C   UNL     1      33.033 -24.435 -13.627  0.00  0.00    +0.197 C 
ATOM     15  C   UNL     1      35.790 -23.524 -12.339  0.00  0.00    +0.037 C 
ATOM     16  C   UNL     1      31.663 -23.489 -15.483  0.00  0.00    +0.045 C 
ATOM     17  C   UNL     1      31.731 -24.085 -14.224  0.00  0.00    +0.075 C 
ATOM     18  C   UNL     1      30.552 -24.365 -13.522  0.00  0.00    +0.137 C 
ATOM     19  C   UNL     1      30.419 -23.175 -16.043  0.00  0.00    +0.003 C 
ATOM     20  C   UNL     1      29.313 -24.048 -14.080  0.00  0.00    +0.037 C 
ATOM     21  C   UNL     1      29.247 -23.454 -15.338  0.00  0.00    +0.003 C 
ENDROOT
BRANCH  18  22
ATOM     22  O   UNL     1      30.547 -24.939 -12.285  0.00  0.00    -0.505 OA
ATOM     23  H   UNL     1      31.187 -25.589 -12.068  0.00  0.00    +0.292 HD
ENDBRANCH  18  22
TORSDOF 1
ENDMDL
MODEL 7
REMARK VINA RESULT:      -9.9      1.668      2.320
REMARK  Name = 6323454
REMARK  1 active torsions:
REMARK  status: ('A' for Active; 'I' for Inactive)
REMARK    1  A    between atoms: C_18  and  O_22
REMARK                            x       y       z     vdW  Elec       q    Type
REMARK                         _______ _______ _______ _____ _____    ______ ____
ROOT
ATOM      1  O   UNL     1      31.755 -24.430 -14.889  0.00  0.00    -0.350 OA
ATOM      2  O   UNL     1      34.998 -23.839 -13.633  0.00  0.00    -0.445 OA
ATOM      3  O   UNL     1      36.523 -23.193 -15.879  0.00  0.00    -0.287 OA
ATOM      4  O   UNL     1      34.981 -24.336 -11.381  0.00  0.00    -0.250 OA
ATOM      5  O   UNL     1      32.025 -22.366 -18.619  0.00  0.00    -0.287 OA
ATOM      6  C   UNL     1      32.753 -23.924 -14.028  0.00  0.00    +0.171 C 
ATOM      7  C   UNL     1      34.091 -24.157 -14.682  0.00  0.00    +0.221 C 
ATOM      8  C   UNL     1      34.160 -23.352 -15.943  0.00  0.00    +0.060 C 
ATOM      9  C   UNL     1      31.658 -23.630 -16.098  0.00  0.00    +0.141 C 
ATOM     10  C   UNL     1      33.014 -23.129 -16.615  0.00  0.00    +0.046 C 
ATOM     11  C   UNL     1      32.969 -24.644 -12.721  0.00  0.00    +0.143 C 
ATOM     12  C   UNL     1      34.411 -24.269 -12.459  0.00  0.00    +0.320 C 
ATOM     13  C   UNL     1      35.479 -22.903 -16.451  0.00  0.00    +0.195 C 
ATOM     14  C   UNL     1      33.039 -22.436 -17.934  0.00  0.00    +0.197 C 
ATOM     15  C   UNL     1      30.668 -22.493 -15.820  0.00  0.00    +0.037 C 
ATOM     16  C   UNL     1      35.495 -22.092 -17.681  0.00  0.00    +0.045 C 
ATOM     17  C   UNL     1      34.319 -21.867 -18.395  0.00  0.00    +0.075 C 
ATOM     18  C   UNL     1      34.351 -21.103 -19.568  0.00  0.00    +0.137 C 
ATOM     19  C   UNL     1      36.705 -21.556 -18.138  0.00  0.00    +0.003 C 
ATOM     20  C   UNL     1      35.558 -20.567 -20.020  0.00  0.00    +0.037 C 
ATOM     21  C   UNL     1      36.732 -20.793 -19.307  0.00  0.00    +0.003 C 
ENDROOT
BRANCH  18  22
ATOM     22  O   UNL     1      33.238 -20.839 -20.310  0.00  0.00    -0.505 OA
ATOM     23  H   UNL     1      33.016 -21.392 -21.034  0.00  0.00    +0.292 HD
ENDBRANCH  18  22
TORSDOF 1
ENDMDL
MODEL 8
REMARK VINA RESULT:      -9.8      2.457      5.506
REMARK  Name = 6323454
REMARK  1 active torsions:
REMARK  status: ('A' for Active; 'I' for Inactive)
REMARK    1  A    between atoms: C_18  and  O_22
REMARK                            x       y       z     vdW  Elec       q    Type
REMARK                         _______ _______ _______ _____ _____    ______ ____
ROOT
ATOM      1  O   UNL     1      30.545 -23.914 -13.527  0.00  0.00    -0.350 OA
ATOM      2  O   UNL     1      29.692 -23.502 -16.926  0.00  0.00    -0.445 OA
ATOM      3  O   UNL     1      31.838 -22.103 -18.032  0.00  0.00    -0.287 OA
ATOM      4  O   UNL     1      27.556 -24.320 -17.218  0.00  0.00    -0.250 OA
ATOM      5  O   UNL     1      34.772 -23.342 -13.757  0.00  0.00    -0.287 OA
ATOM      6  C   UNL     1      30.074 -24.267 -14.810  0.00  0.00    +0.171 C 
ATOM      7  C   UNL     1      30.420 -23.145 -15.757  0.00  0.00    +0.221 C 
ATOM      8  C   UNL     1      31.911 -23.039 -15.858  0.00  0.00    +0.060 C 
ATOM      9  C   UNL     1      31.998 -23.908 -13.491  0.00  0.00    +0.141 C 
ATOM     10  C   UNL     1      32.644 -23.377 -14.779  0.00  0.00    +0.046 C 
ATOM     11  C   UNL     1      28.580 -24.326 -15.007  0.00  0.00    +0.143 C 
ATOM     12  C   UNL     1      28.509 -24.071 -16.496  0.00  0.00    +0.320 C 
ATOM     13  C   UNL     1      32.521 -22.494 -17.094  0.00  0.00    +0.195 C 
ATOM     14  C   UNL     1      34.121 -23.181 -14.782  0.00  0.00    +0.197 C 
ATOM     15  C   UNL     1      32.456 -25.325 -13.133  0.00  0.00    +0.037 C 
ATOM     16  C   UNL     1      33.993 -22.433 -17.157  0.00  0.00    +0.045 C 
ATOM     17  C   UNL     1      34.762 -22.765 -16.043  0.00  0.00    +0.075 C 
ATOM     18  C   UNL     1      36.159 -22.692 -16.115  0.00  0.00    +0.137 C 
ATOM     19  C   UNL     1      34.616 -22.027 -18.343  0.00  0.00    +0.003 C 
ATOM     20  C   UNL     1      36.778 -22.290 -17.300  0.00  0.00    +0.037 C 
ATOM     21  C   UNL     1      36.008 -21.958 -18.411  0.00  0.00    +0.003 C 
ENDROOT
BRANCH  18  22
ATOM     22  O   UNL     1      36.971 -23.009 -15.067  0.00  0.00    -0.505 OA
ATOM     23  H   UNL     1      37.397 -23.843 -15.040  0.00  0.00    +0.292 HD
ENDBRANCH  18  22
TORSDOF 1
ENDMDL
MODEL 9
REMARK VINA RESULT:      -9.6      1.256      6.496
REMARK  Name = 6323454
REMARK  1 active torsions:
REMARK  status: ('A' for Active; 'I' for Inactive)
REMARK    1  A    between atoms: C_18  and  O_22
REMARK                            x       y       z     vdW  Elec       q    Type
REMARK                         _______ _______ _______ _____ _____    ______ ____
ROOT
ATOM      1  O   UNL     1      36.700 -21.650 -18.739  0.00  0.00    -0.350 OA
ATOM      2  O   UNL     1      33.187 -21.867 -18.503  0.00  0.00    -0.445 OA
ATOM      3  O   UNL     1      32.724 -23.587 -16.354  0.00  0.00    -0.287 OA
ATOM      4  O   UNL     1      32.290 -20.704 -20.280  0.00  0.00    -0.250 OA
ATOM      5  O   UNL     1      37.779 -22.908 -14.802  0.00  0.00    -0.287 OA
ATOM      6  C   UNL     1      35.360 -21.205 -18.711  0.00  0.00    +0.171 C 
ATOM      7  C   UNL     1      34.499 -22.356 -18.254  0.00  0.00    +0.221 C 
ATOM      8  C   UNL     1      34.867 -22.705 -16.844  0.00  0.00    +0.060 C 
ATOM      9  C   UNL     1      37.193 -21.896 -17.394  0.00  0.00    +0.141 C 
ATOM     10  C   UNL     1      36.143 -22.508 -16.456  0.00  0.00    +0.046 C 
ATOM     11  C   UNL     1      34.706 -20.898 -20.035  0.00  0.00    +0.143 C 
ATOM     12  C   UNL     1      33.257 -21.117 -19.660  0.00  0.00    +0.320 C 
ATOM     13  C   UNL     1      33.854 -23.327 -15.959  0.00  0.00    +0.195 C 
ATOM     14  C   UNL     1      36.593 -22.945 -15.104  0.00  0.00    +0.197 C 
ATOM     15  C   UNL     1      37.770 -20.579 -16.866  0.00  0.00    +0.037 C 
ATOM     16  C   UNL     1      34.254 -23.629 -14.572  0.00  0.00    +0.045 C 
ATOM     17  C   UNL     1      35.574 -23.444 -14.162  0.00  0.00    +0.075 C 
ATOM     18  C   UNL     1      35.942 -23.746 -12.845  0.00  0.00    +0.137 C 
ATOM     19  C   UNL     1      33.302 -24.116 -13.670  0.00  0.00    +0.003 C 
ATOM     20  C   UNL     1      34.990 -24.228 -11.946  0.00  0.00    +0.037 C 
ATOM     21  C   UNL     1      33.672 -24.413 -12.358  0.00  0.00    +0.003 C 
ENDROOT
BRANCH  18  22
ATOM     22  O   UNL     1      37.212 -23.582 -12.376  0.00  0.00    -0.505 OA
ATOM     23  H   UNL     1      37.710 -22.829 -12.626  0.00  0.00    +0.292 HD
ENDBRANCH  18  22
TORSDOF 1
ENDMDL
