MODEL 1
REMARK VINA RESULT:     -11.7      0.000      0.000
REMARK  Name = 24779724
REMARK  3 active torsions:
REMARK  status: ('A' for Active; 'I' for Inactive)
REMARK    1  A    between atoms: C_5  and  C_12
REMARK    2  A    between atoms: C_7  and  S_16
REMARK    3  A    between atoms: S_16  and  C_19
REMARK                            x       y       z     vdW  Elec       q    Type
REMARK                         _______ _______ _______ _____ _____    ______ ____
ROOT
ATOM      1  N   UNL     1      34.559 -21.695 -18.538  0.00  0.00    -0.186 N 
ATOM      2  N   UNL     1      35.598 -22.038 -17.737  0.00  0.00    -0.162 NA
ATOM      3  N   UNL     1      32.536 -21.519 -19.376  0.00  0.00    -0.126 NA
ATOM      4  N   UNL     1      33.403 -20.796 -20.169  0.00  0.00    -0.120 NA
ATOM      5  C   UNL     1      35.259 -22.793 -16.731  0.00  0.00    +0.104 C 
ATOM      6  C   UNL     1      33.239 -22.055 -18.400  0.00  0.00    +0.187 A 
ATOM      7  C   UNL     1      34.606 -20.912 -19.656  0.00  0.00    +0.217 A 
ATOM      8  C   UNL     1      33.865 -23.277 -16.465  0.00  0.00    +0.024 C 
ATOM      9  C   UNL     1      32.905 -22.886 -17.312  0.00  0.00    +0.042 C 
ENDROOT
BRANCH   5  12
ATOM     10  N   UNL     1      37.372 -24.269 -14.173  0.00  0.00    -0.208 N 
ATOM     11  N   UNL     1      38.293 -23.419 -14.659  0.00  0.00    -0.176 NA
ATOM     12  C   UNL     1      36.308 -23.233 -15.776  0.00  0.00    +0.056 C 
ATOM     13  C   UNL     1      36.166 -24.196 -14.807  0.00  0.00    +0.087 C 
ATOM     14  C   UNL     1      37.638 -22.789 -15.637  0.00  0.00    +0.121 C 
ATOM     15  C   UNL     1      37.713 -25.145 -13.077  0.00  0.00    +0.140 C 
ENDBRANCH   5  12
BRANCH   7  16
ATOM     16  S   UNL     1      36.110 -20.179 -20.282  0.00  0.00    -0.051 S 
BRANCH  16  19
ATOM     17  N   UNL     1      33.996 -16.841 -24.730  0.00  0.00    -0.248 NA
ATOM     18  C   UNL     1      34.937 -16.986 -22.516  0.00  0.00    -0.003 C 
ATOM     19  C   UNL     1      35.479 -19.170 -21.608  0.00  0.00    +0.011 C 
ATOM     20  C   UNL     1      34.479 -17.578 -23.712  0.00  0.00    +0.060 C 
ATOM     21  C   UNL     1      35.434 -17.786 -21.474  0.00  0.00    +0.060 C 
ATOM     22  C   UNL     1      35.029 -19.760 -22.782  0.00  0.00    -0.017 C 
ATOM     23  C   UNL     1      34.535 -18.965 -23.819  0.00  0.00    +0.072 C 
ATOM     24  C   UNL     1      34.880 -15.590 -22.408  0.00  0.00    -0.001 C 
ATOM     25  C   UNL     1      34.384 -14.828 -23.456  0.00  0.00    +0.020 C 
ATOM     26  C   UNL     1      33.958 -15.497 -24.585  0.00  0.00    +0.098 C 
ENDBRANCH  16  19
ENDBRANCH   7  16
TORSDOF 3
ENDMDL
MODEL 2
REMARK VINA RESULT:     -11.2      1.299      1.905
REMARK  Name = 24779724
REMARK  3 active torsions:
REMARK  status: ('A' for Active; 'I' for Inactive)
REMARK    1  A    between atoms: C_5  and  C_12
REMARK    2  A    between atoms: C_7  and  S_16
REMARK    3  A    between atoms: S_16  and  C_19
REMARK                            x       y       z     vdW  Elec       q    Type
REMARK                         _______ _______ _______ _____ _____    ______ ____
ROOT
ATOM      1  N   UNL     1      34.271 -22.319 -17.785  0.00  0.00    -0.186 N 
ATOM      2  N   UNL     1      35.195 -22.787 -16.910  0.00  0.00    -0.162 NA
ATOM      3  N   UNL     1      32.352 -21.829 -18.733  0.00  0.00    -0.126 NA
ATOM      4  N   UNL     1      33.370 -21.352 -19.533  0.00  0.00    -0.120 NA
ATOM      5  C   UNL     1      34.681 -23.378 -15.868  0.00  0.00    +0.104 C 
ATOM      6  C   UNL     1      32.903 -22.407 -17.686  0.00  0.00    +0.187 A 
ATOM      7  C   UNL     1      34.509 -21.655 -18.953  0.00  0.00    +0.217 A 
ATOM      8  C   UNL     1      33.211 -23.562 -15.637  0.00  0.00    +0.024 C 
ATOM      9  C   UNL     1      32.376 -23.065 -16.558  0.00  0.00    +0.042 C 
ENDROOT
BRANCH   5  12
ATOM     10  N   UNL     1      36.731 -25.302 -13.569  0.00  0.00    -0.208 N 
ATOM     11  N   UNL     1      37.075 -24.089 -13.101  0.00  0.00    -0.176 NA
ATOM     12  C   UNL     1      35.591 -23.930 -14.832  0.00  0.00    +0.056 C 
ATOM     13  C   UNL     1      35.844 -25.261 -14.605  0.00  0.00    +0.087 C 
ATOM     14  C   UNL     1      36.376 -23.256 -13.876  0.00  0.00    +0.121 C 
ATOM     15  C   UNL     1      37.295 -26.488 -12.971  0.00  0.00    +0.140 C 
ENDBRANCH   5  12
BRANCH   7  16
ATOM     16  S   UNL     1      36.147 -21.277 -19.557  0.00  0.00    -0.051 S 
BRANCH  16  19
ATOM     17  N   UNL     1      35.056 -16.631 -23.108  0.00  0.00    -0.248 NA
ATOM     18  C   UNL     1      34.837 -18.988 -22.656  0.00  0.00    -0.003 C 
ATOM     19  C   UNL     1      35.815 -19.893 -20.627  0.00  0.00    +0.011 C 
ATOM     20  C   UNL     1      35.291 -17.695 -22.319  0.00  0.00    +0.060 C 
ATOM     21  C   UNL     1      35.101 -20.076 -21.808  0.00  0.00    +0.060 C 
ATOM     22  C   UNL     1      36.266 -18.623 -20.289  0.00  0.00    -0.017 C 
ATOM     23  C   UNL     1      36.003 -17.541 -21.132  0.00  0.00    +0.072 C 
ATOM     24  C   UNL     1      34.121 -19.144 -23.850  0.00  0.00    -0.001 C 
ATOM     25  C   UNL     1      33.876 -18.049 -24.666  0.00  0.00    +0.020 C 
ATOM     26  C   UNL     1      34.361 -16.824 -24.252  0.00  0.00    +0.098 C 
ENDBRANCH  16  19
ENDBRANCH   7  16
TORSDOF 3
ENDMDL
MODEL 3
REMARK VINA RESULT:     -10.8      2.258      9.310
REMARK  Name = 24779724
REMARK  3 active torsions:
REMARK  status: ('A' for Active; 'I' for Inactive)
REMARK    1  A    between atoms: C_5  and  C_12
REMARK    2  A    between atoms: C_7  and  S_16
REMARK    3  A    between atoms: S_16  and  C_19
REMARK                            x       y       z     vdW  Elec       q    Type
REMARK                         _______ _______ _______ _____ _____    ______ ____
ROOT
ATOM      1  N   UNL     1      35.414 -20.249 -20.177  0.00  0.00    -0.186 N 
ATOM      2  N   UNL     1      34.729 -19.670 -21.194  0.00  0.00    -0.162 NA
ATOM      3  N   UNL     1      37.017 -20.779 -18.773  0.00  0.00    -0.126 NA
ATOM      4  N   UNL     1      35.890 -21.507 -18.446  0.00  0.00    -0.120 NA
ATOM      5  C   UNL     1      35.430 -18.806 -21.874  0.00  0.00    +0.104 C 
ATOM      6  C   UNL     1      36.721 -20.028 -19.813  0.00  0.00    +0.187 A 
ATOM      7  C   UNL     1      34.943 -21.179 -19.296  0.00  0.00    +0.217 A 
ATOM      8  C   UNL     1      36.867 -18.477 -21.602  0.00  0.00    +0.024 C 
ATOM      9  C   UNL     1      37.458 -19.102 -20.576  0.00  0.00    +0.042 C 
ENDROOT
BRANCH   5  12
ATOM     10  N   UNL     1      34.091 -16.540 -24.376  0.00  0.00    -0.208 N 
ATOM     11  N   UNL     1      33.631 -17.672 -24.935  0.00  0.00    -0.176 NA
ATOM     12  C   UNL     1      34.790 -18.097 -23.012  0.00  0.00    +0.056 C 
ATOM     13  C   UNL     1      34.791 -16.740 -23.222  0.00  0.00    +0.087 C 
ATOM     14  C   UNL     1      34.061 -18.620 -24.098  0.00  0.00    +0.121 C 
ATOM     15  C   UNL     1      33.823 -15.269 -25.005  0.00  0.00    +0.140 C 
ENDBRANCH   5  12
BRANCH   7  16
ATOM     16  S   UNL     1      33.276 -21.820 -19.334  0.00  0.00    -0.051 S 
BRANCH  16  19
ATOM     17  N   UNL     1      32.842 -24.179 -13.891  0.00  0.00    -0.248 NA
ATOM     18  C   UNL     1      31.783 -23.123 -15.780  0.00  0.00    -0.003 C 
ATOM     19  C   UNL     1      33.135 -22.525 -17.705  0.00  0.00    +0.011 C 
ATOM     20  C   UNL     1      32.919 -23.642 -15.123  0.00  0.00    +0.060 C 
ATOM     21  C   UNL     1      31.900 -22.570 -17.066  0.00  0.00    +0.060 C 
ATOM     22  C   UNL     1      34.257 -23.033 -17.063  0.00  0.00    -0.017 C 
ATOM     23  C   UNL     1      34.142 -23.584 -15.785  0.00  0.00    +0.072 C 
ATOM     24  C   UNL     1      30.552 -23.182 -15.114  0.00  0.00    -0.001 C 
ATOM     25  C   UNL     1      30.470 -23.735 -13.844  0.00  0.00    +0.020 C 
ATOM     26  C   UNL     1      31.635 -24.216 -13.282  0.00  0.00    +0.098 C 
ENDBRANCH  16  19
ENDBRANCH   7  16
TORSDOF 3
ENDMDL
MODEL 4
REMARK VINA RESULT:     -10.5      2.936      4.156
REMARK  Name = 24779724
REMARK  3 active torsions:
REMARK  status: ('A' for Active; 'I' for Inactive)
REMARK    1  A    between atoms: C_5  and  C_12
REMARK    2  A    between atoms: C_7  and  S_16
REMARK    3  A    between atoms: S_16  and  C_19
REMARK                            x       y       z     vdW  Elec       q    Type
REMARK                         _______ _______ _______ _____ _____    ______ ____
ROOT
ATOM      1  N   UNL     1      32.862 -23.496 -15.552  0.00  0.00    -0.186 N 
ATOM      2  N   UNL     1      33.939 -24.016 -14.914  0.00  0.00    -0.162 NA
ATOM      3  N   UNL     1      30.902 -22.582 -15.937  0.00  0.00    -0.126 NA
ATOM      4  N   UNL     1      31.526 -22.806 -17.147  0.00  0.00    -0.120 NA
ATOM      5  C   UNL     1      33.829 -24.022 -13.615  0.00  0.00    +0.104 C 
ATOM      6  C   UNL     1      31.711 -23.000 -14.986  0.00  0.00    +0.187 A 
ATOM      7  C   UNL     1      32.695 -23.354 -16.899  0.00  0.00    +0.217 A 
ATOM      8  C   UNL     1      32.628 -23.531 -12.864  0.00  0.00    +0.024 C 
ATOM      9  C   UNL     1      31.613 -23.034 -13.581  0.00  0.00    +0.042 C 
ENDROOT
BRANCH   5  12
ATOM     10  N   UNL     1      36.845 -25.459 -12.192  0.00  0.00    -0.208 N 
ATOM     11  N   UNL     1      36.231 -25.207 -11.024  0.00  0.00    -0.176 NA
ATOM     12  C   UNL     1      34.948 -24.562 -12.801  0.00  0.00    +0.056 C 
ATOM     13  C   UNL     1      36.118 -25.092 -13.287  0.00  0.00    +0.087 C 
ATOM     14  C   UNL     1      35.073 -24.659 -11.401  0.00  0.00    +0.121 C 
ATOM     15  C   UNL     1      38.155 -26.066 -12.197  0.00  0.00    +0.140 C 
ENDBRANCH   5  12
BRANCH   7  16
ATOM     16  S   UNL     1      33.917 -23.852 -18.103  0.00  0.00    -0.051 S 
BRANCH  16  19
ATOM     17  N   UNL     1      34.784 -18.746 -21.030  0.00  0.00    -0.248 NA
ATOM     18  C   UNL     1      35.697 -20.624 -19.826  0.00  0.00    -0.003 C 
ATOM     19  C   UNL     1      34.188 -22.325 -18.978  0.00  0.00    +0.011 C 
ATOM     20  C   UNL     1      34.610 -19.904 -20.365  0.00  0.00    +0.060 C 
ATOM     21  C   UNL     1      35.478 -21.828 -19.137  0.00  0.00    +0.060 C 
ATOM     22  C   UNL     1      33.113 -21.620 -19.505  0.00  0.00    -0.017 C 
ATOM     23  C   UNL     1      33.330 -20.423 -20.190  0.00  0.00    +0.072 C 
ATOM     24  C   UNL     1      36.985 -20.101 -20.002  0.00  0.00    -0.001 C 
ATOM     25  C   UNL     1      37.168 -18.909 -20.687  0.00  0.00    +0.020 C 
ATOM     26  C   UNL     1      36.044 -18.276 -21.177  0.00  0.00    +0.098 C 
ENDBRANCH  16  19
ENDBRANCH   7  16
TORSDOF 3
ENDMDL
MODEL 5
REMARK VINA RESULT:     -10.5      2.083      9.275
REMARK  Name = 24779724
REMARK  3 active torsions:
REMARK  status: ('A' for Active; 'I' for Inactive)
REMARK    1  A    between atoms: C_5  and  C_12
REMARK    2  A    between atoms: C_7  and  S_16
REMARK    3  A    between atoms: S_16  and  C_19
REMARK                            x       y       z     vdW  Elec       q    Type
REMARK                         _______ _______ _______ _____ _____    ______ ____
ROOT
ATOM      1  N   UNL     1      35.366 -20.456 -20.086  0.00  0.00    -0.186 N 
ATOM      2  N   UNL     1      34.698 -19.878 -21.114  0.00  0.00    -0.162 NA
ATOM      3  N   UNL     1      36.945 -20.977 -18.650  0.00  0.00    -0.126 NA
ATOM      4  N   UNL     1      35.820 -21.720 -18.353  0.00  0.00    -0.120 NA
ATOM      5  C   UNL     1      35.402 -19.001 -21.772  0.00  0.00    +0.104 C 
ATOM      6  C   UNL     1      36.663 -20.222 -19.691  0.00  0.00    +0.187 A 
ATOM      7  C   UNL     1      34.888 -21.398 -19.221  0.00  0.00    +0.217 A 
ATOM      8  C   UNL     1      36.829 -18.657 -21.467  0.00  0.00    +0.024 C 
ATOM      9  C   UNL     1      37.405 -19.282 -20.432  0.00  0.00    +0.042 C 
ENDROOT
BRANCH   5  12
ATOM     10  N   UNL     1      34.112 -16.735 -24.300  0.00  0.00    -0.208 N 
ATOM     11  N   UNL     1      33.635 -17.865 -24.851  0.00  0.00    -0.176 NA
ATOM     12  C   UNL     1      34.779 -18.292 -22.919  0.00  0.00    +0.056 C 
ATOM     13  C   UNL     1      34.803 -16.937 -23.141  0.00  0.00    +0.087 C 
ATOM     14  C   UNL     1      34.046 -18.812 -24.004  0.00  0.00    +0.121 C 
ATOM     15  C   UNL     1      33.867 -15.466 -24.942  0.00  0.00    +0.140 C 
ENDBRANCH   5  12
BRANCH   7  16
ATOM     16  S   UNL     1      33.230 -22.058 -19.301  0.00  0.00    -0.051 S 
BRANCH  16  19
ATOM     17  N   UNL     1      32.414 -23.925 -13.712  0.00  0.00    -0.248 NA
ATOM     18  C   UNL     1      33.903 -23.514 -15.560  0.00  0.00    -0.003 C 
ATOM     19  C   UNL     1      32.997 -22.619 -17.626  0.00  0.00    +0.011 C 
ATOM     20  C   UNL     1      32.620 -23.506 -14.974  0.00  0.00    +0.060 C 
ATOM     21  C   UNL     1      34.082 -23.070 -16.881  0.00  0.00    +0.060 C 
ATOM     22  C   UNL     1      31.731 -22.610 -17.056  0.00  0.00    -0.017 C 
ATOM     23  C   UNL     1      31.552 -23.050 -15.743  0.00  0.00    +0.072 C 
ATOM     24  C   UNL     1      34.978 -23.972 -14.788  0.00  0.00    -0.001 C 
ATOM     25  C   UNL     1      34.769 -24.404 -13.486  0.00  0.00    +0.020 C 
ATOM     26  C   UNL     1      33.478 -24.360 -13.000  0.00  0.00    +0.098 C 
ENDBRANCH  16  19
ENDBRANCH   7  16
TORSDOF 3
ENDMDL
MODEL 6
REMARK VINA RESULT:     -10.4      1.291      1.856
REMARK  Name = 24779724
REMARK  3 active torsions:
REMARK  status: ('A' for Active; 'I' for Inactive)
REMARK    1  A    between atoms: C_5  and  C_12
REMARK    2  A    between atoms: C_7  and  S_16
REMARK    3  A    between atoms: S_16  and  C_19
REMARK                            x       y       z     vdW  Elec       q    Type
REMARK                         _______ _______ _______ _____ _____    ______ ____
ROOT
ATOM      1  N   UNL     1      34.547 -20.983 -19.341  0.00  0.00    -0.186 N 
ATOM      2  N   UNL     1      35.594 -21.311 -18.544  0.00  0.00    -0.162 NA
ATOM      3  N   UNL     1      32.524 -20.860 -20.187  0.00  0.00    -0.126 NA
ATOM      4  N   UNL     1      33.366 -20.076 -20.949  0.00  0.00    -0.120 NA
ATOM      5  C   UNL     1      35.279 -22.112 -17.566  0.00  0.00    +0.104 C 
ATOM      6  C   UNL     1      33.242 -21.400 -19.225  0.00  0.00    +0.187 A 
ATOM      7  C   UNL     1      34.570 -20.162 -20.431  0.00  0.00    +0.217 A 
ATOM      8  C   UNL     1      33.904 -22.661 -17.327  0.00  0.00    +0.024 C 
ATOM      9  C   UNL     1      32.935 -22.279 -18.168  0.00  0.00    +0.042 C 
ENDROOT
BRANCH   5  12
ATOM     10  N   UNL     1      37.395 -23.474 -14.948  0.00  0.00    -0.208 N 
ATOM     11  N   UNL     1      38.366 -22.809 -15.597  0.00  0.00    -0.176 NA
ATOM     12  C   UNL     1      36.340 -22.542 -16.618  0.00  0.00    +0.056 C 
ATOM     13  C   UNL     1      36.163 -23.346 -15.518  0.00  0.00    +0.087 C 
ATOM     14  C   UNL     1      37.716 -22.242 -16.617  0.00  0.00    +0.121 C 
ATOM     15  C   UNL     1      37.715 -24.231 -13.761  0.00  0.00    +0.140 C 
ENDBRANCH   5  12
BRANCH   7  16
ATOM     16  S   UNL     1      36.046 -19.347 -21.021  0.00  0.00    -0.051 S 
BRANCH  16  19
ATOM     17  N   UNL     1      33.896 -14.024 -22.576  0.00  0.00    -0.248 NA
ATOM     18  C   UNL     1      34.609 -16.235 -23.214  0.00  0.00    -0.003 C 
ATOM     19  C   UNL     1      35.401 -17.757 -21.497  0.00  0.00    +0.011 C 
ATOM     20  C   UNL     1      34.381 -15.235 -22.246  0.00  0.00    +0.060 C 
ATOM     21  C   UNL     1      35.117 -17.489 -22.833  0.00  0.00    +0.060 C 
ATOM     22  C   UNL     1      35.181 -16.776 -20.539  0.00  0.00    -0.017 C 
ATOM     23  C   UNL     1      34.675 -15.530 -20.917  0.00  0.00    +0.072 C 
ATOM     24  C   UNL     1      34.313 -15.938 -24.551  0.00  0.00    -0.001 C 
ATOM     25  C   UNL     1      33.812 -14.691 -24.895  0.00  0.00    +0.020 C 
ATOM     26  C   UNL     1      33.623 -13.777 -23.878  0.00  0.00    +0.098 C 
ENDBRANCH  16  19
ENDBRANCH   7  16
TORSDOF 3
ENDMDL
MODEL 7
REMARK VINA RESULT:     -10.1      5.665     11.987
REMARK  Name = 24779724
REMARK  3 active torsions:
REMARK  status: ('A' for Active; 'I' for Inactive)
REMARK    1  A    between atoms: C_5  and  C_12
REMARK    2  A    between atoms: C_7  and  S_16
REMARK    3  A    between atoms: S_16  and  C_19
REMARK                            x       y       z     vdW  Elec       q    Type
REMARK                         _______ _______ _______ _____ _____    ______ ____
ROOT
ATOM      1  N   UNL     1      32.575 -11.734 -22.086  0.00  0.00    -0.186 N 
ATOM      2  N   UNL     1      32.730 -10.614 -22.835  0.00  0.00    -0.162 NA
ATOM      3  N   UNL     1      32.006 -13.098 -20.462  0.00  0.00    -0.126 NA
ATOM      4  N   UNL     1      32.669 -13.823 -21.431  0.00  0.00    -0.120 NA
ATOM      5  C   UNL     1      32.211  -9.546 -22.298  0.00  0.00    +0.104 C 
ATOM      6  C   UNL     1      31.954 -11.846 -20.864  0.00  0.00    +0.187 A 
ATOM      7  C   UNL     1      33.003 -12.993 -22.393  0.00  0.00    +0.217 A 
ATOM      8  C   UNL     1      31.523  -9.515 -20.966  0.00  0.00    +0.024 C 
ATOM      9  C   UNL     1      31.419 -10.672 -20.300  0.00  0.00    +0.042 C 
ENDROOT
BRANCH   5  12
ATOM     10  N   UNL     1      33.083  -6.425 -23.937  0.00  0.00    -0.208 N 
ATOM     11  N   UNL     1      31.767  -6.376 -24.206  0.00  0.00    -0.176 NA
ATOM     12  C   UNL     1      32.311  -8.254 -23.024  0.00  0.00    +0.056 C 
ATOM     13  C   UNL     1      33.460  -7.530 -23.231  0.00  0.00    +0.087 C 
ATOM     14  C   UNL     1      31.301  -7.495 -23.647  0.00  0.00    +0.121 C 
ATOM     15  C   UNL     1      33.948  -5.363 -24.391  0.00  0.00    +0.140 C 
ENDBRANCH   5  12
BRANCH   7  16
ATOM     16  S   UNL     1      33.882 -13.398 -23.894  0.00  0.00    -0.051 S 
BRANCH  16  19
ATOM     17  N   UNL     1      35.023 -19.180 -23.088  0.00  0.00    -0.248 NA
ATOM     18  C   UNL     1      35.080 -16.921 -22.249  0.00  0.00    -0.003 C 
ATOM     19  C   UNL     1      34.227 -15.126 -23.642  0.00  0.00    +0.011 C 
ATOM     20  C   UNL     1      34.772 -17.867 -23.250  0.00  0.00    +0.060 C 
ATOM     21  C   UNL     1      34.805 -15.559 -22.452  0.00  0.00    +0.060 C 
ATOM     22  C   UNL     1      33.922 -16.052 -24.632  0.00  0.00    -0.017 C 
ATOM     23  C   UNL     1      34.195 -17.407 -24.430  0.00  0.00    +0.072 C 
ATOM     24  C   UNL     1      35.660 -17.384 -21.061  0.00  0.00    -0.001 C 
ATOM     25  C   UNL     1      35.920 -18.736 -20.891  0.00  0.00    +0.020 C 
ATOM     26  C   UNL     1      35.584 -19.585 -21.926  0.00  0.00    +0.098 C 
ENDBRANCH  16  19
ENDBRANCH   7  16
TORSDOF 3
ENDMDL
MODEL 8
REMARK VINA RESULT:     -10.0      1.926      9.464
REMARK  Name = 24779724
REMARK  3 active torsions:
REMARK  status: ('A' for Active; 'I' for Inactive)
REMARK    1  A    between atoms: C_5  and  C_12
REMARK    2  A    between atoms: C_7  and  S_16
REMARK    3  A    between atoms: S_16  and  C_19
REMARK                            x       y       z     vdW  Elec       q    Type
REMARK                         _______ _______ _______ _____ _____    ______ ____
ROOT
ATOM      1  N   UNL     1      35.048 -21.771 -18.244  0.00  0.00    -0.186 N 
ATOM      2  N   UNL     1      35.547 -20.848 -19.103  0.00  0.00    -0.162 NA
ATOM      3  N   UNL     1      33.690 -23.186 -17.255  0.00  0.00    -0.126 NA
ATOM      4  N   UNL     1      34.899 -23.201 -16.590  0.00  0.00    -0.120 NA
ATOM      5  C   UNL     1      34.702 -20.474 -20.022  0.00  0.00    +0.104 C 
ATOM      6  C   UNL     1      33.789 -22.325 -18.246  0.00  0.00    +0.187 A 
ATOM      7  C   UNL     1      35.698 -22.350 -17.192  0.00  0.00    +0.217 A 
ATOM      8  C   UNL     1      33.294 -20.978 -20.136  0.00  0.00    +0.024 C 
ATOM      9  C   UNL     1      32.892 -21.889 -19.241  0.00  0.00    +0.042 C 
ENDROOT
BRANCH   5  12
ATOM     10  N   UNL     1      35.196 -18.159 -22.776  0.00  0.00    -0.208 N 
ATOM     11  N   UNL     1      36.348 -17.886 -22.139  0.00  0.00    -0.176 NA
ATOM     12  C   UNL     1      35.131 -19.469 -21.028  0.00  0.00    +0.056 C 
ATOM     13  C   UNL     1      34.431 -19.101 -22.152  0.00  0.00    +0.087 C 
ATOM     14  C   UNL     1      36.303 -18.689 -21.073  0.00  0.00    +0.121 C 
ATOM     15  C   UNL     1      34.875 -17.472 -24.004  0.00  0.00    +0.140 C 
ENDBRANCH   5  12
BRANCH   7  16
ATOM     16  S   UNL     1      37.385 -21.971 -16.747  0.00  0.00    -0.051 S 
BRANCH  16  19
ATOM     17  N   UNL     1      38.169 -25.462 -11.994  0.00  0.00    -0.248 NA
ATOM     18  C   UNL     1      36.969 -23.673 -13.074  0.00  0.00    -0.003 C 
ATOM     19  C   UNL     1      37.611 -23.012 -15.319  0.00  0.00    +0.011 C 
ATOM     20  C   UNL     1      37.975 -24.662 -13.059  0.00  0.00    +0.060 C 
ATOM     21  C   UNL     1      36.794 -22.856 -14.203  0.00  0.00    +0.060 C 
ATOM     22  C   UNL     1      38.604 -23.983 -15.311  0.00  0.00    -0.017 C 
ATOM     23  C   UNL     1      38.778 -24.796 -14.189  0.00  0.00    +0.072 C 
ATOM     24  C   UNL     1      36.161 -23.538 -11.937  0.00  0.00    -0.001 C 
ATOM     25  C   UNL     1      36.359 -24.361 -10.838  0.00  0.00    +0.020 C 
ATOM     26  C   UNL     1      37.368 -25.299 -10.917  0.00  0.00    +0.098 C 
ENDBRANCH  16  19
ENDBRANCH   7  16
TORSDOF 3
ENDMDL
MODEL 9
REMARK VINA RESULT:      -9.9      4.065      6.915
REMARK  Name = 24779724
REMARK  3 active torsions:
REMARK  status: ('A' for Active; 'I' for Inactive)
REMARK    1  A    between atoms: C_5  and  C_12
REMARK    2  A    between atoms: C_7  and  S_16
REMARK    3  A    between atoms: S_16  and  C_19
REMARK                            x       y       z     vdW  Elec       q    Type
REMARK                         _______ _______ _______ _____ _____    ______ ____
ROOT
ATOM      1  N   UNL     1      35.774 -24.656 -12.764  0.00  0.00    -0.186 N 
ATOM      2  N   UNL     1      36.661 -25.266 -13.588  0.00  0.00    -0.162 NA
ATOM      3  N   UNL     1      34.887 -23.665 -11.016  0.00  0.00    -0.126 NA
ATOM      4  N   UNL     1      33.922 -23.769 -11.997  0.00  0.00    -0.120 NA
ATOM      5  C   UNL     1      37.848 -25.410 -13.070  0.00  0.00    +0.104 C 
ATOM      6  C   UNL     1      35.994 -24.200 -11.485  0.00  0.00    +0.187 A 
ATOM      7  C   UNL     1      34.468 -24.365 -13.033  0.00  0.00    +0.217 A 
ATOM      8  C   UNL     1      38.227 -24.978 -11.685  0.00  0.00    +0.024 C 
ATOM      9  C   UNL     1      37.282 -24.385 -10.945  0.00  0.00    +0.042 C 
ENDROOT
BRANCH   5  12
ATOM     10  N   UNL     1      39.964 -27.324 -15.316  0.00  0.00    -0.208 N 
ATOM     11  N   UNL     1      40.954 -26.629 -14.730  0.00  0.00    -0.176 NA
ATOM     12  C   UNL     1      38.912 -26.059 -13.878  0.00  0.00    +0.056 C 
ATOM     13  C   UNL     1      38.721 -27.020 -14.841  0.00  0.00    +0.087 C 
ATOM     14  C   UNL     1      40.305 -25.858 -13.853  0.00  0.00    +0.121 C 
ATOM     15  C   UNL     1      40.275 -28.286 -16.346  0.00  0.00    +0.140 C 
ENDBRANCH   5  12
BRANCH   7  16
ATOM     16  S   UNL     1      33.670 -24.756 -14.583  0.00  0.00    -0.051 S 
BRANCH  16  19
ATOM     17  N   UNL     1      36.603 -21.163 -18.307  0.00  0.00    -0.248 NA
ATOM     18  C   UNL     1      34.604 -22.392 -17.760  0.00  0.00    -0.003 C 
ATOM     19  C   UNL     1      34.538 -23.680 -15.704  0.00  0.00    +0.011 C 
ATOM     20  C   UNL     1      35.921 -21.975 -17.478  0.00  0.00    +0.060 C 
ATOM     21  C   UNL     1      33.922 -23.241 -16.872  0.00  0.00    +0.060 C 
ATOM     22  C   UNL     1      35.836 -23.273 -15.420  0.00  0.00    -0.017 C 
ATOM     23  C   UNL     1      36.514 -22.430 -16.303  0.00  0.00    +0.072 C 
ATOM     24  C   UNL     1      34.007 -21.935 -18.943  0.00  0.00    -0.001 C 
ATOM     25  C   UNL     1      34.707 -21.098 -19.800  0.00  0.00    +0.020 C 
ATOM     26  C   UNL     1      35.991 -20.745 -19.438  0.00  0.00    +0.098 C 
ENDBRANCH  16  19
ENDBRANCH   7  16
TORSDOF 3
ENDMDL
