MODEL 1
REMARK VINA RESULT:     -11.6      0.000      0.000
REMARK  Name = 5326869
REMARK  6 active torsions:
REMARK  status: ('A' for Active; 'I' for Inactive)
REMARK    1  A    between atoms: N_2  and  C_11
REMARK    2  A    between atoms: C_3  and  C_25
REMARK    3  A    between atoms: N_5  and  C_14
REMARK    4  A    between atoms: C_14  and  C_15
REMARK    5  A    between atoms: C_15  and  C_17
REMARK    6  A    between atoms: C_23  and  N_30
REMARK                            x       y       z     vdW  Elec       q    Type
REMARK                         _______ _______ _______ _____ _____    ______ ____
ROOT
ATOM      1  O   UNL     1      36.697 -18.787 -20.081  0.00  0.00    -0.270 OA
ATOM      2  N   UNL     1      35.183 -20.585 -20.128  0.00  0.00    -0.280 N 
ATOM      3  C   UNL     1      35.796 -19.423 -20.616  0.00  0.00    +0.250 C 
ATOM      4  H   UNL     1      34.471 -20.966 -20.691  0.00  0.00    +0.155 HD
ENDROOT
BRANCH   2  11
ATOM      5  N   UNL     1      33.936 -23.312 -16.228  0.00  0.00    -0.286 N 
ATOM      6  C   UNL     1      34.739 -22.594 -17.086  0.00  0.00    +0.053 C 
ATOM      7  C   UNL     1      36.034 -22.632 -16.565  0.00  0.00    +0.015 C 
ATOM      8  C   UNL     1      34.678 -23.801 -15.186  0.00  0.00    +0.065 C 
ATOM      9  C   UNL     1      34.419 -21.920 -18.270  0.00  0.00    +0.029 C 
ATOM     10  C   UNL     1      35.981 -23.397 -15.367  0.00  0.00    +0.017 C 
ATOM     11  C   UNL     1      35.457 -21.267 -18.942  0.00  0.00    +0.052 C 
ATOM     12  C   UNL     1      37.063 -21.966 -17.260  0.00  0.00    +0.003 C 
ATOM     13  C   UNL     1      36.759 -21.289 -18.446  0.00  0.00    +0.015 C 
BRANCH   5  14
ATOM     14  C   UNL     1      32.515 -23.529 -16.389  0.00  0.00    +0.100 C 
BRANCH  14  15
ATOM     15  C   UNL     1      31.737 -23.488 -15.070  0.00  0.00    +0.048 C 
BRANCH  15  17
ATOM     16  N   UNL     1      27.487 -23.355 -15.607  0.00  0.00    -0.242 NA
ATOM     17  C   UNL     1      30.241 -23.442 -15.258  0.00  0.00    -0.017 C 
ATOM     18  C   UNL     1      29.512 -22.426 -14.669  0.00  0.00    +0.016 C 
ATOM     19  C   UNL     1      29.620 -24.415 -16.019  0.00  0.00    +0.016 C 
ATOM     20  C   UNL     1      28.141 -22.427 -14.873  0.00  0.00    +0.099 C 
ATOM     21  C   UNL     1      28.245 -24.327 -16.162  0.00  0.00    +0.099 C 
ENDBRANCH  15  17
ENDBRANCH  14  15
ENDBRANCH   5  14
ENDBRANCH   2  11
BRANCH   3  25
ATOM     22  F   UNL     1      34.320 -20.182 -25.157  0.00  0.00    -0.204 F 
ATOM     23  C   UNL     1      34.498 -17.092 -23.246  0.00  0.00    +0.050 C 
ATOM     24  C   UNL     1      35.000 -17.567 -22.035  0.00  0.00    +0.019 C 
ATOM     25  C   UNL     1      35.263 -18.915 -21.906  0.00  0.00    +0.057 C 
ATOM     26  C   UNL     1      34.268 -17.975 -24.300  0.00  0.00    +0.044 C 
ATOM     27  C   UNL     1      35.044 -19.809 -22.934  0.00  0.00    +0.034 C 
ATOM     28  C   UNL     1      34.542 -19.334 -24.145  0.00  0.00    +0.142 C 
BRANCH  23  30
ATOM     29  O   UNL     1      33.923 -12.968 -23.833  0.00  0.00    -0.350 OA
ATOM     30  N   UNL     1      34.224 -15.729 -23.402  0.00  0.00    -0.303 N 
ATOM     31  C   UNL     1      34.703 -14.766 -22.404  0.00  0.00    +0.123 C 
ATOM     32  C   UNL     1      34.089 -15.201 -24.767  0.00  0.00    +0.123 C 
ATOM     33  C   UNL     1      33.894 -13.478 -22.500  0.00  0.00    +0.164 C 
ATOM     34  C   UNL     1      33.313 -13.889 -24.737  0.00  0.00    +0.164 C 
ENDBRANCH  23  30
ENDBRANCH   3  25
TORSDOF 6
ENDMDL
MODEL 2
REMARK VINA RESULT:     -11.5      3.109     10.245
REMARK  Name = 5326869
REMARK  6 active torsions:
REMARK  status: ('A' for Active; 'I' for Inactive)
REMARK    1  A    between atoms: N_2  and  C_11
REMARK    2  A    between atoms: C_3  and  C_25
REMARK    3  A    between atoms: N_5  and  C_14
REMARK    4  A    between atoms: C_14  and  C_15
REMARK    5  A    between atoms: C_15  and  C_17
REMARK    6  A    between atoms: C_23  and  N_30
REMARK                            x       y       z     vdW  Elec       q    Type
REMARK                         _______ _______ _______ _____ _____    ______ ____
ROOT
ATOM      1  O   UNL     1      32.778 -21.258 -19.998  0.00  0.00    -0.270 OA
ATOM      2  N   UNL     1      34.919 -20.284 -20.010  0.00  0.00    -0.280 N 
ATOM      3  C   UNL     1      33.897 -21.109 -19.519  0.00  0.00    +0.250 C 
ATOM      4  H   UNL     1      35.758 -20.286 -19.496  0.00  0.00    +0.155 HD
ENDROOT
BRANCH   2  11
ATOM      5  N   UNL     1      34.866 -15.916 -22.273  0.00  0.00    -0.286 N 
ATOM      6  C   UNL     1      34.869 -17.286 -22.130  0.00  0.00    +0.053 C 
ATOM      7  C   UNL     1      34.841 -17.833 -23.414  0.00  0.00    +0.015 C 
ATOM      8  C   UNL     1      34.836 -15.581 -23.600  0.00  0.00    +0.065 C 
ATOM      9  C   UNL     1      34.895 -18.073 -20.973  0.00  0.00    +0.029 C 
ATOM     10  C   UNL     1      34.820 -16.745 -24.332  0.00  0.00    +0.017 C 
ATOM     11  C   UNL     1      34.892 -19.462 -21.137  0.00  0.00    +0.052 C 
ATOM     12  C   UNL     1      34.838 -19.235 -23.554  0.00  0.00    +0.003 C 
ATOM     13  C   UNL     1      34.864 -20.036 -22.406  0.00  0.00    +0.015 C 
BRANCH   5  14
ATOM     14  C   UNL     1      34.891 -14.958 -21.189  0.00  0.00    +0.100 C 
BRANCH  14  15
ATOM     15  C   UNL     1      33.503 -14.630 -20.631  0.00  0.00    +0.048 C 
BRANCH  15  17
ATOM     16  N   UNL     1      31.935 -10.901 -22.046  0.00  0.00    -0.242 NA
ATOM     17  C   UNL     1      32.952 -13.317 -21.128  0.00  0.00    -0.017 C 
ATOM     18  C   UNL     1      33.382 -12.813 -22.341  0.00  0.00    +0.016 C 
ATOM     19  C   UNL     1      32.022 -12.636 -20.365  0.00  0.00    +0.016 C 
ATOM     20  C   UNL     1      32.845 -11.604 -22.754  0.00  0.00    +0.099 C 
ATOM     21  C   UNL     1      31.546 -11.436 -20.866  0.00  0.00    +0.099 C 
ENDBRANCH  15  17
ENDBRANCH  14  15
ENDBRANCH   5  14
ENDBRANCH   2  11
BRANCH   3  25
ATOM     22  F   UNL     1      37.118 -22.785 -16.326  0.00  0.00    -0.204 F 
ATOM     23  C   UNL     1      33.493 -23.087 -16.363  0.00  0.00    +0.050 C 
ATOM     24  C   UNL     1      33.189 -22.394 -17.535  0.00  0.00    +0.019 C 
ATOM     25  C   UNL     1      34.219 -21.849 -18.272  0.00  0.00    +0.057 C 
ATOM     26  C   UNL     1      34.819 -23.219 -15.955  0.00  0.00    +0.044 C 
ATOM     27  C   UNL     1      35.540 -21.965 -17.890  0.00  0.00    +0.034 C 
ATOM     28  C   UNL     1      35.844 -22.659 -16.718  0.00  0.00    +0.142 C 
BRANCH  23  30
ATOM     29  O   UNL     1      30.347 -24.523 -13.971  0.00  0.00    -0.350 OA
ATOM     30  N   UNL     1      32.466 -23.649 -15.597  0.00  0.00    -0.303 N 
ATOM     31  C   UNL     1      32.702 -23.982 -14.188  0.00  0.00    +0.123 C 
ATOM     32  C   UNL     1      31.079 -23.301 -15.935  0.00  0.00    +0.123 C 
ATOM     33  C   UNL     1      31.668 -25.000 -13.719  0.00  0.00    +0.164 C 
ATOM     34  C   UNL     1      30.132 -24.355 -15.373  0.00  0.00    +0.164 C 
ENDBRANCH  23  30
ENDBRANCH   3  25
TORSDOF 6
ENDMDL
MODEL 3
REMARK VINA RESULT:     -11.3      4.754      8.941
REMARK  Name = 5326869
REMARK  6 active torsions:
REMARK  status: ('A' for Active; 'I' for Inactive)
REMARK    1  A    between atoms: N_2  and  C_11
REMARK    2  A    between atoms: C_3  and  C_25
REMARK    3  A    between atoms: N_5  and  C_14
REMARK    4  A    between atoms: C_14  and  C_15
REMARK    5  A    between atoms: C_15  and  C_17
REMARK    6  A    between atoms: C_23  and  N_30
REMARK                            x       y       z     vdW  Elec       q    Type
REMARK                         _______ _______ _______ _____ _____    ______ ____
ROOT
ATOM      1  O   UNL     1      31.100 -12.655 -22.346  0.00  0.00    -0.270 OA
ATOM      2  N   UNL     1      33.383 -12.925 -21.854  0.00  0.00    -0.280 N 
ATOM      3  C   UNL     1      32.129 -12.302 -21.782  0.00  0.00    +0.250 C 
ATOM      4  H   UNL     1      34.105 -12.503 -21.334  0.00  0.00    +0.155 HD
ENDROOT
BRANCH   2  11
ATOM      5  N   UNL     1      35.264 -17.450 -22.283  0.00  0.00    -0.286 N 
ATOM      6  C   UNL     1      34.670 -16.268 -22.664  0.00  0.00    +0.053 C 
ATOM      7  C   UNL     1      34.425 -16.354 -24.036  0.00  0.00    +0.015 C 
ATOM      8  C   UNL     1      35.401 -18.279 -23.365  0.00  0.00    +0.065 C 
ATOM      9  C   UNL     1      34.337 -15.139 -21.906  0.00  0.00    +0.029 C 
ATOM     10  C   UNL     1      34.891 -17.629 -24.465  0.00  0.00    +0.017 C 
ATOM     11  C   UNL     1      33.733 -14.069 -22.573  0.00  0.00    +0.052 C 
ATOM     12  C   UNL     1      33.815 -15.262 -24.686  0.00  0.00    +0.003 C 
ATOM     13  C   UNL     1      33.476 -14.127 -23.941  0.00  0.00    +0.015 C 
BRANCH   5  14
ATOM     14  C   UNL     1      35.685 -17.786 -20.941  0.00  0.00    +0.100 C 
BRANCH  14  15
ATOM     15  C   UNL     1      36.337 -19.168 -20.832  0.00  0.00    +0.048 C 
BRANCH  15  17
ATOM     16  N   UNL     1      33.869 -22.064 -18.860  0.00  0.00    -0.242 NA
ATOM     17  C   UNL     1      35.468 -20.187 -20.137  0.00  0.00    -0.017 C 
ATOM     18  C   UNL     1      34.097 -20.137 -20.300  0.00  0.00    +0.016 C 
ATOM     19  C   UNL     1      36.056 -21.158 -19.349  0.00  0.00    +0.016 C 
ATOM     20  C   UNL     1      33.343 -21.095 -19.642  0.00  0.00    +0.099 C 
ATOM     21  C   UNL     1      35.215 -22.071 -18.734  0.00  0.00    +0.099 C 
ENDBRANCH  15  17
ENDBRANCH  14  15
ENDBRANCH   5  14
ENDBRANCH   2  11
BRANCH   3  25
ATOM     22  F   UNL     1      31.992 -10.144 -17.457  0.00  0.00    -0.204 F 
ATOM     23  C   UNL     1      32.000  -8.691 -20.792  0.00  0.00    +0.050 C 
ATOM     24  C   UNL     1      32.049  -9.844 -21.575  0.00  0.00    +0.019 C 
ATOM     25  C   UNL     1      32.076 -11.073 -20.949  0.00  0.00    +0.057 C 
ATOM     26  C   UNL     1      31.981  -8.792 -19.402  0.00  0.00    +0.044 C 
ATOM     27  C   UNL     1      32.058 -11.200 -19.576  0.00  0.00    +0.034 C 
ATOM     28  C   UNL     1      32.009 -10.047 -18.793  0.00  0.00    +0.142 C 
BRANCH  23  30
ATOM     29  O   UNL     1      32.190  -4.900 -22.603  0.00  0.00    -0.350 OA
ATOM     30  N   UNL     1      31.972  -7.433 -21.402  0.00  0.00    -0.303 N 
ATOM     31  C   UNL     1      31.970  -6.219 -20.578  0.00  0.00    +0.123 C 
ATOM     32  C   UNL     1      32.594  -7.289 -22.726  0.00  0.00    +0.123 C 
ATOM     33  C   UNL     1      31.445  -5.043 -21.394  0.00  0.00    +0.164 C 
ATOM     34  C   UNL     1      32.035  -6.056 -23.427  0.00  0.00    +0.164 C 
ENDBRANCH  23  30
ENDBRANCH   3  25
TORSDOF 6
ENDMDL
MODEL 4
REMARK VINA RESULT:     -10.7      3.499     10.293
REMARK  Name = 5326869
REMARK  6 active torsions:
REMARK  status: ('A' for Active; 'I' for Inactive)
REMARK    1  A    between atoms: N_2  and  C_11
REMARK    2  A    between atoms: C_3  and  C_25
REMARK    3  A    between atoms: N_5  and  C_14
REMARK    4  A    between atoms: C_14  and  C_15
REMARK    5  A    between atoms: C_15  and  C_17
REMARK    6  A    between atoms: C_23  and  N_30
REMARK                            x       y       z     vdW  Elec       q    Type
REMARK                         _______ _______ _______ _____ _____    ______ ____
ROOT
ATOM      1  O   UNL     1      36.660 -20.906 -19.862  0.00  0.00    -0.270 OA
ATOM      2  N   UNL     1      34.466 -20.142 -20.228  0.00  0.00    -0.280 N 
ATOM      3  C   UNL     1      35.468 -20.874 -19.576  0.00  0.00    +0.250 C 
ATOM      4  H   UNL     1      33.557 -20.235 -19.862  0.00  0.00    +0.155 HD
ENDROOT
BRANCH   2  11
ATOM      5  N   UNL     1      34.861 -15.735 -22.377  0.00  0.00    -0.286 N 
ATOM      6  C   UNL     1      34.786 -17.105 -22.268  0.00  0.00    +0.053 C 
ATOM      7  C   UNL     1      34.869 -17.625 -23.561  0.00  0.00    +0.015 C 
ATOM      8  C   UNL     1      34.990 -15.372 -23.691  0.00  0.00    +0.065 C 
ATOM      9  C   UNL     1      34.650 -17.915 -21.134  0.00  0.00    +0.029 C 
ATOM     10  C   UNL     1      34.998 -16.521 -24.448  0.00  0.00    +0.017 C 
ATOM     11  C   UNL     1      34.599 -19.298 -21.331  0.00  0.00    +0.052 C 
ATOM     12  C   UNL     1      34.816 -19.023 -23.733  0.00  0.00    +0.003 C 
ATOM     13  C   UNL     1      34.681 -19.845 -22.609  0.00  0.00    +0.015 C 
BRANCH   5  14
ATOM     14  C   UNL     1      34.815 -14.799 -21.274  0.00  0.00    +0.100 C 
BRANCH  14  15
ATOM     15  C   UNL     1      33.392 -14.474 -20.808  0.00  0.00    +0.048 C 
BRANCH  15  17
ATOM     16  N   UNL     1      31.955 -10.697 -22.234  0.00  0.00    -0.242 NA
ATOM     17  C   UNL     1      32.886 -13.146 -21.310  0.00  0.00    -0.017 C 
ATOM     18  C   UNL     1      31.947 -12.451 -20.571  0.00  0.00    +0.016 C 
ATOM     19  C   UNL     1      33.369 -12.639 -22.503  0.00  0.00    +0.016 C 
ATOM     20  C   UNL     1      31.514 -11.235 -21.075  0.00  0.00    +0.099 C 
ATOM     21  C   UNL     1      32.872 -11.415 -22.920  0.00  0.00    +0.099 C 
ENDBRANCH  15  17
ENDBRANCH  14  15
ENDBRANCH   5  14
ENDBRANCH   2  11
BRANCH   3  25
ATOM     22  F   UNL     1      31.952 -23.200 -17.207  0.00  0.00    -0.204 F 
ATOM     23  C   UNL     1      35.493 -22.903 -16.426  0.00  0.00    +0.050 C 
ATOM     24  C   UNL     1      35.926 -22.115 -17.493  0.00  0.00    +0.019 C 
ATOM     25  C   UNL     1      35.007 -21.711 -18.438  0.00  0.00    +0.057 C 
ATOM     26  C   UNL     1      34.152 -23.269 -16.330  0.00  0.00    +0.044 C 
ATOM     27  C   UNL     1      33.674 -22.060 -18.366  0.00  0.00    +0.034 C 
ATOM     28  C   UNL     1      33.241 -22.848 -17.299  0.00  0.00    +0.142 C 
BRANCH  23  30
ATOM     29  O   UNL     1      38.213 -23.923 -13.386  0.00  0.00    -0.350 OA
ATOM     30  N   UNL     1      36.405 -23.325 -15.454  0.00  0.00    -0.303 N 
ATOM     31  C   UNL     1      37.831 -23.013 -15.602  0.00  0.00    +0.123 C 
ATOM     32  C   UNL     1      35.934 -23.451 -14.068  0.00  0.00    +0.123 C 
ATOM     33  C   UNL     1      38.659 -23.961 -14.741  0.00  0.00    +0.164 C 
ATOM     34  C   UNL     1      36.862 -24.375 -13.289  0.00  0.00    +0.164 C 
ENDBRANCH  23  30
ENDBRANCH   3  25
TORSDOF 6
ENDMDL
MODEL 5
REMARK VINA RESULT:     -10.6      2.842      5.618
REMARK  Name = 5326869
REMARK  6 active torsions:
REMARK  status: ('A' for Active; 'I' for Inactive)
REMARK    1  A    between atoms: N_2  and  C_11
REMARK    2  A    between atoms: C_3  and  C_25
REMARK    3  A    between atoms: N_5  and  C_14
REMARK    4  A    between atoms: C_14  and  C_15
REMARK    5  A    between atoms: C_15  and  C_17
REMARK    6  A    between atoms: C_23  and  N_30
REMARK                            x       y       z     vdW  Elec       q    Type
REMARK                         _______ _______ _______ _____ _____    ______ ____
ROOT
ATOM      1  O   UNL     1      32.328 -22.134 -19.816  0.00  0.00    -0.270 OA
ATOM      2  N   UNL     1      33.403 -21.848 -17.745  0.00  0.00    -0.280 N 
ATOM      3  C   UNL     1      33.235 -21.682 -19.126  0.00  0.00    +0.250 C 
ATOM      4  H   UNL     1      34.193 -21.413 -17.351  0.00  0.00    +0.155 HD
ENDROOT
BRANCH   2  11
ATOM      5  N   UNL     1      32.613 -24.804 -13.892  0.00  0.00    -0.286 N 
ATOM      6  C   UNL     1      32.322 -23.999 -14.971  0.00  0.00    +0.053 C 
ATOM      7  C   UNL     1      30.932 -23.966 -15.095  0.00  0.00    +0.015 C 
ATOM      8  C   UNL     1      31.457 -25.279 -13.333  0.00  0.00    +0.065 C 
ATOM      9  C   UNL     1      33.176 -23.306 -15.837  0.00  0.00    +0.029 C 
ATOM     10  C   UNL     1      30.399 -24.777 -14.055  0.00  0.00    +0.017 C 
ATOM     11  C   UNL     1      32.588 -22.556 -16.860  0.00  0.00    +0.052 C 
ATOM     12  C   UNL     1      30.363 -23.202 -16.134  0.00  0.00    +0.003 C 
ATOM     13  C   UNL     1      31.204 -22.504 -17.008  0.00  0.00    +0.015 C 
BRANCH   5  14
ATOM     14  C   UNL     1      33.941 -25.113 -13.407  0.00  0.00    +0.100 C 
BRANCH  14  15
ATOM     15  C   UNL     1      34.515 -24.041 -12.475  0.00  0.00    +0.048 C 
BRANCH  15  17
ATOM     16  N   UNL     1      38.789 -24.155 -12.180  0.00  0.00    -0.242 NA
ATOM     17  C   UNL     1      36.019 -24.082 -12.371  0.00  0.00    -0.017 C 
ATOM     18  C   UNL     1      36.751 -24.747 -13.336  0.00  0.00    +0.016 C 
ATOM     19  C   UNL     1      36.646 -23.453 -11.311  0.00  0.00    +0.016 C 
ATOM     20  C   UNL     1      38.130 -24.755 -13.196  0.00  0.00    +0.099 C 
ATOM     21  C   UNL     1      38.028 -23.518 -11.262  0.00  0.00    +0.099 C 
ENDBRANCH  15  17
ENDBRANCH  14  15
ENDBRANCH   5  14
ENDBRANCH   2  11
BRANCH   3  25
ATOM     22  F   UNL     1      37.836 -20.241 -19.499  0.00  0.00    -0.204 F 
ATOM     23  C   UNL     1      34.949 -19.388 -21.542  0.00  0.00    +0.050 C 
ATOM     24  C   UNL     1      33.954 -20.129 -20.904  0.00  0.00    +0.019 C 
ATOM     25  C   UNL     1      34.293 -20.890 -19.805  0.00  0.00    +0.057 C 
ATOM     26  C   UNL     1      36.259 -19.425 -21.068  0.00  0.00    +0.044 C 
ATOM     27  C   UNL     1      35.582 -20.945 -19.316  0.00  0.00    +0.034 C 
ATOM     28  C   UNL     1      36.577 -20.204 -19.955  0.00  0.00    +0.142 C 
BRANCH  23  30
ATOM     29  O   UNL     1      34.205 -17.159 -25.030  0.00  0.00    -0.350 OA
ATOM     30  N   UNL     1      34.631 -18.607 -22.658  0.00  0.00    -0.303 N 
ATOM     31  C   UNL     1      35.333 -17.339 -22.889  0.00  0.00    +0.123 C 
ATOM     32  C   UNL     1      34.157 -19.289 -23.870  0.00  0.00    +0.123 C 
ATOM     33  C   UNL     1      34.512 -16.458 -23.825  0.00  0.00    +0.164 C 
ATOM     34  C   UNL     1      33.399 -18.305 -24.753  0.00  0.00    +0.164 C 
ENDBRANCH  23  30
ENDBRANCH   3  25
TORSDOF 6
ENDMDL
MODEL 6
REMARK VINA RESULT:     -10.3      3.747     10.708
REMARK  Name = 5326869
REMARK  6 active torsions:
REMARK  status: ('A' for Active; 'I' for Inactive)
REMARK    1  A    between atoms: N_2  and  C_11
REMARK    2  A    between atoms: C_3  and  C_25
REMARK    3  A    between atoms: N_5  and  C_14
REMARK    4  A    between atoms: C_14  and  C_15
REMARK    5  A    between atoms: C_15  and  C_17
REMARK    6  A    between atoms: C_23  and  N_30
REMARK                            x       y       z     vdW  Elec       q    Type
REMARK                         _______ _______ _______ _____ _____    ______ ____
ROOT
ATOM      1  O   UNL     1      35.163 -21.652 -20.167  0.00  0.00    -0.270 OA
ATOM      2  N   UNL     1      36.063 -19.480 -20.178  0.00  0.00    -0.280 N 
ATOM      3  C   UNL     1      35.841 -20.764 -19.662  0.00  0.00    +0.250 C 
ATOM      4  H   UNL     1      36.637 -18.891 -19.637  0.00  0.00    +0.155 HD
ENDROOT
BRANCH   2  11
ATOM      5  N   UNL     1      34.537 -15.759 -23.012  0.00  0.00    -0.286 N 
ATOM      6  C   UNL     1      34.849 -17.050 -22.651  0.00  0.00    +0.053 C 
ATOM      7  C   UNL     1      34.582 -17.861 -23.755  0.00  0.00    +0.015 C 
ATOM      8  C   UNL     1      34.082 -15.727 -24.303  0.00  0.00    +0.065 C 
ATOM      9  C   UNL     1      35.343 -17.556 -21.443  0.00  0.00    +0.029 C 
ATOM     10  C   UNL     1      34.099 -17.013 -24.790  0.00  0.00    +0.017 C 
ATOM     11  C   UNL     1      35.570 -18.934 -21.364  0.00  0.00    +0.052 C 
ATOM     12  C   UNL     1      34.819 -19.247 -23.652  0.00  0.00    +0.003 C 
ATOM     13  C   UNL     1      35.313 -19.767 -22.450  0.00  0.00    +0.015 C 
BRANCH   5  14
ATOM     14  C   UNL     1      34.665 -14.594 -22.163  0.00  0.00    +0.100 C 
BRANCH  14  15
ATOM     15  C   UNL     1      33.319 -14.005 -21.727  0.00  0.00    +0.048 C 
BRANCH  15  17
ATOM     16  N   UNL     1      32.601 -10.073 -23.274  0.00  0.00    -0.242 NA
ATOM     17  C   UNL     1      33.068 -12.620 -22.271  0.00  0.00    -0.017 C 
ATOM     18  C   UNL     1      33.771 -12.185 -23.378  0.00  0.00    +0.016 C 
ATOM     19  C   UNL     1      32.134 -11.807 -21.656  0.00  0.00    +0.016 C 
ATOM     20  C   UNL     1      33.503 -10.906 -23.839  0.00  0.00    +0.099 C 
ATOM     21  C   UNL     1      31.939 -10.545 -22.194  0.00  0.00    +0.099 C 
ENDBRANCH  15  17
ENDBRANCH  14  15
ENDBRANCH   5  14
ENDBRANCH   2  11
BRANCH   3  25
ATOM     22  F   UNL     1      39.235 -19.826 -16.348  0.00  0.00    -0.204 F 
ATOM     23  C   UNL     1      36.578 -22.311 -16.331  0.00  0.00    +0.050 C 
ATOM     24  C   UNL     1      35.974 -22.050 -17.560  0.00  0.00    +0.019 C 
ATOM     25  C   UNL     1      36.485 -21.044 -18.353  0.00  0.00    +0.057 C 
ATOM     26  C   UNL     1      37.679 -21.560 -15.921  0.00  0.00    +0.044 C 
ATOM     27  C   UNL     1      37.574 -20.287 -17.971  0.00  0.00    +0.034 C 
ATOM     28  C   UNL     1      38.178 -20.548 -16.741  0.00  0.00    +0.142 C 
BRANCH  23  30
ATOM     29  O   UNL     1      35.100 -25.188 -13.644  0.00  0.00    -0.350 OA
ATOM     30  N   UNL     1      36.079 -23.326 -15.508  0.00  0.00    -0.303 N 
ATOM     31  C   UNL     1      37.005 -24.190 -14.767  0.00  0.00    +0.123 C 
ATOM     32  C   UNL     1      34.769 -23.123 -14.874  0.00  0.00    +0.123 C 
ATOM     33  C   UNL     1      36.296 -25.479 -14.365  0.00  0.00    +0.164 C 
ATOM     34  C   UNL     1      34.180 -24.469 -14.466  0.00  0.00    +0.164 C 
ENDBRANCH  23  30
ENDBRANCH   3  25
TORSDOF 6
ENDMDL
MODEL 7
REMARK VINA RESULT:     -10.2      5.125     13.213
REMARK  Name = 5326869
REMARK  6 active torsions:
REMARK  status: ('A' for Active; 'I' for Inactive)
REMARK    1  A    between atoms: N_2  and  C_11
REMARK    2  A    between atoms: C_3  and  C_25
REMARK    3  A    between atoms: N_5  and  C_14
REMARK    4  A    between atoms: C_14  and  C_15
REMARK    5  A    between atoms: C_15  and  C_17
REMARK    6  A    between atoms: C_23  and  N_30
REMARK                            x       y       z     vdW  Elec       q    Type
REMARK                         _______ _______ _______ _____ _____    ______ ____
ROOT
ATOM      1  O   UNL     1      34.704 -13.896 -20.507  0.00  0.00    -0.270 OA
ATOM      2  N   UNL     1      33.262 -13.479 -22.316  0.00  0.00    -0.280 N 
ATOM      3  C   UNL     1      34.176 -14.228 -21.563  0.00  0.00    +0.250 C 
ATOM      4  H   UNL     1      32.937 -13.902 -23.144  0.00  0.00    +0.155 HD
ENDROOT
BRANCH   2  11
ATOM      5  N   UNL     1      33.124  -8.587 -22.815  0.00  0.00    -0.286 N 
ATOM      6  C   UNL     1      32.778  -9.839 -22.357  0.00  0.00    +0.053 C 
ATOM      7  C   UNL     1      31.719  -9.671 -21.463  0.00  0.00    +0.015 C 
ATOM      8  C   UNL     1      32.321  -7.637 -22.241  0.00  0.00    +0.065 C 
ATOM      9  C   UNL     1      33.317 -11.093 -22.664  0.00  0.00    +0.029 C 
ATOM     10  C   UNL     1      31.442  -8.277 -21.400  0.00  0.00    +0.017 C 
ATOM     11  C   UNL     1      32.755 -12.209 -22.037  0.00  0.00    +0.052 C 
ATOM     12  C   UNL     1      31.169 -10.811 -20.843  0.00  0.00    +0.003 C 
ATOM     13  C   UNL     1      31.698 -12.072 -21.140  0.00  0.00    +0.015 C 
BRANCH   5  14
ATOM     14  C   UNL     1      34.177  -8.299 -23.764  0.00  0.00    +0.100 C 
BRANCH  14  15
ATOM     15  C   UNL     1      34.936  -7.004 -23.461  0.00  0.00    +0.048 C 
BRANCH  15  17
ATOM     16  N   UNL     1      33.771  -3.725 -25.962  0.00  0.00    -0.242 NA
ATOM     17  C   UNL     1      34.527  -5.850 -24.341  0.00  0.00    -0.017 C 
ATOM     18  C   UNL     1      35.258  -5.568 -25.479  0.00  0.00    +0.016 C 
ATOM     19  C   UNL     1      33.424  -5.089 -23.997  0.00  0.00    +0.016 C 
ATOM     20  C   UNL     1      34.841  -4.498 -26.254  0.00  0.00    +0.099 C 
ATOM     21  C   UNL     1      33.089  -4.041 -24.838  0.00  0.00    +0.099 C 
ENDBRANCH  15  17
ENDBRANCH  14  15
ENDBRANCH   5  14
ENDBRANCH   2  11
BRANCH   3  25
ATOM     22  F   UNL     1      34.805 -17.136 -25.374  0.00  0.00    -0.204 F 
ATOM     23  C   UNL     1      35.283 -17.797 -21.828  0.00  0.00    +0.050 C 
ATOM     24  C   UNL     1      34.933 -16.560 -21.287  0.00  0.00    +0.019 C 
ATOM     25  C   UNL     1      34.547 -15.546 -22.138  0.00  0.00    +0.057 C 
ATOM     26  C   UNL     1      35.240 -17.992 -23.208  0.00  0.00    +0.044 C 
ATOM     27  C   UNL     1      34.496 -15.713 -23.507  0.00  0.00    +0.034 C 
ATOM     28  C   UNL     1      34.846 -16.950 -24.048  0.00  0.00    +0.142 C 
BRANCH  23  30
ATOM     29  O   UNL     1      36.599 -21.052 -19.514  0.00  0.00    -0.350 OA
ATOM     30  N   UNL     1      35.678 -18.842 -20.987  0.00  0.00    -0.303 N 
ATOM     31  C   UNL     1      34.890 -20.079 -20.935  0.00  0.00    +0.123 C 
ATOM     32  C   UNL     1      37.111 -19.001 -20.704  0.00  0.00    +0.123 C 
ATOM     33  C   UNL     1      35.196 -20.830 -19.644  0.00  0.00    +0.164 C 
ATOM     34  C   UNL     1      37.298 -19.810 -19.426  0.00  0.00    +0.164 C 
ENDBRANCH  23  30
ENDBRANCH   3  25
TORSDOF 6
ENDMDL
MODEL 8
REMARK VINA RESULT:     -10.1      7.994     12.934
REMARK  Name = 5326869
REMARK  6 active torsions:
REMARK  status: ('A' for Active; 'I' for Inactive)
REMARK    1  A    between atoms: N_2  and  C_11
REMARK    2  A    between atoms: C_3  and  C_25
REMARK    3  A    between atoms: N_5  and  C_14
REMARK    4  A    between atoms: C_14  and  C_15
REMARK    5  A    between atoms: C_15  and  C_17
REMARK    6  A    between atoms: C_23  and  N_30
REMARK                            x       y       z     vdW  Elec       q    Type
REMARK                         _______ _______ _______ _____ _____    ______ ____
ROOT
ATOM      1  O   UNL     1      34.903  -7.112 -22.682  0.00  0.00    -0.270 OA
ATOM      2  N   UNL     1      32.809  -7.791 -23.506  0.00  0.00    -0.280 N 
ATOM      3  C   UNL     1      33.941  -6.969 -23.427  0.00  0.00    +0.250 C 
ATOM      4  H   UNL     1      32.127  -7.525 -24.165  0.00  0.00    +0.155 HD
ENDROOT
BRANCH   2  11
ATOM      5  N   UNL     1      33.156 -12.602 -22.539  0.00  0.00    -0.286 N 
ATOM      6  C   UNL     1      32.768 -11.290 -22.389  0.00  0.00    +0.053 C 
ATOM      7  C   UNL     1      31.952 -11.229 -21.258  0.00  0.00    +0.015 C 
ATOM      8  C   UNL     1      32.615 -13.370 -21.543  0.00  0.00    +0.065 C 
ATOM      9  C   UNL     1      33.074 -10.163 -23.162  0.00  0.00    +0.029 C 
ATOM     10  C   UNL     1      31.865 -12.549 -20.734  0.00  0.00    +0.017 C 
ATOM     11  C   UNL     1      32.528  -8.939 -22.764  0.00  0.00    +0.052 C 
ATOM     12  C   UNL     1      31.414  -9.983 -20.876  0.00  0.00    +0.003 C 
ATOM     13  C   UNL     1      31.711  -8.849 -21.639  0.00  0.00    +0.015 C 
BRANCH   5  14
ATOM     14  C   UNL     1      34.012 -13.112 -23.588  0.00  0.00    +0.100 C 
BRANCH  14  15
ATOM     15  C   UNL     1      33.428 -14.326 -24.317  0.00  0.00    +0.048 C 
BRANCH  15  17
ATOM     16  N   UNL     1      35.168 -18.046 -23.094  0.00  0.00    -0.242 NA
ATOM     17  C   UNL     1      34.041 -15.635 -23.887  0.00  0.00    -0.017 C 
ATOM     18  C   UNL     1      34.877 -15.667 -22.787  0.00  0.00    +0.016 C 
ATOM     19  C   UNL     1      33.757 -16.786 -24.599  0.00  0.00    +0.016 C 
ATOM     20  C   UNL     1      35.414 -16.894 -22.432  0.00  0.00    +0.099 C 
ATOM     21  C   UNL     1      34.344 -17.962 -24.162  0.00  0.00    +0.099 C 
ENDBRANCH  15  17
ENDBRANCH  14  15
ENDBRANCH   5  14
ENDBRANCH   2  11
BRANCH   3  25
ATOM     22  F   UNL     1      32.012  -2.787 -24.903  0.00  0.00    -0.204 F 
ATOM     23  C   UNL     1      34.916  -4.588 -26.151  0.00  0.00    +0.050 C 
ATOM     24  C   UNL     1      34.918  -5.694 -25.300  0.00  0.00    +0.019 C 
ATOM     25  C   UNL     1      33.938  -5.793 -24.335  0.00  0.00    +0.057 C 
ATOM     26  C   UNL     1      33.935  -3.608 -26.017  0.00  0.00    +0.044 C 
ATOM     27  C   UNL     1      32.956  -4.836 -24.182  0.00  0.00    +0.034 C 
ATOM     28  C   UNL     1      32.954  -3.730 -25.033  0.00  0.00    +0.142 C 
BRANCH  23  30
ATOM     29  O   UNL     1      37.880  -3.945 -29.064  0.00  0.00    -0.350 OA
ATOM     30  N   UNL     1      35.899  -4.465 -27.139  0.00  0.00    -0.303 N 
ATOM     31  C   UNL     1      35.524  -4.066 -28.500  0.00  0.00    +0.123 C 
ATOM     32  C   UNL     1      37.254  -4.075 -26.724  0.00  0.00    +0.123 C 
ATOM     33  C   UNL     1      36.621  -4.474 -29.477  0.00  0.00    +0.164 C 
ATOM     34  C   UNL     1      38.258  -4.482 -27.795  0.00  0.00    +0.164 C 
ENDBRANCH  23  30
ENDBRANCH   3  25
TORSDOF 6
ENDMDL
MODEL 9
REMARK VINA RESULT:     -10.1      4.713     11.072
REMARK  Name = 5326869
REMARK  6 active torsions:
REMARK  status: ('A' for Active; 'I' for Inactive)
REMARK    1  A    between atoms: N_2  and  C_11
REMARK    2  A    between atoms: C_3  and  C_25
REMARK    3  A    between atoms: N_5  and  C_14
REMARK    4  A    between atoms: C_14  and  C_15
REMARK    5  A    between atoms: C_15  and  C_17
REMARK    6  A    between atoms: C_23  and  N_30
REMARK                            x       y       z     vdW  Elec       q    Type
REMARK                         _______ _______ _______ _____ _____    ______ ____
ROOT
ATOM      1  O   UNL     1      33.402 -23.290 -14.183  0.00  0.00    -0.270 OA
ATOM      2  N   UNL     1      34.940 -23.419 -15.957  0.00  0.00    -0.280 N 
ATOM      3  C   UNL     1      34.478 -23.644 -14.654  0.00  0.00    +0.250 C 
ATOM      4  H   UNL     1      35.834 -23.775 -16.166  0.00  0.00    +0.155 HD
ENDROOT
BRANCH   2  11
ATOM      5  N   UNL     1      34.824 -20.652 -20.023  0.00  0.00    -0.286 N 
ATOM      6  C   UNL     1      34.351 -21.401 -18.970  0.00  0.00    +0.053 C 
ATOM      7  C   UNL     1      32.959 -21.422 -19.072  0.00  0.00    +0.015 C 
ATOM      8  C   UNL     1      33.780 -20.199 -20.786  0.00  0.00    +0.065 C 
ATOM      9  C   UNL     1      35.044 -22.055 -17.944  0.00  0.00    +0.029 C 
ATOM     10  C   UNL     1      32.613 -20.660 -20.222  0.00  0.00    +0.017 C 
ATOM     11  C   UNL     1      34.289 -22.751 -16.996  0.00  0.00    +0.052 C 
ATOM     12  C   UNL     1      32.219 -22.131 -18.104  0.00  0.00    +0.003 C 
ATOM     13  C   UNL     1      32.898 -22.790 -17.073  0.00  0.00    +0.015 C 
BRANCH   5  14
ATOM     14  C   UNL     1      36.216 -20.373 -20.301  0.00  0.00    +0.100 C 
BRANCH  14  15
ATOM     15  C   UNL     1      36.552 -18.879 -20.303  0.00  0.00    +0.048 C 
BRANCH  15  17
ATOM     16  N   UNL     1      34.763 -16.735 -23.553  0.00  0.00    -0.242 NA
ATOM     17  C   UNL     1      35.921 -18.125 -21.446  0.00  0.00    -0.017 C 
ATOM     18  C   UNL     1      35.487 -16.827 -21.249  0.00  0.00    +0.016 C 
ATOM     19  C   UNL     1      35.788 -18.740 -22.677  0.00  0.00    +0.016 C 
ATOM     20  C   UNL     1      34.915 -16.177 -22.331  0.00  0.00    +0.099 C 
ATOM     21  C   UNL     1      35.204 -18.005 -23.695  0.00  0.00    +0.099 C 
ENDBRANCH  15  17
ENDBRANCH  14  15
ENDBRANCH   5  14
ENDBRANCH   2  11
BRANCH   3  25
ATOM     22  F   UNL     1      35.768 -25.197 -10.260  0.00  0.00    -0.204 F 
ATOM     23  C   UNL     1      37.424 -25.633 -13.470  0.00  0.00    +0.050 C 
ATOM     24  C   UNL     1      36.542 -24.952 -14.309  0.00  0.00    +0.019 C 
ATOM     25  C   UNL     1      35.419 -24.368 -13.761  0.00  0.00    +0.057 C 
ATOM     26  C   UNL     1      37.163 -25.715 -12.103  0.00  0.00    +0.044 C 
ATOM     27  C   UNL     1      35.138 -24.436 -12.412  0.00  0.00    +0.034 C 
ATOM     28  C   UNL     1      36.020 -25.117 -11.573  0.00  0.00    +0.142 C 
BRANCH  23  30
ATOM     29  O   UNL     1      40.917 -27.203 -15.206  0.00  0.00    -0.350 OA
ATOM     30  N   UNL     1      38.571 -26.233 -14.000  0.00  0.00    -0.303 N 
ATOM     31  C   UNL     1      38.514 -26.890 -15.311  0.00  0.00    +0.123 C 
ATOM     32  C   UNL     1      39.879 -25.669 -13.640  0.00  0.00    +0.123 C 
ATOM     33  C   UNL     1      39.677 -27.866 -15.449  0.00  0.00    +0.164 C 
ATOM     34  C   UNL     1      40.969 -26.710 -13.867  0.00  0.00    +0.164 C 
ENDBRANCH  23  30
ENDBRANCH   3  25
TORSDOF 6
ENDMDL
