MODEL 1
REMARK VINA RESULT:     -11.1      0.000      0.000
REMARK  Name = 118513932
REMARK  2 active torsions:
REMARK  status: ('A' for Active; 'I' for Inactive)
REMARK    1  A    between atoms: C_4  and  N_24
REMARK    2  A    between atoms: C_10  and  C_15
REMARK                            x       y       z     vdW  Elec       q    Type
REMARK                         _______ _______ _______ _____ _____    ______ ____
ROOT
ATOM      1  O   UNL     1      33.445 -12.864 -26.077  0.00  0.00    -0.274 OA
ATOM      2  N   UNL     1      33.756 -13.343 -23.797  0.00  0.00    -0.209 N 
ATOM      3  N   UNL     1      33.386 -11.608 -22.199  0.00  0.00    -0.389 NA
ATOM      4  C   UNL     1      34.435 -15.523 -23.040  0.00  0.00    +0.063 C 
ATOM      5  C   UNL     1      34.116 -14.667 -24.026  0.00  0.00    +0.089 C 
ATOM      6  C   UNL     1      34.401 -15.032 -21.678  0.00  0.00    +0.020 C 
ATOM      7  C   UNL     1      34.064 -13.770 -21.393  0.00  0.00    +0.050 C 
ATOM      8  C   UNL     1      33.711 -12.831 -22.493  0.00  0.00    +0.193 C 
ATOM      9  C   UNL     1      33.441 -12.531 -24.894  0.00  0.00    +0.242 C 
ATOM     10  C   UNL     1      33.072 -10.792 -23.249  0.00  0.00    +0.139 C 
ATOM     11  C   UNL     1      33.071 -11.140 -24.540  0.00  0.00    +0.146 C 
ENDROOT
BRANCH  10  15
ATOM     12  N   UNL     1      32.172  -7.303 -23.453  0.00  0.00    -0.178 N 
ATOM     13  N   UNL     1      32.510  -8.541 -23.898  0.00  0.00    -0.173 NA
ATOM     14  N   UNL     1      31.686  -5.623 -22.074  0.00  0.00    -0.392 NA
ATOM     15  C   UNL     1      32.702  -9.407 -22.944  0.00  0.00    +0.124 C 
ATOM     16  C   UNL     1      32.573  -9.108 -21.485  0.00  0.00    +0.023 C 
ATOM     17  C   UNL     1      32.235  -7.860 -21.109  0.00  0.00    +0.025 C 
ATOM     18  C   UNL     1      32.020  -6.897 -22.140  0.00  0.00    +0.198 C 
ATOM     19  C   UNL     1      31.916  -6.216 -24.245  0.00  0.00    +0.173 C 
ATOM     20  C   UNL     1      31.620  -5.196 -23.374  0.00  0.00    +0.111 C 
ATOM     21  C   UNL     1      32.100  -7.535 -19.644  0.00  0.00    +0.035 C 
ATOM     22  C   UNL     1      31.267  -3.803 -23.687  0.00  0.00    +0.063 C 
ENDBRANCH  10  15
BRANCH   4  24
ATOM     23  N   UNL     1      34.855 -19.690 -23.361  0.00  0.00    +0.389 N 
ATOM     24  N   UNL     1      34.789 -16.825 -23.249  0.00  0.00    -0.311 N 
ATOM     25  C   UNL     1      35.191 -18.952 -22.116  0.00  0.00    -0.027 C 
ATOM     26  C   UNL     1      35.795 -19.733 -20.970  0.00  0.00    -0.020 C 
ATOM     27  C   UNL     1      34.382 -19.239 -20.869  0.00  0.00    -0.020 C 
ATOM     28  C   UNL     1      35.690 -17.538 -22.338  0.00  0.00    +0.071 C 
ATOM     29  C   UNL     1      33.896 -18.923 -24.159  0.00  0.00    -0.060 C 
ATOM     30  C   UNL     1      34.444 -17.533 -24.485  0.00  0.00    +0.067 C 
ATOM     31  H   UNL     1      34.447 -20.592 -23.120  0.00  0.00    -0.084 HD
ATOM     32  H   UNL     1      35.706 -19.828 -23.907  0.00  0.00    -0.084 HD
ENDBRANCH   4  24
TORSDOF 2
ENDMDL
MODEL 2
REMARK VINA RESULT:     -10.7      1.741     10.093
REMARK  Name = 118513932
REMARK  2 active torsions:
REMARK  status: ('A' for Active; 'I' for Inactive)
REMARK    1  A    between atoms: C_4  and  N_24
REMARK    2  A    between atoms: C_10  and  C_15
REMARK                            x       y       z     vdW  Elec       q    Type
REMARK                         _______ _______ _______ _____ _____    ______ ____
ROOT
ATOM      1  O   UNL     1      31.157 -11.564 -20.820  0.00  0.00    -0.274 OA
ATOM      2  N   UNL     1      32.706 -10.958 -22.481  0.00  0.00    -0.209 N 
ATOM      3  N   UNL     1      34.225 -12.613 -23.292  0.00  0.00    -0.389 NA
ATOM      4  C   UNL     1      32.800  -8.727 -23.376  0.00  0.00    +0.063 C 
ATOM      5  C   UNL     1      32.265  -9.641 -22.548  0.00  0.00    +0.089 C 
ATOM      6  C   UNL     1      33.888  -9.146 -24.235  0.00  0.00    +0.020 C 
ATOM      7  C   UNL     1      34.358 -10.397 -24.218  0.00  0.00    +0.050 C 
ATOM      8  C   UNL     1      33.757 -11.401 -23.297  0.00  0.00    +0.193 C 
ATOM      9  C   UNL     1      32.083 -11.833 -21.583  0.00  0.00    +0.242 C 
ATOM     10  C   UNL     1      33.635 -13.490 -22.426  0.00  0.00    +0.139 C 
ATOM     11  C   UNL     1      32.628 -13.211 -21.592  0.00  0.00    +0.146 C 
ENDROOT
BRANCH  10  15
ATOM     12  N   UNL     1      35.090 -16.646 -21.454  0.00  0.00    -0.178 N 
ATOM     13  N   UNL     1      34.666 -15.364 -21.316  0.00  0.00    -0.173 NA
ATOM     14  N   UNL     1      35.531 -18.630 -22.366  0.00  0.00    -0.392 NA
ATOM     15  C   UNL     1      34.145 -14.864 -22.402  0.00  0.00    +0.124 C 
ATOM     16  C   UNL     1      34.010 -15.597 -23.696  0.00  0.00    +0.023 C 
ATOM     17  C   UNL     1      34.452 -16.867 -23.768  0.00  0.00    +0.025 C 
ATOM     18  C   UNL     1      35.025 -17.433 -22.590  0.00  0.00    +0.198 C 
ATOM     19  C   UNL     1      35.672 -17.402 -20.471  0.00  0.00    +0.173 C 
ATOM     20  C   UNL     1      35.933 -18.617 -21.056  0.00  0.00    +0.111 C 
ATOM     21  C   UNL     1      34.327 -17.628 -25.063  0.00  0.00    +0.035 C 
ATOM     22  C   UNL     1      36.554 -19.805 -20.451  0.00  0.00    +0.063 C 
ENDBRANCH  10  15
BRANCH   4  24
ATOM     23  N   UNL     1      32.046  -4.604 -23.106  0.00  0.00    +0.389 N 
ATOM     24  N   UNL     1      32.377  -7.432 -23.454  0.00  0.00    -0.311 N 
ATOM     25  C   UNL     1      31.487  -5.579 -22.134  0.00  0.00    -0.027 C 
ATOM     26  C   UNL     1      30.538  -5.061 -21.075  0.00  0.00    -0.020 C 
ATOM     27  C   UNL     1      31.924  -5.483 -20.687  0.00  0.00    -0.020 C 
ATOM     28  C   UNL     1      31.208  -6.952 -22.709  0.00  0.00    +0.071 C 
ATOM     29  C   UNL     1      33.248  -5.153 -23.735  0.00  0.00    -0.060 C 
ATOM     30  C   UNL     1      32.946  -6.487 -24.420  0.00  0.00    +0.067 C 
ATOM     31  H   UNL     1      32.284  -3.741 -22.619  0.00  0.00    -0.084 HD
ATOM     32  H   UNL     1      31.349  -4.416 -23.826  0.00  0.00    -0.084 HD
ENDBRANCH   4  24
TORSDOF 2
ENDMDL
MODEL 3
REMARK VINA RESULT:     -10.6      6.402     11.310
REMARK  Name = 118513932
REMARK  2 active torsions:
REMARK  status: ('A' for Active; 'I' for Inactive)
REMARK    1  A    between atoms: C_4  and  N_24
REMARK    2  A    between atoms: C_10  and  C_15
REMARK                            x       y       z     vdW  Elec       q    Type
REMARK                         _______ _______ _______ _____ _____    ______ ____
ROOT
ATOM      1  O   UNL     1      32.704 -22.785 -18.118  0.00  0.00    -0.274 OA
ATOM      2  N   UNL     1      34.931 -22.230 -17.609  0.00  0.00    -0.209 N 
ATOM      3  N   UNL     1      36.061 -20.640 -18.986  0.00  0.00    -0.389 NA
ATOM      4  C   UNL     1      36.092 -23.218 -15.748  0.00  0.00    +0.063 C 
ATOM      5  C   UNL     1      34.993 -23.081 -16.511  0.00  0.00    +0.089 C 
ATOM      6  C   UNL     1      37.260 -22.437 -16.095  0.00  0.00    +0.020 C 
ATOM      7  C   UNL     1      37.263 -21.601 -17.139  0.00  0.00    +0.050 C 
ATOM      8  C   UNL     1      36.041 -21.457 -17.976  0.00  0.00    +0.193 C 
ATOM      9  C   UNL     1      33.739 -22.160 -18.341  0.00  0.00    +0.242 C 
ATOM     10  C   UNL     1      34.911 -20.551 -19.719  0.00  0.00    +0.139 C 
ATOM     11  C   UNL     1      33.779 -21.223 -19.489  0.00  0.00    +0.146 C 
ENDROOT
BRANCH  10  15
ATOM     12  N   UNL     1      34.931 -17.636 -21.847  0.00  0.00    -0.178 N 
ATOM     13  N   UNL     1      34.937 -18.345 -20.689  0.00  0.00    -0.173 NA
ATOM     14  N   UNL     1      34.902 -17.159 -24.023  0.00  0.00    -0.392 NA
ATOM     15  C   UNL     1      34.908 -19.636 -20.865  0.00  0.00    +0.124 C 
ATOM     16  C   UNL     1      34.871 -20.313 -22.197  0.00  0.00    +0.023 C 
ATOM     17  C   UNL     1      34.867 -19.552 -23.308  0.00  0.00    +0.025 C 
ATOM     18  C   UNL     1      34.898 -18.136 -23.136  0.00  0.00    +0.198 C 
ATOM     19  C   UNL     1      34.957 -16.270 -21.943  0.00  0.00    +0.173 C 
ATOM     20  C   UNL     1      34.939 -16.001 -23.290  0.00  0.00    +0.111 C 
ATOM     21  C   UNL     1      34.830 -20.211 -24.662  0.00  0.00    +0.035 C 
ATOM     22  C   UNL     1      34.954 -14.692 -23.959  0.00  0.00    +0.063 C 
ENDBRANCH  10  15
BRANCH   4  24
ATOM     23  N   UNL     1      36.041 -25.185 -12.037  0.00  0.00    +0.389 N 
ATOM     24  N   UNL     1      36.168 -24.049 -14.667  0.00  0.00    -0.311 N 
ATOM     25  C   UNL     1      37.152 -24.287 -12.444  0.00  0.00    -0.027 C 
ATOM     26  C   UNL     1      38.342 -24.165 -11.517  0.00  0.00    -0.020 C 
ATOM     27  C   UNL     1      37.382 -23.020 -11.646  0.00  0.00    -0.020 C 
ATOM     28  C   UNL     1      37.421 -24.254 -13.934  0.00  0.00    +0.071 C 
ATOM     29  C   UNL     1      34.822 -24.845 -12.774  0.00  0.00    -0.060 C 
ATOM     30  C   UNL     1      35.056 -24.924 -14.283  0.00  0.00    +0.067 C 
ATOM     31  H   UNL     1      35.870 -25.080 -11.037  0.00  0.00    -0.084 HD
ATOM     32  H   UNL     1      36.299 -26.150 -12.246  0.00  0.00    -0.084 HD
ENDBRANCH   4  24
TORSDOF 2
ENDMDL
MODEL 4
REMARK VINA RESULT:      -9.9      1.359      9.968
REMARK  Name = 118513932
REMARK  2 active torsions:
REMARK  status: ('A' for Active; 'I' for Inactive)
REMARK    1  A    between atoms: C_4  and  N_24
REMARK    2  A    between atoms: C_10  and  C_15
REMARK                            x       y       z     vdW  Elec       q    Type
REMARK                         _______ _______ _______ _____ _____    ______ ____
ROOT
ATOM      1  O   UNL     1      34.178 -11.355 -25.733  0.00  0.00    -0.274 OA
ATOM      2  N   UNL     1      33.089 -11.228 -23.654  0.00  0.00    -0.209 N 
ATOM      3  N   UNL     1      33.105 -13.146 -22.232  0.00  0.00    -0.389 NA
ATOM      4  C   UNL     1      31.965  -9.229 -22.930  0.00  0.00    +0.063 C 
ATOM      5  C   UNL     1      32.681  -9.912 -23.840  0.00  0.00    +0.089 C 
ATOM      6  C   UNL     1      31.606  -9.906 -21.702  0.00  0.00    +0.020 C 
ATOM      7  C   UNL     1      31.968 -11.171 -21.464  0.00  0.00    +0.050 C 
ATOM      8  C   UNL     1      32.761 -11.917 -22.478  0.00  0.00    +0.193 C 
ATOM      9  C   UNL     1      33.832 -11.853 -24.664  0.00  0.00    +0.242 C 
ATOM     10  C   UNL     1      33.831 -13.781 -23.199  0.00  0.00    +0.139 C 
ATOM     11  C   UNL     1      34.216 -13.253 -24.365  0.00  0.00    +0.146 C 
ENDROOT
BRANCH  10  15
ATOM     12  N   UNL     1      35.122 -16.821 -21.745  0.00  0.00    -0.178 N 
ATOM     13  N   UNL     1      34.817 -15.501 -21.829  0.00  0.00    -0.173 NA
ATOM     14  N   UNL     1      35.309 -18.976 -22.277  0.00  0.00    -0.392 NA
ATOM     15  C   UNL     1      34.231 -15.168 -22.945  0.00  0.00    +0.124 C 
ATOM     16  C   UNL     1      33.907 -16.119 -24.051  0.00  0.00    +0.023 C 
ATOM     17  C   UNL     1      34.236 -17.416 -23.906  0.00  0.00    +0.025 C 
ATOM     18  C   UNL     1      34.879 -17.800 -22.691  0.00  0.00    +0.198 C 
ATOM     19  C   UNL     1      35.739 -17.429 -20.683  0.00  0.00    +0.173 C 
ATOM     20  C   UNL     1      35.842 -18.753 -21.034  0.00  0.00    +0.111 C 
ATOM     21  C   UNL     1      33.919 -18.393 -25.008  0.00  0.00    +0.035 C 
ATOM     22  C   UNL     1      36.425 -19.858 -20.260  0.00  0.00    +0.063 C 
ENDBRANCH  10  15
BRANCH   4  24
ATOM     23  N   UNL     1      31.428  -5.075 -23.255  0.00  0.00    +0.389 N 
ATOM     24  N   UNL     1      31.558  -7.936 -23.098  0.00  0.00    -0.311 N 
ATOM     25  C   UNL     1      31.334  -5.789 -21.955  0.00  0.00    -0.027 C 
ATOM     26  C   UNL     1      30.936  -4.989 -20.734  0.00  0.00    -0.020 C 
ATOM     27  C   UNL     1      32.351  -5.463 -20.881  0.00  0.00    -0.020 C 
ATOM     28  C   UNL     1      30.826  -7.213 -22.053  0.00  0.00    +0.071 C 
ATOM     29  C   UNL     1      32.239  -5.849 -24.197  0.00  0.00    -0.060 C 
ATOM     30  C   UNL     1      31.664  -7.252 -24.390  0.00  0.00    +0.067 C 
ATOM     31  H   UNL     1      31.858  -4.163 -23.109  0.00  0.00    -0.084 HD
ATOM     32  H   UNL     1      30.490  -4.960 -23.640  0.00  0.00    -0.084 HD
ENDBRANCH   4  24
TORSDOF 2
ENDMDL
MODEL 5
REMARK VINA RESULT:      -9.9      1.928     10.154
REMARK  Name = 118513932
REMARK  2 active torsions:
REMARK  status: ('A' for Active; 'I' for Inactive)
REMARK    1  A    between atoms: C_4  and  N_24
REMARK    2  A    between atoms: C_10  and  C_15
REMARK                            x       y       z     vdW  Elec       q    Type
REMARK                         _______ _______ _______ _____ _____    ______ ____
ROOT
ATOM      1  O   UNL     1      31.043 -11.132 -21.279  0.00  0.00    -0.274 OA
ATOM      2  N   UNL     1      32.844 -10.551 -22.673  0.00  0.00    -0.209 N 
ATOM      3  N   UNL     1      34.392 -12.252 -23.315  0.00  0.00    -0.389 NA
ATOM      4  C   UNL     1      33.165  -8.302 -23.462  0.00  0.00    +0.063 C 
ATOM      5  C   UNL     1      32.475  -9.213 -22.754  0.00  0.00    +0.089 C 
ATOM      6  C   UNL     1      34.348  -8.746 -24.168  0.00  0.00    +0.020 C 
ATOM      7  C   UNL     1      34.755 -10.019 -24.129  0.00  0.00    +0.050 C 
ATOM      8  C   UNL     1      33.983 -11.019 -23.343  0.00  0.00    +0.193 C 
ATOM      9  C   UNL     1      32.058 -11.422 -21.908  0.00  0.00    +0.242 C 
ATOM     10  C   UNL     1      33.644 -13.125 -22.577  0.00  0.00    +0.139 C 
ATOM     11  C   UNL     1      32.538 -12.824 -21.888  0.00  0.00    +0.146 C 
ENDROOT
BRANCH  10  15
ATOM     12  N   UNL     1      34.940 -16.334 -21.552  0.00  0.00    -0.178 N 
ATOM     13  N   UNL     1      34.579 -15.030 -21.436  0.00  0.00    -0.173 NA
ATOM     14  N   UNL     1      35.282 -18.352 -22.431  0.00  0.00    -0.392 NA
ATOM     15  C   UNL     1      34.085 -14.522 -22.530  0.00  0.00    +0.124 C 
ATOM     16  C   UNL     1      33.914 -15.270 -23.812  0.00  0.00    +0.023 C 
ATOM     17  C   UNL     1      34.292 -16.561 -23.863  0.00  0.00    +0.025 C 
ATOM     18  C   UNL     1      34.836 -17.135 -22.675  0.00  0.00    +0.198 C 
ATOM     19  C   UNL     1      35.482 -17.101 -20.556  0.00  0.00    +0.173 C 
ATOM     20  C   UNL     1      35.683 -18.337 -21.120  0.00  0.00    +0.111 C 
ATOM     21  C   UNL     1      34.130 -17.335 -25.145  0.00  0.00    +0.035 C 
ATOM     22  C   UNL     1      36.244 -19.545 -20.496  0.00  0.00    +0.063 C 
ENDBRANCH  10  15
BRANCH   4  24
ATOM     23  N   UNL     1      31.849  -4.434 -24.437  0.00  0.00    +0.389 N 
ATOM     24  N   UNL     1      32.814  -6.985 -23.552  0.00  0.00    -0.311 N 
ATOM     25  C   UNL     1      33.187  -4.942 -24.838  0.00  0.00    -0.027 C 
ATOM     26  C   UNL     1      34.129  -3.986 -25.536  0.00  0.00    -0.020 C 
ATOM     27  C   UNL     1      33.485  -5.095 -26.315  0.00  0.00    -0.020 C 
ATOM     28  C   UNL     1      33.793  -5.943 -23.877  0.00  0.00    +0.071 C 
ATOM     29  C   UNL     1      30.932  -5.552 -24.210  0.00  0.00    -0.060 C 
ATOM     30  C   UNL     1      31.487  -6.508 -23.153  0.00  0.00    +0.067 C 
ATOM     31  H   UNL     1      31.478  -3.839 -25.177  0.00  0.00    -0.084 HD
ATOM     32  H   UNL     1      31.942  -3.898 -23.574  0.00  0.00    -0.084 HD
ENDBRANCH   4  24
TORSDOF 2
ENDMDL
MODEL 6
REMARK VINA RESULT:      -9.7      2.109     10.139
REMARK  Name = 118513932
REMARK  2 active torsions:
REMARK  status: ('A' for Active; 'I' for Inactive)
REMARK    1  A    between atoms: C_4  and  N_24
REMARK    2  A    between atoms: C_10  and  C_15
REMARK                            x       y       z     vdW  Elec       q    Type
REMARK                         _______ _______ _______ _____ _____    ______ ____
ROOT
ATOM      1  O   UNL     1      30.916  -9.973 -21.852  0.00  0.00    -0.274 OA
ATOM      2  N   UNL     1      32.885  -9.506 -23.048  0.00  0.00    -0.209 N 
ATOM      3  N   UNL     1      34.375 -11.303 -23.553  0.00  0.00    -0.389 NA
ATOM      4  C   UNL     1      33.434  -7.278 -23.770  0.00  0.00    +0.063 C 
ATOM      5  C   UNL     1      32.616  -8.146 -23.149  0.00  0.00    +0.089 C 
ATOM      6  C   UNL     1      34.651  -7.796 -24.358  0.00  0.00    +0.020 C 
ATOM      7  C   UNL     1      34.967  -9.094 -24.295  0.00  0.00    +0.050 C 
ATOM      8  C   UNL     1      34.053 -10.045 -23.606  0.00  0.00    +0.193 C 
ATOM      9  C   UNL     1      31.969 -10.327 -22.379  0.00  0.00    +0.242 C 
ATOM     10  C   UNL     1      33.498 -12.129 -22.907  0.00  0.00    +0.139 C 
ATOM     11  C   UNL     1      32.351 -11.759 -22.330  0.00  0.00    +0.146 C 
ENDROOT
BRANCH  10  15
ATOM     12  N   UNL     1      34.148 -15.597 -23.667  0.00  0.00    -0.178 N 
ATOM     13  N   UNL     1      33.806 -14.304 -23.898  0.00  0.00    -0.173 NA
ATOM     14  N   UNL     1      34.780 -17.448 -22.600  0.00  0.00    -0.392 NA
ATOM     15  C   UNL     1      33.839 -13.553 -22.833  0.00  0.00    +0.124 C 
ATOM     16  C   UNL     1      34.213 -14.031 -21.468  0.00  0.00    +0.023 C 
ATOM     17  C   UNL     1      34.542 -15.326 -21.304  0.00  0.00    +0.025 C 
ATOM     18  C   UNL     1      34.512 -16.164 -22.459  0.00  0.00    +0.198 C 
ATOM     19  C   UNL     1      34.194 -16.589 -24.610  0.00  0.00    +0.173 C 
ATOM     20  C   UNL     1      34.585 -17.716 -23.930  0.00  0.00    +0.111 C 
ATOM     21  C   UNL     1      34.922 -15.831 -19.936  0.00  0.00    +0.035 C 
ATOM     22  C   UNL     1      34.796 -19.072 -24.458  0.00  0.00    +0.063 C 
ENDBRANCH  10  15
BRANCH   4  24
ATOM     23  N   UNL     1      32.210  -3.364 -24.678  0.00  0.00    +0.389 N 
ATOM     24  N   UNL     1      33.183  -5.941 -23.878  0.00  0.00    -0.311 N 
ATOM     25  C   UNL     1      33.317  -4.038 -25.405  0.00  0.00    -0.027 C 
ATOM     26  C   UNL     1      34.079  -3.237 -26.437  0.00  0.00    -0.020 C 
ATOM     27  C   UNL     1      33.141  -4.319 -26.882  0.00  0.00    -0.020 C 
ATOM     28  C   UNL     1      34.101  -5.033 -24.574  0.00  0.00    +0.071 C 
ATOM     29  C   UNL     1      31.315  -4.360 -24.086  0.00  0.00    -0.060 C 
ATOM     30  C   UNL     1      32.082  -5.298 -23.153  0.00  0.00    +0.067 C 
ATOM     31  H   UNL     1      31.683  -2.783 -25.329  0.00  0.00    -0.084 HD
ATOM     32  H   UNL     1      32.603  -2.786 -23.935  0.00  0.00    -0.084 HD
ENDBRANCH   4  24
TORSDOF 2
ENDMDL
MODEL 7
REMARK VINA RESULT:      -9.6      7.951     12.256
REMARK  Name = 118513932
REMARK  2 active torsions:
REMARK  status: ('A' for Active; 'I' for Inactive)
REMARK    1  A    between atoms: C_4  and  N_24
REMARK    2  A    between atoms: C_10  and  C_15
REMARK                            x       y       z     vdW  Elec       q    Type
REMARK                         _______ _______ _______ _____ _____    ______ ____
ROOT
ATOM      1  O   UNL     1      32.557 -23.188 -17.498  0.00  0.00    -0.274 OA
ATOM      2  N   UNL     1      34.772 -22.759 -16.840  0.00  0.00    -0.209 N 
ATOM      3  N   UNL     1      36.118 -21.332 -18.202  0.00  0.00    -0.389 NA
ATOM      4  C   UNL     1      35.711 -23.717 -14.843  0.00  0.00    +0.063 C 
ATOM      5  C   UNL     1      34.688 -23.549 -15.698  0.00  0.00    +0.089 C 
ATOM      6  C   UNL     1      36.956 -23.038 -15.134  0.00  0.00    +0.020 C 
ATOM      7  C   UNL     1      37.101 -22.265 -16.216  0.00  0.00    +0.050 C 
ATOM      8  C   UNL     1      35.961 -22.086 -17.155  0.00  0.00    +0.193 C 
ATOM      9  C   UNL     1      33.649 -22.649 -17.669  0.00  0.00    +0.242 C 
ATOM     10  C   UNL     1      35.038 -21.205 -19.028  0.00  0.00    +0.139 C 
ATOM     11  C   UNL     1      33.845 -21.784 -18.856  0.00  0.00    +0.146 C 
ENDROOT
BRANCH  10  15
ATOM     12  N   UNL     1      34.497 -19.377 -22.093  0.00  0.00    -0.178 N 
ATOM     13  N   UNL     1      34.199 -20.188 -21.045  0.00  0.00    -0.173 NA
ATOM     14  N   UNL     1      35.637 -18.036 -23.458  0.00  0.00    -0.392 NA
ATOM     15  C   UNL     1      35.190 -20.360 -20.216  0.00  0.00    +0.124 C 
ATOM     16  C   UNL     1      36.542 -19.742 -20.368  0.00  0.00    +0.023 C 
ATOM     17  C   UNL     1      36.775 -18.948 -21.430  0.00  0.00    +0.025 C 
ATOM     18  C   UNL     1      35.702 -18.747 -22.349  0.00  0.00    +0.198 C 
ATOM     19  C   UNL     1      33.638 -19.034 -23.103  0.00  0.00    +0.173 C 
ATOM     20  C   UNL     1      34.362 -18.209 -23.929  0.00  0.00    +0.111 C 
ATOM     21  C   UNL     1      38.131 -18.315 -21.604  0.00  0.00    +0.035 C 
ATOM     22  C   UNL     1      33.926 -17.550 -25.169  0.00  0.00    +0.063 C 
ENDBRANCH  10  15
BRANCH   4  24
ATOM     23  N   UNL     1      35.849 -25.505 -11.044  0.00  0.00    +0.389 N 
ATOM     24  N   UNL     1      35.643 -24.488 -13.718  0.00  0.00    -0.311 N 
ATOM     25  C   UNL     1      36.998 -25.550 -11.985  0.00  0.00    -0.027 C 
ATOM     26  C   UNL     1      38.214 -26.354 -11.582  0.00  0.00    -0.020 C 
ATOM     27  C   UNL     1      38.283 -24.856 -11.585  0.00  0.00    -0.020 C 
ATOM     28  C   UNL     1      36.612 -25.555 -13.450  0.00  0.00    +0.071 C 
ATOM     29  C   UNL     1      34.988 -24.362 -11.355  0.00  0.00    -0.060 C 
ATOM     30  C   UNL     1      34.499 -24.423 -12.803  0.00  0.00    +0.067 C 
ATOM     31  H   UNL     1      36.197 -25.415 -10.091  0.00  0.00    -0.084 HD
ATOM     32  H   UNL     1      35.308 -26.365 -11.138  0.00  0.00    -0.084 HD
ENDBRANCH   4  24
TORSDOF 2
ENDMDL
MODEL 8
REMARK VINA RESULT:      -9.5      1.701      9.958
REMARK  Name = 118513932
REMARK  2 active torsions:
REMARK  status: ('A' for Active; 'I' for Inactive)
REMARK    1  A    between atoms: C_4  and  N_24
REMARK    2  A    between atoms: C_10  and  C_15
REMARK                            x       y       z     vdW  Elec       q    Type
REMARK                         _______ _______ _______ _____ _____    ______ ____
ROOT
ATOM      1  O   UNL     1      31.314 -11.725 -20.961  0.00  0.00    -0.274 OA
ATOM      2  N   UNL     1      32.792 -11.143 -22.693  0.00  0.00    -0.209 N 
ATOM      3  N   UNL     1      34.148 -12.851 -23.666  0.00  0.00    -0.389 NA
ATOM      4  C   UNL     1      32.972  -8.886 -23.504  0.00  0.00    +0.063 C 
ATOM      5  C   UNL     1      32.432  -9.800 -22.680  0.00  0.00    +0.089 C 
ATOM      6  C   UNL     1      33.975  -9.332 -24.447  0.00  0.00    +0.020 C 
ATOM      7  C   UNL     1      34.364 -10.610 -24.510  0.00  0.00    +0.050 C 
ATOM      8  C   UNL     1      33.759 -11.614 -23.593  0.00  0.00    +0.193 C 
ATOM      9  C   UNL     1      32.171 -12.017 -21.792  0.00  0.00    +0.242 C 
ATOM     10  C   UNL     1      33.558 -13.727 -22.799  0.00  0.00    +0.139 C 
ATOM     11  C   UNL     1      32.625 -13.425 -21.891  0.00  0.00    +0.146 C 
ENDROOT
BRANCH  10  15
ATOM     12  N   UNL     1      34.186 -17.132 -23.820  0.00  0.00    -0.178 N 
ATOM     13  N   UNL     1      33.730 -15.856 -23.915  0.00  0.00    -0.173 NA
ATOM     14  N   UNL     1      35.152 -18.966 -23.005  0.00  0.00    -0.392 NA
ATOM     15  C   UNL     1      33.980 -15.130 -22.862  0.00  0.00    +0.124 C 
ATOM     16  C   UNL     1      34.697 -15.616 -21.645  0.00  0.00    +0.023 C 
ATOM     17  C   UNL     1      35.124 -16.892 -21.613  0.00  0.00    +0.025 C 
ATOM     18  C   UNL     1      34.859 -17.704 -22.756  0.00  0.00    +0.198 C 
ATOM     19  C   UNL     1      34.054 -18.097 -24.782  0.00  0.00    +0.173 C 
ATOM     20  C   UNL     1      34.656 -19.215 -24.258  0.00  0.00    +0.111 C 
ATOM     21  C   UNL     1      35.850 -17.405 -20.396  0.00  0.00    +0.035 C 
ATOM     22  C   UNL     1      34.803 -20.543 -24.871  0.00  0.00    +0.063 C 
ENDBRANCH  10  15
BRANCH   4  24
ATOM     23  N   UNL     1      32.432  -4.758 -22.946  0.00  0.00    +0.389 N 
ATOM     24  N   UNL     1      32.629  -7.565 -23.503  0.00  0.00    -0.311 N 
ATOM     25  C   UNL     1      31.752  -5.769 -22.097  0.00  0.00    -0.027 C 
ATOM     26  C   UNL     1      30.762  -5.278 -21.064  0.00  0.00    -0.020 C 
ATOM     27  C   UNL     1      32.090  -5.814 -20.621  0.00  0.00    -0.020 C 
ATOM     28  C   UNL     1      31.439  -7.074 -22.800  0.00  0.00    +0.071 C 
ATOM     29  C   UNL     1      33.644  -5.329 -23.538  0.00  0.00    -0.060 C 
ATOM     30  C   UNL     1      33.317  -6.584 -24.348  0.00  0.00    +0.067 C 
ATOM     31  H   UNL     1      32.684  -3.951 -22.376  0.00  0.00    -0.084 HD
ATOM     32  H   UNL     1      31.800  -4.471 -23.694  0.00  0.00    -0.084 HD
ENDBRANCH   4  24
TORSDOF 2
ENDMDL
MODEL 9
REMARK VINA RESULT:      -9.5      6.452     11.311
REMARK  Name = 118513932
REMARK  2 active torsions:
REMARK  status: ('A' for Active; 'I' for Inactive)
REMARK    1  A    between atoms: C_4  and  N_24
REMARK    2  A    between atoms: C_10  and  C_15
REMARK                            x       y       z     vdW  Elec       q    Type
REMARK                         _______ _______ _______ _____ _____    ______ ____
ROOT
ATOM      1  O   UNL     1      37.950 -21.224 -17.391  0.00  0.00    -0.274 OA
ATOM      2  N   UNL     1      35.720 -21.960 -17.506  0.00  0.00    -0.209 N 
ATOM      3  N   UNL     1      34.326 -21.128 -19.257  0.00  0.00    -0.389 NA
ATOM      4  C   UNL     1      34.814 -23.519 -15.914  0.00  0.00    +0.063 C 
ATOM      5  C   UNL     1      35.831 -22.779 -16.388  0.00  0.00    +0.089 C 
ATOM      6  C   UNL     1      33.546 -23.452 -16.609  0.00  0.00    +0.020 C 
ATOM      7  C   UNL     1      33.375 -22.683 -17.690  0.00  0.00    +0.050 C 
ATOM      8  C   UNL     1      34.509 -21.869 -18.206  0.00  0.00    +0.193 C 
ATOM      9  C   UNL     1      36.840 -21.227 -17.920  0.00  0.00    +0.242 C 
ATOM     10  C   UNL     1      35.402 -20.402 -19.685  0.00  0.00    +0.139 C 
ATOM     11  C   UNL     1      36.614 -20.389 -19.121  0.00  0.00    +0.146 C 
ENDROOT
BRANCH  10  15
ATOM     12  N   UNL     1      35.046 -17.618 -21.954  0.00  0.00    -0.178 N 
ATOM     13  N   UNL     1      35.223 -18.257 -20.769  0.00  0.00    -0.173 NA
ATOM     14  N   UNL     1      34.726 -17.271 -24.131  0.00  0.00    -0.392 NA
ATOM     15  C   UNL     1      35.221 -19.557 -20.869  0.00  0.00    +0.124 C 
ATOM     16  C   UNL     1      35.043 -20.311 -22.147  0.00  0.00    +0.023 C 
ATOM     17  C   UNL     1      34.871 -19.618 -23.288  0.00  0.00    +0.025 C 
ATOM     18  C   UNL     1      34.870 -18.193 -23.199  0.00  0.00    +0.198 C 
ATOM     19  C   UNL     1      35.008 -16.260 -22.127  0.00  0.00    +0.173 C 
ATOM     20  C   UNL     1      34.811 -16.072 -23.473  0.00  0.00    +0.111 C 
ATOM     21  C   UNL     1      34.689 -20.356 -24.588  0.00  0.00    +0.035 C 
ATOM     22  C   UNL     1      34.693 -14.804 -24.209  0.00  0.00    +0.063 C 
ENDBRANCH  10  15
BRANCH   4  24
ATOM     23  N   UNL     1      35.509 -25.438 -12.243  0.00  0.00    +0.389 N 
ATOM     24  N   UNL     1      34.909 -24.328 -14.818  0.00  0.00    -0.311 N 
ATOM     25  C   UNL     1      36.500 -25.460 -13.350  0.00  0.00    -0.027 C 
ATOM     26  C   UNL     1      37.753 -26.286 -13.164  0.00  0.00    -0.020 C 
ATOM     27  C   UNL     1      37.839 -24.789 -13.129  0.00  0.00    -0.020 C 
ATOM     28  C   UNL     1      35.894 -25.411 -14.738  0.00  0.00    +0.071 C 
ATOM     29  C   UNL     1      34.625 -24.279 -12.380  0.00  0.00    -0.060 C 
ATOM     30  C   UNL     1      33.920 -24.286 -13.737  0.00  0.00    +0.067 C 
ATOM     31  H   UNL     1      35.999 -25.384 -11.351  0.00  0.00    -0.084 HD
ATOM     32  H   UNL     1      34.949 -26.290 -12.281  0.00  0.00    -0.084 HD
ENDBRANCH   4  24
TORSDOF 2
ENDMDL
