MODEL 1
REMARK VINA RESULT:     -11.8      0.000      0.000
REMARK  Name = 16040289
REMARK  6 active torsions:
REMARK  status: ('A' for Active; 'I' for Inactive)
REMARK    1  A    between atoms: N_2  and  C_20
REMARK    2  A    between atoms: C_3  and  C_6
REMARK    3  A    between atoms: N_11  and  C_13
REMARK    4  A    between atoms: C_13  and  C_15
REMARK    5  A    between atoms: C_23  and  O_26
REMARK    6  A    between atoms: O_26  and  C_27
REMARK                            x       y       z     vdW  Elec       q    Type
REMARK                         _______ _______ _______ _____ _____    ______ ____
ROOT
ATOM      1  O   UNL     1      33.784 -23.886 -17.024  0.00  0.00    -0.270 OA
ATOM      2  N   UNL     1      32.592 -21.987 -17.733  0.00  0.00    -0.280 N 
ATOM      3  C   UNL     1      32.815 -23.136 -16.963  0.00  0.00    +0.252 C 
ATOM      4  H   UNL     1      31.755 -21.502 -17.550  0.00  0.00    +0.155 HD
ENDROOT
BRANCH   3   6
ATOM      5  N   UNL     1      31.058 -24.154 -13.807  0.00  0.00    -0.229 NA
ATOM      6  C   UNL     1      31.738 -23.475 -15.996  0.00  0.00    +0.085 C 
ATOM      7  C   UNL     1      32.017 -23.840 -14.706  0.00  0.00    +0.133 C 
ATOM      8  C   UNL     1      30.433 -23.415 -16.429  0.00  0.00    +0.009 C 
ATOM      9  C   UNL     1      29.418 -23.731 -15.532  0.00  0.00    +0.021 C 
ATOM     10  C   UNL     1      29.780 -24.092 -14.244  0.00  0.00    +0.100 C 
ATOM     11  N   UNL     1      33.367 -23.895 -14.278  0.00  0.00    -0.314 N 
ATOM     12  H   UNL     1      34.077 -23.668 -14.921  0.00  0.00    +0.149 HD
BRANCH  11  13
ATOM     13  C   UNL     1      33.739 -24.266 -12.951  0.00  0.00    +0.115 C 
BRANCH  13  15
ATOM     14  N   UNL     1      37.847 -23.290 -12.219  0.00  0.00    -0.242 NA
ATOM     15  C   UNL     1      35.181 -23.923 -12.693  0.00  0.00    +0.000 C 
ATOM     16  C   UNL     1      35.650 -23.868 -11.393  0.00  0.00    +0.018 C 
ATOM     17  C   UNL     1      36.024 -23.667 -13.761  0.00  0.00    +0.018 C 
ATOM     18  C   UNL     1      36.985 -23.548 -11.209  0.00  0.00    +0.099 C 
ATOM     19  C   UNL     1      37.344 -23.357 -13.471  0.00  0.00    +0.099 C 
ENDBRANCH  13  15
ENDBRANCH  11  13
ENDBRANCH   3   6
BRANCH   2  20
ATOM     20  C   UNL     1      33.409 -21.446 -18.726  0.00  0.00    +0.051 C 
ATOM     21  C   UNL     1      32.847 -20.700 -19.762  0.00  0.00    +0.018 C 
ATOM     22  C   UNL     1      34.788 -21.653 -18.683  0.00  0.00    +0.018 C 
ATOM     23  C   UNL     1      35.043 -20.365 -20.712  0.00  0.00    +0.145 C 
ATOM     24  C   UNL     1      33.665 -20.159 -20.755  0.00  0.00    +0.039 C 
ATOM     25  C   UNL     1      35.605 -21.111 -19.676  0.00  0.00    +0.039 C 
BRANCH  23  26
ATOM     26  O   UNL     1      35.840 -19.840 -21.682  0.00  0.00    -0.453 OA
BRANCH  26  27
ATOM     27  C   UNL     1      35.297 -18.870 -22.507  0.00  0.00    +0.145 C 
ATOM     28  C   UNL     1      35.523 -17.535 -22.218  0.00  0.00    +0.037 C 
ATOM     29  C   UNL     1      34.541 -19.259 -23.598  0.00  0.00    +0.037 C 
ATOM     30  C   UNL     1      34.975 -16.558 -23.049  0.00  0.00    +0.003 C 
ATOM     31  C   UNL     1      33.992 -18.281 -24.429  0.00  0.00    +0.003 C 
ATOM     32  C   UNL     1      34.210 -16.931 -24.153  0.00  0.00    +0.000 C 
ENDBRANCH  26  27
ENDBRANCH  23  26
ENDBRANCH   2  20
TORSDOF 6
ENDMDL
MODEL 2
REMARK VINA RESULT:     -11.1      1.941      4.838
REMARK  Name = 16040289
REMARK  6 active torsions:
REMARK  status: ('A' for Active; 'I' for Inactive)
REMARK    1  A    between atoms: N_2  and  C_20
REMARK    2  A    between atoms: C_3  and  C_6
REMARK    3  A    between atoms: N_11  and  C_13
REMARK    4  A    between atoms: C_13  and  C_15
REMARK    5  A    between atoms: C_23  and  O_26
REMARK    6  A    between atoms: O_26  and  C_27
REMARK                            x       y       z     vdW  Elec       q    Type
REMARK                         _______ _______ _______ _____ _____    ______ ____
ROOT
ATOM      1  O   UNL     1      34.528 -22.209 -18.284  0.00  0.00    -0.270 OA
ATOM      2  N   UNL     1      36.427 -20.903 -18.750  0.00  0.00    -0.280 N 
ATOM      3  C   UNL     1      35.660 -21.818 -18.018  0.00  0.00    +0.252 C 
ATOM      4  H   UNL     1      37.320 -20.702 -18.387  0.00  0.00    +0.155 HD
ENDROOT
BRANCH   3   6
ATOM      5  N   UNL     1      36.118 -23.425 -14.657  0.00  0.00    -0.229 NA
ATOM      6  C   UNL     1      36.297 -22.337 -16.779  0.00  0.00    +0.085 C 
ATOM      7  C   UNL     1      35.565 -22.946 -15.794  0.00  0.00    +0.133 C 
ATOM      8  C   UNL     1      37.658 -22.192 -16.636  0.00  0.00    +0.009 C 
ATOM      9  C   UNL     1      38.264 -22.673 -15.481  0.00  0.00    +0.021 C 
ATOM     10  C   UNL     1      37.456 -23.276 -14.529  0.00  0.00    +0.100 C 
ATOM     11  N   UNL     1      34.165 -23.087 -15.958  0.00  0.00    -0.314 N 
ATOM     12  H   UNL     1      33.748 -22.744 -16.781  0.00  0.00    +0.149 HD
BRANCH  11  13
ATOM     13  C   UNL     1      33.335 -23.709 -14.978  0.00  0.00    +0.115 C 
BRANCH  13  15
ATOM     14  N   UNL     1      29.257 -22.489 -15.480  0.00  0.00    -0.242 NA
ATOM     15  C   UNL     1      31.903 -23.281 -15.153  0.00  0.00    +0.000 C 
ATOM     16  C   UNL     1      31.096 -23.116 -14.042  0.00  0.00    +0.018 C 
ATOM     17  C   UNL     1      31.407 -23.056 -16.426  0.00  0.00    +0.018 C 
ATOM     18  C   UNL     1      29.786 -22.721 -14.257  0.00  0.00    +0.099 C 
ATOM     19  C   UNL     1      30.083 -22.662 -16.535  0.00  0.00    +0.099 C 
ENDBRANCH  13  15
ENDBRANCH  11  13
ENDBRANCH   3   6
BRANCH   2  20
ATOM     20  C   UNL     1      36.081 -20.240 -19.927  0.00  0.00    +0.051 C 
ATOM     21  C   UNL     1      37.016 -19.431 -20.573  0.00  0.00    +0.018 C 
ATOM     22  C   UNL     1      34.799 -20.385 -20.458  0.00  0.00    +0.018 C 
ATOM     23  C   UNL     1      35.388 -18.914 -22.282  0.00  0.00    +0.145 C 
ATOM     24  C   UNL     1      36.669 -18.768 -21.751  0.00  0.00    +0.039 C 
ATOM     25  C   UNL     1      34.453 -19.722 -21.636  0.00  0.00    +0.039 C 
BRANCH  23  26
ATOM     26  O   UNL     1      35.050 -18.266 -23.430  0.00  0.00    -0.453 OA
BRANCH  26  27
ATOM     27  C   UNL     1      34.699 -16.930 -23.336  0.00  0.00    +0.145 C 
ATOM     28  C   UNL     1      34.087 -16.316 -24.415  0.00  0.00    +0.037 C 
ATOM     29  C   UNL     1      34.971 -16.242 -22.167  0.00  0.00    +0.037 C 
ATOM     30  C   UNL     1      33.736 -14.969 -24.321  0.00  0.00    +0.003 C 
ATOM     31  C   UNL     1      34.619 -14.895 -22.072  0.00  0.00    +0.003 C 
ATOM     32  C   UNL     1      34.001 -14.260 -23.150  0.00  0.00    +0.000 C 
ENDBRANCH  26  27
ENDBRANCH  23  26
ENDBRANCH   2  20
TORSDOF 6
ENDMDL
MODEL 3
REMARK VINA RESULT:     -10.8      1.217      1.775
REMARK  Name = 16040289
REMARK  6 active torsions:
REMARK  status: ('A' for Active; 'I' for Inactive)
REMARK    1  A    between atoms: N_2  and  C_20
REMARK    2  A    between atoms: C_3  and  C_6
REMARK    3  A    between atoms: N_11  and  C_13
REMARK    4  A    between atoms: C_13  and  C_15
REMARK    5  A    between atoms: C_23  and  O_26
REMARK    6  A    between atoms: O_26  and  C_27
REMARK                            x       y       z     vdW  Elec       q    Type
REMARK                         _______ _______ _______ _____ _____    ______ ____
ROOT
ATOM      1  O   UNL     1      34.582 -22.678 -16.075  0.00  0.00    -0.270 OA
ATOM      2  N   UNL     1      32.936 -22.319 -17.715  0.00  0.00    -0.280 N 
ATOM      3  C   UNL     1      33.431 -22.777 -16.488  0.00  0.00    +0.252 C 
ATOM      4  H   UNL     1      31.980 -22.485 -17.883  0.00  0.00    +0.155 HD
ENDROOT
BRANCH   3   6
ATOM      5  N   UNL     1      31.922 -24.646 -13.604  0.00  0.00    -0.229 NA
ATOM      6  C   UNL     1      32.445 -23.476 -15.623  0.00  0.00    +0.085 C 
ATOM      7  C   UNL     1      32.798 -24.005 -14.409  0.00  0.00    +0.133 C 
ATOM      8  C   UNL     1      31.148 -23.585 -16.070  0.00  0.00    +0.009 C 
ATOM      9  C   UNL     1      30.217 -24.237 -15.269  0.00  0.00    +0.021 C 
ATOM     10  C   UNL     1      30.652 -24.746 -14.055  0.00  0.00    +0.100 C 
ATOM     11  N   UNL     1      34.138 -23.883 -13.964  0.00  0.00    -0.314 N 
ATOM     12  H   UNL     1      34.787 -23.417 -14.540  0.00  0.00    +0.149 HD
BRANCH  11  13
ATOM     13  C   UNL     1      34.583 -24.407 -12.714  0.00  0.00    +0.115 C 
BRANCH  13  15
ATOM     14  N   UNL     1      38.633 -25.776 -13.023  0.00  0.00    -0.242 NA
ATOM     15  C   UNL     1      36.005 -24.887 -12.821  0.00  0.00    +0.000 C 
ATOM     16  C   UNL     1      36.588 -25.547 -11.754  0.00  0.00    +0.018 C 
ATOM     17  C   UNL     1      36.716 -24.665 -13.989  0.00  0.00    +0.018 C 
ATOM     18  C   UNL     1      37.899 -25.969 -11.904  0.00  0.00    +0.099 C 
ATOM     19  C   UNL     1      38.021 -25.128 -14.038  0.00  0.00    +0.099 C 
ENDBRANCH  13  15
ENDBRANCH  11  13
ENDBRANCH   3   6
BRANCH   2  20
ATOM     20  C   UNL     1      33.629 -21.658 -18.729  0.00  0.00    +0.051 C 
ATOM     21  C   UNL     1      35.016 -21.776 -18.817  0.00  0.00    +0.018 C 
ATOM     22  C   UNL     1      32.935 -20.878 -19.654  0.00  0.00    +0.018 C 
ATOM     23  C   UNL     1      35.015 -20.334 -20.756  0.00  0.00    +0.145 C 
ATOM     24  C   UNL     1      35.709 -21.114 -19.832  0.00  0.00    +0.039 C 
ATOM     25  C   UNL     1      33.628 -20.216 -20.668  0.00  0.00    +0.039 C 
BRANCH  23  26
ATOM     26  O   UNL     1      35.691 -19.687 -21.744  0.00  0.00    -0.453 OA
BRANCH  26  27
ATOM     27  C   UNL     1      35.377 -18.359 -21.976  0.00  0.00    +0.145 C 
ATOM     28  C   UNL     1      35.032 -17.961 -23.256  0.00  0.00    +0.037 C 
ATOM     29  C   UNL     1      35.419 -17.462 -20.923  0.00  0.00    +0.037 C 
ATOM     30  C   UNL     1      34.717 -16.622 -23.489  0.00  0.00    +0.003 C 
ATOM     31  C   UNL     1      35.104 -16.124 -21.157  0.00  0.00    +0.003 C 
ATOM     32  C   UNL     1      34.753 -15.704 -22.440  0.00  0.00    +0.000 C 
ENDBRANCH  26  27
ENDBRANCH  23  26
ENDBRANCH   2  20
TORSDOF 6
ENDMDL
MODEL 4
REMARK VINA RESULT:     -10.8      1.654      4.720
REMARK  Name = 16040289
REMARK  6 active torsions:
REMARK  status: ('A' for Active; 'I' for Inactive)
REMARK    1  A    between atoms: N_2  and  C_20
REMARK    2  A    between atoms: C_3  and  C_6
REMARK    3  A    between atoms: N_11  and  C_13
REMARK    4  A    between atoms: C_13  and  C_15
REMARK    5  A    between atoms: C_23  and  O_26
REMARK    6  A    between atoms: O_26  and  C_27
REMARK                            x       y       z     vdW  Elec       q    Type
REMARK                         _______ _______ _______ _____ _____    ______ ____
ROOT
ATOM      1  O   UNL     1      35.680 -24.881 -15.693  0.00  0.00    -0.270 OA
ATOM      2  N   UNL     1      35.542 -22.535 -15.662  0.00  0.00    -0.280 N 
ATOM      3  C   UNL     1      35.633 -23.812 -15.094  0.00  0.00    +0.252 C 
ATOM      4  H   UNL     1      35.515 -21.782 -15.027  0.00  0.00    +0.155 HD
ENDROOT
BRANCH   3   6
ATOM      5  N   UNL     1      34.534 -24.280 -11.536  0.00  0.00    -0.229 NA
ATOM      6  C   UNL     1      35.647 -23.851 -13.609  0.00  0.00    +0.085 C 
ATOM      7  C   UNL     1      34.549 -24.237 -12.888  0.00  0.00    +0.133 C 
ATOM      8  C   UNL     1      36.804 -23.484 -12.959  0.00  0.00    +0.009 C 
ATOM      9  C   UNL     1      36.828 -23.516 -11.569  0.00  0.00    +0.021 C 
ATOM     10  C   UNL     1      35.676 -23.918 -10.910  0.00  0.00    +0.100 C 
ATOM     11  N   UNL     1      33.366 -24.612 -13.573  0.00  0.00    -0.314 N 
ATOM     12  H   UNL     1      33.363 -24.587 -14.558  0.00  0.00    +0.149 HD
BRANCH  11  13
ATOM     13  C   UNL     1      32.182 -25.025 -12.895  0.00  0.00    +0.115 C 
BRANCH  13  15
ATOM     14  N   UNL     1      28.699 -23.716 -15.022  0.00  0.00    -0.242 NA
ATOM     15  C   UNL     1      30.959 -24.565 -13.641  0.00  0.00    +0.000 C 
ATOM     16  C   UNL     1      30.785 -23.218 -13.907  0.00  0.00    +0.018 C 
ATOM     17  C   UNL     1      30.021 -25.495 -14.055  0.00  0.00    +0.018 C 
ATOM     18  C   UNL     1      29.644 -22.846 -14.597  0.00  0.00    +0.099 C 
ATOM     19  C   UNL     1      28.913 -25.020 -14.740  0.00  0.00    +0.099 C 
ENDBRANCH  13  15
ENDBRANCH  11  13
ENDBRANCH   3   6
BRANCH   2  20
ATOM     20  C   UNL     1      35.484 -22.197 -17.014  0.00  0.00    +0.051 C 
ATOM     21  C   UNL     1      36.623 -21.718 -17.662  0.00  0.00    +0.018 C 
ATOM     22  C   UNL     1      34.287 -22.337 -17.717  0.00  0.00    +0.018 C 
ATOM     23  C   UNL     1      35.368 -21.521 -19.718  0.00  0.00    +0.145 C 
ATOM     24  C   UNL     1      36.564 -21.381 -19.015  0.00  0.00    +0.039 C 
ATOM     25  C   UNL     1      34.230 -21.999 -19.070  0.00  0.00    +0.039 C 
BRANCH  23  26
ATOM     26  O   UNL     1      35.311 -21.190 -21.037  0.00  0.00    -0.453 OA
BRANCH  26  27
ATOM     27  C   UNL     1      35.300 -19.844 -21.363  0.00  0.00    +0.145 C 
ATOM     28  C   UNL     1      34.937 -19.464 -22.643  0.00  0.00    +0.037 C 
ATOM     29  C   UNL     1      35.653 -18.914 -20.402  0.00  0.00    +0.037 C 
ATOM     30  C   UNL     1      34.927 -18.109 -22.972  0.00  0.00    +0.003 C 
ATOM     31  C   UNL     1      35.644 -17.559 -20.731  0.00  0.00    +0.003 C 
ATOM     32  C   UNL     1      35.280 -17.157 -22.016  0.00  0.00    +0.000 C 
ENDBRANCH  26  27
ENDBRANCH  23  26
ENDBRANCH   2  20
TORSDOF 6
ENDMDL
MODEL 5
REMARK VINA RESULT:     -10.4      6.328     11.945
REMARK  Name = 16040289
REMARK  6 active torsions:
REMARK  status: ('A' for Active; 'I' for Inactive)
REMARK    1  A    between atoms: N_2  and  C_20
REMARK    2  A    between atoms: C_3  and  C_6
REMARK    3  A    between atoms: N_11  and  C_13
REMARK    4  A    between atoms: C_13  and  C_15
REMARK    5  A    between atoms: C_23  and  O_26
REMARK    6  A    between atoms: O_26  and  C_27
REMARK                            x       y       z     vdW  Elec       q    Type
REMARK                         _______ _______ _______ _____ _____    ______ ____
ROOT
ATOM      1  O   UNL     1      33.341 -13.959 -21.265  0.00  0.00    -0.270 OA
ATOM      2  N   UNL     1      34.565 -14.888 -23.044  0.00  0.00    -0.280 N 
ATOM      3  C   UNL     1      33.826 -13.895 -22.390  0.00  0.00    +0.252 C 
ATOM      4  H   UNL     1      34.880 -14.665 -23.951  0.00  0.00    +0.155 HD
ENDROOT
BRANCH   3   6
ATOM      5  N   UNL     1      32.431 -10.586 -23.484  0.00  0.00    -0.229 NA
ATOM      6  C   UNL     1      33.596 -12.652 -23.171  0.00  0.00    +0.085 C 
ATOM      7  C   UNL     1      32.662 -11.724 -22.791  0.00  0.00    +0.133 C 
ATOM      8  C   UNL     1      34.350 -12.445 -24.304  0.00  0.00    +0.009 C 
ATOM      9  C   UNL     1      34.142 -11.286 -25.043  0.00  0.00    +0.021 C 
ATOM     10  C   UNL     1      33.179 -10.396 -24.594  0.00  0.00    +0.100 C 
ATOM     11  N   UNL     1      31.894 -11.953 -21.622  0.00  0.00    -0.314 N 
ATOM     12  H   UNL     1      32.052 -12.777 -21.106  0.00  0.00    +0.149 HD
BRANCH  11  13
ATOM     13  C   UNL     1      30.904 -11.036 -21.161  0.00  0.00    +0.115 C 
BRANCH  13  15
ATOM     14  N   UNL     1      32.742  -7.735 -19.138  0.00  0.00    -0.242 NA
ATOM     15  C   UNL     1      31.549  -9.877 -20.450  0.00  0.00    +0.000 C 
ATOM     16  C   UNL     1      31.869  -9.989 -19.108  0.00  0.00    +0.018 C 
ATOM     17  C   UNL     1      31.815  -8.711 -21.146  0.00  0.00    +0.018 C 
ATOM     18  C   UNL     1      32.462  -8.894 -18.501  0.00  0.00    +0.099 C 
ATOM     19  C   UNL     1      32.412  -7.673 -20.447  0.00  0.00    +0.099 C 
ENDBRANCH  13  15
ENDBRANCH  11  13
ENDBRANCH   3   6
BRANCH   2  20
ATOM     20  C   UNL     1      34.912 -16.153 -22.571  0.00  0.00    +0.051 C 
ATOM     21  C   UNL     1      34.940 -17.241 -23.444  0.00  0.00    +0.018 C 
ATOM     22  C   UNL     1      35.229 -16.331 -21.224  0.00  0.00    +0.018 C 
ATOM     23  C   UNL     1      35.604 -18.685 -21.624  0.00  0.00    +0.145 C 
ATOM     24  C   UNL     1      35.287 -18.507 -22.970  0.00  0.00    +0.039 C 
ATOM     25  C   UNL     1      35.576 -17.597 -20.751  0.00  0.00    +0.039 C 
BRANCH  23  26
ATOM     26  O   UNL     1      35.941 -19.920 -21.161  0.00  0.00    -0.453 OA
BRANCH  26  27
ATOM     27  C   UNL     1      35.048 -20.556 -20.316  0.00  0.00    +0.145 C 
ATOM     28  C   UNL     1      33.697 -20.273 -20.426  0.00  0.00    +0.037 C 
ATOM     29  C   UNL     1      35.527 -21.457 -19.382  0.00  0.00    +0.037 C 
ATOM     30  C   UNL     1      32.798 -20.914 -19.574  0.00  0.00    +0.003 C 
ATOM     31  C   UNL     1      34.628 -22.097 -18.530  0.00  0.00    +0.003 C 
ATOM     32  C   UNL     1      33.263 -21.825 -18.626  0.00  0.00    +0.000 C 
ENDBRANCH  26  27
ENDBRANCH  23  26
ENDBRANCH   2  20
TORSDOF 6
ENDMDL
MODEL 6
REMARK VINA RESULT:     -10.3      9.564     15.389
REMARK  Name = 16040289
REMARK  6 active torsions:
REMARK  status: ('A' for Active; 'I' for Inactive)
REMARK    1  A    between atoms: N_2  and  C_20
REMARK    2  A    between atoms: C_3  and  C_6
REMARK    3  A    between atoms: N_11  and  C_13
REMARK    4  A    between atoms: C_13  and  C_15
REMARK    5  A    between atoms: C_23  and  O_26
REMARK    6  A    between atoms: O_26  and  C_27
REMARK                            x       y       z     vdW  Elec       q    Type
REMARK                         _______ _______ _______ _____ _____    ______ ____
ROOT
ATOM      1  O   UNL     1      30.705  -9.927 -22.418  0.00  0.00    -0.270 OA
ATOM      2  N   UNL     1      33.036 -10.222 -22.492  0.00  0.00    -0.280 N 
ATOM      3  C   UNL     1      31.847  -9.555 -22.170  0.00  0.00    +0.252 C 
ATOM      4  H   UNL     1      33.869  -9.775 -22.215  0.00  0.00    +0.155 HD
ENDROOT
BRANCH   3   6
ATOM      5  N   UNL     1      32.015  -5.859 -21.538  0.00  0.00    -0.229 NA
ATOM      6  C   UNL     1      32.015  -8.250 -21.479  0.00  0.00    +0.085 C 
ATOM      7  C   UNL     1      31.867  -7.060 -22.141  0.00  0.00    +0.133 C 
ATOM      8  C   UNL     1      32.327  -8.258 -20.138  0.00  0.00    +0.009 C 
ATOM      9  C   UNL     1      32.486  -7.042 -19.482  0.00  0.00    +0.021 C 
ATOM     10  C   UNL     1      32.321  -5.881 -20.221  0.00  0.00    +0.100 C 
ATOM     11  N   UNL     1      31.545  -7.070 -23.521  0.00  0.00    -0.314 N 
ATOM     12  H   UNL     1      31.433  -7.938 -23.974  0.00  0.00    +0.149 HD
BRANCH  11  13
ATOM     13  C   UNL     1      31.375  -5.875 -24.280  0.00  0.00    +0.115 C 
BRANCH  13  15
ATOM     14  N   UNL     1      35.035  -4.806 -26.238  0.00  0.00    -0.242 NA
ATOM     15  C   UNL     1      32.660  -5.500 -24.967  0.00  0.00    +0.000 C 
ATOM     16  C   UNL     1      33.870  -5.856 -24.398  0.00  0.00    +0.018 C 
ATOM     17  C   UNL     1      32.618  -4.802 -26.162  0.00  0.00    +0.018 C 
ATOM     18  C   UNL     1      35.024  -5.487 -25.069  0.00  0.00    +0.099 C 
ATOM     19  C   UNL     1      33.829  -4.481 -26.755  0.00  0.00    +0.099 C 
ENDBRANCH  13  15
ENDBRANCH  11  13
ENDBRANCH   3   6
BRANCH   2  20
ATOM     20  C   UNL     1      33.186 -11.439 -23.156  0.00  0.00    +0.051 C 
ATOM     21  C   UNL     1      32.947 -12.636 -22.481  0.00  0.00    +0.018 C 
ATOM     22  C   UNL     1      33.577 -11.459 -24.495  0.00  0.00    +0.018 C 
ATOM     23  C   UNL     1      33.488 -13.874 -24.485  0.00  0.00    +0.145 C 
ATOM     24  C   UNL     1      33.097 -13.854 -23.146  0.00  0.00    +0.039 C 
ATOM     25  C   UNL     1      33.727 -12.677 -25.159  0.00  0.00    +0.039 C 
BRANCH  23  26
ATOM     26  O   UNL     1      33.637 -15.061 -25.133  0.00  0.00    -0.453 OA
BRANCH  26  27
ATOM     27  C   UNL     1      34.118 -16.136 -24.405  0.00  0.00    +0.145 C 
ATOM     28  C   UNL     1      34.996 -15.903 -23.361  0.00  0.00    +0.037 C 
ATOM     29  C   UNL     1      33.711 -17.414 -24.741  0.00  0.00    +0.037 C 
ATOM     30  C   UNL     1      35.483 -16.987 -22.628  0.00  0.00    +0.003 C 
ATOM     31  C   UNL     1      34.197 -18.498 -24.008  0.00  0.00    +0.003 C 
ATOM     32  C   UNL     1      35.083 -18.283 -22.952  0.00  0.00    +0.000 C 
ENDBRANCH  26  27
ENDBRANCH  23  26
ENDBRANCH   2  20
TORSDOF 6
ENDMDL
MODEL 7
REMARK VINA RESULT:     -10.3      9.582     15.465
REMARK  Name = 16040289
REMARK  6 active torsions:
REMARK  status: ('A' for Active; 'I' for Inactive)
REMARK    1  A    between atoms: N_2  and  C_20
REMARK    2  A    between atoms: C_3  and  C_6
REMARK    3  A    between atoms: N_11  and  C_13
REMARK    4  A    between atoms: C_13  and  C_15
REMARK    5  A    between atoms: C_23  and  O_26
REMARK    6  A    between atoms: O_26  and  C_27
REMARK                            x       y       z     vdW  Elec       q    Type
REMARK                         _______ _______ _______ _____ _____    ______ ____
ROOT
ATOM      1  O   UNL     1      30.713  -9.859 -22.489  0.00  0.00    -0.270 OA
ATOM      2  N   UNL     1      33.039 -10.195 -22.495  0.00  0.00    -0.280 N 
ATOM      3  C   UNL     1      31.853  -9.508 -22.207  0.00  0.00    +0.252 C 
ATOM      4  H   UNL     1      33.872  -9.764 -22.193  0.00  0.00    +0.155 HD
ENDROOT
BRANCH   3   6
ATOM      5  N   UNL     1      32.026  -5.816 -21.553  0.00  0.00    -0.229 NA
ATOM      6  C   UNL     1      32.024  -8.207 -21.508  0.00  0.00    +0.085 C 
ATOM      7  C   UNL     1      31.875  -7.013 -22.163  0.00  0.00    +0.133 C 
ATOM      8  C   UNL     1      32.338  -8.223 -20.169  0.00  0.00    +0.009 C 
ATOM      9  C   UNL     1      32.501  -7.012 -19.506  0.00  0.00    +0.021 C 
ATOM     10  C   UNL     1      32.335  -5.846 -20.237  0.00  0.00    +0.100 C 
ATOM     11  N   UNL     1      31.550  -7.015 -23.543  0.00  0.00    -0.314 N 
ATOM     12  H   UNL     1      31.437  -7.879 -24.000  0.00  0.00    +0.149 HD
BRANCH  11  13
ATOM     13  C   UNL     1      31.380  -5.815 -24.294  0.00  0.00    +0.115 C 
BRANCH  13  15
ATOM     14  N   UNL     1      35.000  -4.812 -26.357  0.00  0.00    -0.242 NA
ATOM     15  C   UNL     1      32.650  -5.463 -25.019  0.00  0.00    +0.000 C 
ATOM     16  C   UNL     1      32.587  -4.783 -26.223  0.00  0.00    +0.018 C 
ATOM     17  C   UNL     1      33.871  -5.822 -24.474  0.00  0.00    +0.018 C 
ATOM     18  C   UNL     1      33.784  -4.483 -26.850  0.00  0.00    +0.099 C 
ATOM     19  C   UNL     1      35.012  -5.473 -25.179  0.00  0.00    +0.099 C 
ENDBRANCH  13  15
ENDBRANCH  11  13
ENDBRANCH   3   6
BRANCH   2  20
ATOM     20  C   UNL     1      33.187 -11.413 -23.157  0.00  0.00    +0.051 C 
ATOM     21  C   UNL     1      33.601 -11.439 -24.489  0.00  0.00    +0.018 C 
ATOM     22  C   UNL     1      32.920 -12.608 -22.487  0.00  0.00    +0.018 C 
ATOM     23  C   UNL     1      33.482 -13.852 -24.481  0.00  0.00    +0.145 C 
ATOM     24  C   UNL     1      33.749 -12.659 -25.150  0.00  0.00    +0.039 C 
ATOM     25  C   UNL     1      33.068 -13.827 -23.149  0.00  0.00    +0.039 C 
BRANCH  23  26
ATOM     26  O   UNL     1      33.624 -15.041 -25.126  0.00  0.00    -0.453 OA
BRANCH  26  27
ATOM     27  C   UNL     1      34.119 -16.112 -24.402  0.00  0.00    +0.145 C 
ATOM     28  C   UNL     1      33.727 -17.395 -24.743  0.00  0.00    +0.037 C 
ATOM     29  C   UNL     1      34.992 -15.874 -23.356  0.00  0.00    +0.037 C 
ATOM     30  C   UNL     1      34.225 -18.474 -24.012  0.00  0.00    +0.003 C 
ATOM     31  C   UNL     1      35.490 -16.953 -22.625  0.00  0.00    +0.003 C 
ATOM     32  C   UNL     1      35.106 -18.253 -22.954  0.00  0.00    +0.000 C 
ENDBRANCH  26  27
ENDBRANCH  23  26
ENDBRANCH   2  20
TORSDOF 6
ENDMDL
MODEL 8
REMARK VINA RESULT:     -10.1      1.608      4.512
REMARK  Name = 16040289
REMARK  6 active torsions:
REMARK  status: ('A' for Active; 'I' for Inactive)
REMARK    1  A    between atoms: N_2  and  C_20
REMARK    2  A    between atoms: C_3  and  C_6
REMARK    3  A    between atoms: N_11  and  C_13
REMARK    4  A    between atoms: C_13  and  C_15
REMARK    5  A    between atoms: C_23  and  O_26
REMARK    6  A    between atoms: O_26  and  C_27
REMARK                            x       y       z     vdW  Elec       q    Type
REMARK                         _______ _______ _______ _____ _____    ______ ____
ROOT
ATOM      1  O   UNL     1      33.807 -23.778 -17.514  0.00  0.00    -0.270 OA
ATOM      2  N   UNL     1      35.425 -22.089 -17.280  0.00  0.00    -0.280 N 
ATOM      3  C   UNL     1      34.661 -23.185 -16.862  0.00  0.00    +0.252 C 
ATOM      4  H   UNL     1      36.068 -21.736 -16.623  0.00  0.00    +0.155 HD
ENDROOT
BRANCH   3   6
ATOM      5  N   UNL     1      34.154 -23.946 -13.222  0.00  0.00    -0.229 NA
ATOM      6  C   UNL     1      34.910 -23.644 -15.471  0.00  0.00    +0.085 C 
ATOM      7  C   UNL     1      33.954 -23.539 -14.496  0.00  0.00    +0.133 C 
ATOM      8  C   UNL     1      36.140 -24.184 -15.174  0.00  0.00    +0.009 C 
ATOM      9  C   UNL     1      36.385 -24.615 -13.874  0.00  0.00    +0.021 C 
ATOM     10  C   UNL     1      35.367 -24.475 -12.944  0.00  0.00    +0.100 C 
ATOM     11  N   UNL     1      32.692 -22.980 -14.820  0.00  0.00    -0.314 N 
ATOM     12  H   UNL     1      32.531 -22.680 -15.743  0.00  0.00    +0.149 HD
BRANCH  11  13
ATOM     13  C   UNL     1      31.646 -22.837 -13.861  0.00  0.00    +0.115 C 
BRANCH  13  15
ATOM     14  N   UNL     1      27.956 -24.354 -15.428  0.00  0.00    -0.242 NA
ATOM     15  C   UNL     1      30.351 -23.370 -14.411  0.00  0.00    +0.000 C 
ATOM     16  C   UNL     1      30.062 -24.719 -14.299  0.00  0.00    +0.018 C 
ATOM     17  C   UNL     1      29.460 -22.505 -15.024  0.00  0.00    +0.018 C 
ATOM     18  C   UNL     1      28.858 -25.159 -14.821  0.00  0.00    +0.099 C 
ATOM     19  C   UNL     1      28.281 -23.045 -15.513  0.00  0.00    +0.099 C 
ENDBRANCH  13  15
ENDBRANCH  11  13
ENDBRANCH   3   6
BRANCH   2  20
ATOM     20  C   UNL     1      35.388 -21.435 -18.512  0.00  0.00    +0.051 C 
ATOM     21  C   UNL     1      36.562 -20.926 -19.067  0.00  0.00    +0.018 C 
ATOM     22  C   UNL     1      34.176 -21.289 -19.187  0.00  0.00    +0.018 C 
ATOM     23  C   UNL     1      35.314 -20.126 -20.975  0.00  0.00    +0.145 C 
ATOM     24  C   UNL     1      36.525 -20.272 -20.299  0.00  0.00    +0.039 C 
ATOM     25  C   UNL     1      34.140 -20.635 -20.420  0.00  0.00    +0.039 C 
BRANCH  23  26
ATOM     26  O   UNL     1      35.277 -19.486 -22.175  0.00  0.00    -0.453 OA
BRANCH  26  27
ATOM     27  C   UNL     1      35.118 -18.111 -22.167  0.00  0.00    +0.145 C 
ATOM     28  C   UNL     1      35.121 -17.439 -20.957  0.00  0.00    +0.037 C 
ATOM     29  C   UNL     1      34.961 -17.443 -23.369  0.00  0.00    +0.037 C 
ATOM     30  C   UNL     1      34.961 -16.053 -20.950  0.00  0.00    +0.003 C 
ATOM     31  C   UNL     1      34.800 -16.057 -23.361  0.00  0.00    +0.003 C 
ATOM     32  C   UNL     1      34.800 -15.363 -22.151  0.00  0.00    +0.000 C 
ENDBRANCH  26  27
ENDBRANCH  23  26
ENDBRANCH   2  20
TORSDOF 6
ENDMDL
MODEL 9
REMARK VINA RESULT:      -9.9      3.827      8.997
REMARK  Name = 16040289
REMARK  6 active torsions:
REMARK  status: ('A' for Active; 'I' for Inactive)
REMARK    1  A    between atoms: N_2  and  C_20
REMARK    2  A    between atoms: C_3  and  C_6
REMARK    3  A    between atoms: N_11  and  C_13
REMARK    4  A    between atoms: C_13  and  C_15
REMARK    5  A    between atoms: C_23  and  O_26
REMARK    6  A    between atoms: O_26  and  C_27
REMARK                            x       y       z     vdW  Elec       q    Type
REMARK                         _______ _______ _______ _____ _____    ______ ____
ROOT
ATOM      1  O   UNL     1      35.154 -22.445 -14.455  0.00  0.00    -0.270 OA
ATOM      2  N   UNL     1      35.152 -24.766 -14.831  0.00  0.00    -0.280 N 
ATOM      3  C   UNL     1      34.586 -23.486 -14.766  0.00  0.00    +0.252 C 
ATOM      4  H   UNL     1      34.545 -25.493 -15.101  0.00  0.00    +0.155 HD
ENDROOT
BRANCH   3   6
ATOM      5  N   UNL     1      31.380 -22.955 -16.644  0.00  0.00    -0.229 NA
ATOM      6  C   UNL     1      33.136 -23.413 -15.088  0.00  0.00    +0.085 C 
ATOM      7  C   UNL     1      32.691 -23.031 -16.326  0.00  0.00    +0.133 C 
ATOM      8  C   UNL     1      32.234 -23.742 -14.102  0.00  0.00    +0.009 C 
ATOM      9  C   UNL     1      30.875 -23.676 -14.392  0.00  0.00    +0.021 C 
ATOM     10  C   UNL     1      30.503 -23.280 -15.668  0.00  0.00    +0.100 C 
ATOM     11  N   UNL     1      33.635 -22.697 -17.329  0.00  0.00    -0.314 N 
ATOM     12  H   UNL     1      34.594 -22.749 -17.111  0.00  0.00    +0.149 HD
BRANCH  11  13
ATOM     13  C   UNL     1      33.252 -22.290 -18.641  0.00  0.00    +0.115 C 
BRANCH  13  15
ATOM     14  N   UNL     1      36.249 -19.757 -20.365  0.00  0.00    -0.242 NA
ATOM     15  C   UNL     1      34.304 -21.401 -19.245  0.00  0.00    +0.000 C 
ATOM     16  C   UNL     1      35.630 -21.566 -18.886  0.00  0.00    +0.018 C 
ATOM     17  C   UNL     1      33.935 -20.426 -20.156  0.00  0.00    +0.018 C 
ATOM     18  C   UNL     1      36.560 -20.723 -19.471  0.00  0.00    +0.099 C 
ATOM     19  C   UNL     1      34.942 -19.634 -20.685  0.00  0.00    +0.099 C 
ENDBRANCH  13  15
ENDBRANCH  11  13
ENDBRANCH   3   6
BRANCH   2  20
ATOM     20  C   UNL     1      36.469 -25.137 -14.561  0.00  0.00    +0.051 C 
ATOM     21  C   UNL     1      36.732 -26.310 -13.854  0.00  0.00    +0.018 C 
ATOM     22  C   UNL     1      37.523 -24.334 -14.998  0.00  0.00    +0.018 C 
ATOM     23  C   UNL     1      39.104 -25.879 -14.020  0.00  0.00    +0.145 C 
ATOM     24  C   UNL     1      38.050 -26.681 -13.584  0.00  0.00    +0.039 C 
ATOM     25  C   UNL     1      38.841 -24.706 -14.728  0.00  0.00    +0.039 C 
BRANCH  23  26
ATOM     26  O   UNL     1      40.389 -26.240 -13.755  0.00  0.00    -0.453 OA
BRANCH  26  27
ATOM     27  C   UNL     1      40.884 -27.368 -14.387  0.00  0.00    +0.145 C 
ATOM     28  C   UNL     1      40.458 -27.664 -15.670  0.00  0.00    +0.037 C 
ATOM     29  C   UNL     1      41.791 -28.171 -13.719  0.00  0.00    +0.037 C 
ATOM     30  C   UNL     1      40.957 -28.801 -16.306  0.00  0.00    +0.003 C 
ATOM     31  C   UNL     1      42.289 -29.309 -14.354  0.00  0.00    +0.003 C 
ATOM     32  C   UNL     1      41.872 -29.623 -15.648  0.00  0.00    +0.000 C 
ENDBRANCH  26  27
ENDBRANCH  23  26
ENDBRANCH   2  20
TORSDOF 6
ENDMDL
