MODEL 1
REMARK VINA RESULT:     -11.9      0.000      0.000
REMARK  Name = 5289109
REMARK  6 active torsions:
REMARK  status: ('A' for Active; 'I' for Inactive)
REMARK    1  A    between atoms: C_3  and  C_9
REMARK    2  A    between atoms: C_4  and  C_21
REMARK    3  A    between atoms: N_8  and  C_11
REMARK    4  A    between atoms: C_11  and  C_12
REMARK    5  A    between atoms: N_20  and  C_23
REMARK    6  A    between atoms: C_23  and  C_24
REMARK                            x       y       z     vdW  Elec       q    Type
REMARK                         _______ _______ _______ _____ _____    ______ ____
ROOT
ATOM      1  N   UNL     1      34.621 -19.417 -23.170  0.00  0.00    -0.244 NA
ATOM      2  N   UNL     1      33.817 -17.793 -24.758  0.00  0.00    -0.244 NA
ATOM      3  C   UNL     1      35.062 -18.396 -22.406  0.00  0.00    +0.115 C 
ATOM      4  C   UNL     1      34.287 -16.853 -23.936  0.00  0.00    +0.115 C 
ATOM      5  C   UNL     1      34.920 -17.066 -22.747  0.00  0.00    +0.100 C 
ATOM      6  C   UNL     1      34.016 -19.049 -24.315  0.00  0.00    +0.250 C 
ENDROOT
BRANCH   3   9
ATOM      7  O   UNL     1      36.191 -17.902 -20.411  0.00  0.00    -0.269 OA
ATOM      8  N   UNL     1      35.764 -20.137 -20.858  0.00  0.00    -0.296 N 
ATOM      9  C   UNL     1      35.717 -18.771 -21.165  0.00  0.00    +0.260 C 
ATOM     10  H   UNL     1      35.371 -20.772 -21.498  0.00  0.00    +0.150 HD
BRANCH   8  11
ATOM     11  C   UNL     1      36.360 -20.665 -19.651  0.00  0.00    +0.117 C 
BRANCH  11  12
ATOM     12  C   UNL     1      35.368 -21.430 -18.824  0.00  0.00    -0.003 C 
ATOM     13  C   UNL     1      35.779 -22.032 -17.641  0.00  0.00    -0.007 C 
ATOM     14  C   UNL     1      34.857 -22.741 -16.871  0.00  0.00    -0.022 C 
ATOM     15  C   UNL     1      34.048 -21.529 -19.249  0.00  0.00    -0.003 C 
ATOM     16  C   UNL     1      33.531 -22.845 -17.290  0.00  0.00    -0.004 C 
ATOM     17  C   UNL     1      33.126 -22.238 -18.480  0.00  0.00    -0.001 C 
ATOM     18  C   UNL     1      35.289 -23.391 -15.600  0.00  0.00    +0.031 C 
ENDBRANCH  11  12
ENDBRANCH   8  11
ENDBRANCH   3   9
BRANCH   4  21
ATOM     19  O   UNL     1      33.811 -15.260 -25.589  0.00  0.00    -0.269 OA
ATOM     20  N   UNL     1      34.182 -14.469 -23.440  0.00  0.00    -0.296 N 
ATOM     21  C   UNL     1      34.078 -15.460 -24.407  0.00  0.00    +0.260 C 
ATOM     22  H   UNL     1      34.401 -14.730 -22.517  0.00  0.00    +0.150 HD
BRANCH  20  23
ATOM     23  C   UNL     1      33.981 -13.073 -23.736  0.00  0.00    +0.117 C 
BRANCH  23  24
ATOM     24  C   UNL     1      33.117 -12.398 -22.725  0.00  0.00    -0.003 C 
ATOM     25  C   UNL     1      32.727 -11.073 -22.916  0.00  0.00    -0.007 C 
ATOM     26  C   UNL     1      31.917 -10.441 -21.970  0.00  0.00    -0.022 C 
ATOM     27  C   UNL     1      32.700 -13.091 -21.589  0.00  0.00    -0.003 C 
ATOM     28  C   UNL     1      31.500 -11.135 -20.835  0.00  0.00    -0.004 C 
ATOM     29  C   UNL     1      31.891 -12.461 -20.644  0.00  0.00    -0.001 C 
ATOM     30  C   UNL     1      31.500  -9.024 -22.173  0.00  0.00    +0.031 C 
ENDBRANCH  23  24
ENDBRANCH  20  23
ENDBRANCH   4  21
TORSDOF 6
ENDMDL
MODEL 2
REMARK VINA RESULT:     -11.9      0.202      9.373
REMARK  Name = 5289109
REMARK  6 active torsions:
REMARK  status: ('A' for Active; 'I' for Inactive)
REMARK    1  A    between atoms: C_3  and  C_9
REMARK    2  A    between atoms: C_4  and  C_21
REMARK    3  A    between atoms: N_8  and  C_11
REMARK    4  A    between atoms: C_11  and  C_12
REMARK    5  A    between atoms: N_20  and  C_23
REMARK    6  A    between atoms: C_23  and  C_24
REMARK                            x       y       z     vdW  Elec       q    Type
REMARK                         _______ _______ _______ _____ _____    ______ ____
ROOT
ATOM      1  N   UNL     1      34.079 -17.972 -24.723  0.00  0.00    -0.244 NA
ATOM      2  N   UNL     1      34.874 -19.558 -23.093  0.00  0.00    -0.244 NA
ATOM      3  C   UNL     1      34.423 -16.982 -23.872  0.00  0.00    +0.115 C 
ATOM      4  C   UNL     1      35.180 -18.513 -22.322  0.00  0.00    +0.115 C 
ATOM      5  C   UNL     1      34.989 -17.199 -22.632  0.00  0.00    +0.100 C 
ATOM      6  C   UNL     1      34.329 -19.217 -24.275  0.00  0.00    +0.250 C 
ENDROOT
BRANCH   3   9
ATOM      7  O   UNL     1      33.783 -15.423 -25.502  0.00  0.00    -0.269 OA
ATOM      8  N   UNL     1      34.332 -14.596 -23.407  0.00  0.00    -0.296 N 
ATOM      9  C   UNL     1      34.161 -15.630 -24.335  0.00  0.00    +0.260 C 
ATOM     10  H   UNL     1      34.635 -14.829 -22.499  0.00  0.00    +0.150 HD
BRANCH   8  11
ATOM     11  C   UNL     1      34.089 -13.203 -23.707  0.00  0.00    +0.117 C 
BRANCH  11  12
ATOM     12  C   UNL     1      33.199 -12.555 -22.687  0.00  0.00    -0.003 C 
ATOM     13  C   UNL     1      32.772 -11.247 -22.880  0.00  0.00    -0.007 C 
ATOM     14  C   UNL     1      31.942 -10.646 -21.933  0.00  0.00    -0.022 C 
ATOM     15  C   UNL     1      32.809 -13.271 -21.561  0.00  0.00    -0.003 C 
ATOM     16  C   UNL     1      31.547 -11.356 -20.800  0.00  0.00    -0.004 C 
ATOM     17  C   UNL     1      31.980 -12.669 -20.614  0.00  0.00    -0.001 C 
ATOM     18  C   UNL     1      31.480  -9.241 -22.131  0.00  0.00    +0.031 C 
ENDBRANCH  11  12
ENDBRANCH   8  11
ENDBRANCH   3   9
BRANCH   4  21
ATOM     19  O   UNL     1      36.107 -17.971 -20.237  0.00  0.00    -0.269 OA
ATOM     20  N   UNL     1      35.913 -20.225 -20.749  0.00  0.00    -0.296 N 
ATOM     21  C   UNL     1      35.783 -18.868 -21.011  0.00  0.00    +0.260 C 
ATOM     22  H   UNL     1      35.624 -20.869 -21.434  0.00  0.00    +0.150 HD
BRANCH  20  23
ATOM     23  C   UNL     1      36.456 -20.727 -19.512  0.00  0.00    +0.117 C 
BRANCH  23  24
ATOM     24  C   UNL     1      35.446 -21.481 -18.715  0.00  0.00    -0.003 C 
ATOM     25  C   UNL     1      35.816 -22.084 -17.513  0.00  0.00    -0.007 C 
ATOM     26  C   UNL     1      34.871 -22.789 -16.766  0.00  0.00    -0.022 C 
ATOM     27  C   UNL     1      34.131 -21.582 -19.170  0.00  0.00    -0.003 C 
ATOM     28  C   UNL     1      33.557 -22.890 -17.222  0.00  0.00    -0.004 C 
ATOM     29  C   UNL     1      33.186 -22.286 -18.424  0.00  0.00    -0.001 C 
ATOM     30  C   UNL     1      35.266 -23.435 -15.481  0.00  0.00    +0.031 C 
ENDBRANCH  23  24
ENDBRANCH  20  23
ENDBRANCH   4  21
TORSDOF 6
ENDMDL
MODEL 3
REMARK VINA RESULT:     -11.5      2.047      3.161
REMARK  Name = 5289109
REMARK  6 active torsions:
REMARK  status: ('A' for Active; 'I' for Inactive)
REMARK    1  A    between atoms: C_3  and  C_9
REMARK    2  A    between atoms: C_4  and  C_21
REMARK    3  A    between atoms: N_8  and  C_11
REMARK    4  A    between atoms: C_11  and  C_12
REMARK    5  A    between atoms: N_20  and  C_23
REMARK    6  A    between atoms: C_23  and  C_24
REMARK                            x       y       z     vdW  Elec       q    Type
REMARK                         _______ _______ _______ _____ _____    ______ ____
ROOT
ATOM      1  N   UNL     1      34.825 -15.701 -20.497  0.00  0.00    -0.244 NA
ATOM      2  N   UNL     1      34.124 -13.576 -21.390  0.00  0.00    -0.244 NA
ATOM      3  C   UNL     1      34.901 -16.165 -21.762  0.00  0.00    +0.115 C 
ATOM      4  C   UNL     1      34.228 -14.125 -22.602  0.00  0.00    +0.115 C 
ATOM      5  C   UNL     1      34.608 -15.406 -22.877  0.00  0.00    +0.100 C 
ATOM      6  C   UNL     1      34.436 -14.416 -20.387  0.00  0.00    +0.250 C 
ENDROOT
BRANCH   3   9
ATOM      7  O   UNL     1      35.450 -18.058 -23.032  0.00  0.00    -0.269 OA
ATOM      8  N   UNL     1      35.586 -18.257 -20.725  0.00  0.00    -0.296 N 
ATOM      9  C   UNL     1      35.320 -17.549 -21.904  0.00  0.00    +0.260 C 
ATOM     10  H   UNL     1      35.462 -17.795 -19.866  0.00  0.00    +0.150 HD
BRANCH   8  11
ATOM     11  C   UNL     1      36.033 -19.632 -20.702  0.00  0.00    +0.117 C 
BRANCH  11  12
ATOM     12  C   UNL     1      35.107 -20.510 -19.912  0.00  0.00    -0.003 C 
ATOM     13  C   UNL     1      35.609 -21.273 -18.866  0.00  0.00    -0.007 C 
ATOM     14  C   UNL     1      34.748 -22.088 -18.130  0.00  0.00    -0.022 C 
ATOM     15  C   UNL     1      33.755 -20.551 -20.236  0.00  0.00    -0.003 C 
ATOM     16  C   UNL     1      33.391 -22.136 -18.448  0.00  0.00    -0.004 C 
ATOM     17  C   UNL     1      32.895 -21.366 -19.501  0.00  0.00    -0.001 C 
ATOM     18  C   UNL     1      35.279 -22.912 -17.006  0.00  0.00    +0.031 C 
ENDBRANCH  11  12
ENDBRANCH   8  11
ENDBRANCH   3   9
BRANCH   4  21
ATOM     19  O   UNL     1      33.357 -13.675 -24.733  0.00  0.00    -0.269 OA
ATOM     20  N   UNL     1      34.182 -11.871 -23.530  0.00  0.00    -0.296 N 
ATOM     21  C   UNL     1      33.887 -13.214 -23.725  0.00  0.00    +0.260 C 
ATOM     22  H   UNL     1      34.608 -11.598 -22.685  0.00  0.00    +0.150 HD
BRANCH  20  23
ATOM     23  C   UNL     1      33.888 -10.862 -24.515  0.00  0.00    +0.117 C 
BRANCH  23  24
ATOM     24  C   UNL     1      33.823  -9.494 -23.923  0.00  0.00    -0.003 C 
ATOM     25  C   UNL     1      32.595  -8.962 -23.533  0.00  0.00    -0.007 C 
ATOM     26  C   UNL     1      32.533  -7.682 -22.978  0.00  0.00    -0.022 C 
ATOM     27  C   UNL     1      34.990  -8.748 -23.760  0.00  0.00    -0.003 C 
ATOM     28  C   UNL     1      33.701  -6.937 -22.815  0.00  0.00    -0.004 C 
ATOM     29  C   UNL     1      34.930  -7.470 -23.206  0.00  0.00    -0.001 C 
ATOM     30  C   UNL     1      31.220  -7.112 -22.561  0.00  0.00    +0.031 C 
ENDBRANCH  23  24
ENDBRANCH  20  23
ENDBRANCH   4  21
TORSDOF 6
ENDMDL
MODEL 4
REMARK VINA RESULT:     -11.5      2.044     10.451
REMARK  Name = 5289109
REMARK  6 active torsions:
REMARK  status: ('A' for Active; 'I' for Inactive)
REMARK    1  A    between atoms: C_3  and  C_9
REMARK    2  A    between atoms: C_4  and  C_21
REMARK    3  A    between atoms: N_8  and  C_11
REMARK    4  A    between atoms: C_11  and  C_12
REMARK    5  A    between atoms: N_20  and  C_23
REMARK    6  A    between atoms: C_23  and  C_24
REMARK                            x       y       z     vdW  Elec       q    Type
REMARK                         _______ _______ _______ _____ _____    ______ ____
ROOT
ATOM      1  N   UNL     1      34.120 -13.910 -21.242  0.00  0.00    -0.244 NA
ATOM      2  N   UNL     1      34.949 -15.999 -20.373  0.00  0.00    -0.244 NA
ATOM      3  C   UNL     1      34.271 -14.410 -22.486  0.00  0.00    +0.115 C 
ATOM      4  C   UNL     1      35.063 -16.405 -21.640  0.00  0.00    +0.115 C 
ATOM      5  C   UNL     1      34.749 -15.678 -22.750  0.00  0.00    +0.100 C 
ATOM      6  C   UNL     1      34.472 -14.747 -20.247  0.00  0.00    +0.250 C 
ENDROOT
BRANCH   3   9
ATOM      7  O   UNL     1      33.317 -13.968 -24.582  0.00  0.00    -0.269 OA
ATOM      8  N   UNL     1      34.197 -12.164 -23.420  0.00  0.00    -0.296 N 
ATOM      9  C   UNL     1      33.897 -13.524 -23.575  0.00  0.00    +0.260 C 
ATOM     10  H   UNL     1      34.657 -11.879 -22.598  0.00  0.00    +0.150 HD
BRANCH   8  11
ATOM     11  C   UNL     1      33.868 -11.156 -24.401  0.00  0.00    +0.117 C 
BRANCH  11  12
ATOM     12  C   UNL     1      33.883  -9.774 -23.815  0.00  0.00    -0.003 C 
ATOM     13  C   UNL     1      32.790  -9.326 -23.084  0.00  0.00    -0.007 C 
ATOM     14  C   UNL     1      32.805  -8.043 -22.537  0.00  0.00    -0.022 C 
ATOM     15  C   UNL     1      34.991  -8.957 -24.008  0.00  0.00    -0.003 C 
ATOM     16  C   UNL     1      33.912  -7.216 -22.726  0.00  0.00    -0.004 C 
ATOM     17  C   UNL     1      35.006  -7.674 -23.462  0.00  0.00    -0.001 C 
ATOM     18  C   UNL     1      31.635  -7.552 -21.752  0.00  0.00    +0.031 C 
ENDBRANCH  11  12
ENDBRANCH   8  11
ENDBRANCH   3   9
BRANCH   4  21
ATOM     19  O   UNL     1      35.682 -18.263 -22.929  0.00  0.00    -0.269 OA
ATOM     20  N   UNL     1      35.961 -18.434 -20.633  0.00  0.00    -0.296 N 
ATOM     21  C   UNL     1      35.587 -17.785 -21.801  0.00  0.00    +0.260 C 
ATOM     22  H   UNL     1      35.847 -17.967 -19.774  0.00  0.00    +0.150 HD
BRANCH  20  23
ATOM     23  C   UNL     1      36.511 -19.767 -20.628  0.00  0.00    +0.117 C 
BRANCH  23  24
ATOM     24  C   UNL     1      35.806 -20.666 -19.669  0.00  0.00    -0.003 C 
ATOM     25  C   UNL     1      36.488 -21.178 -18.565  0.00  0.00    -0.007 C 
ATOM     26  C   UNL     1      35.829 -22.019 -17.667  0.00  0.00    -0.022 C 
ATOM     27  C   UNL     1      34.467 -20.996 -19.876  0.00  0.00    -0.003 C 
ATOM     28  C   UNL     1      34.490 -22.348 -17.875  0.00  0.00    -0.004 C 
ATOM     29  C   UNL     1      33.808 -21.836 -18.979  0.00  0.00    -0.001 C 
ATOM     30  C   UNL     1      36.557 -22.567 -16.487  0.00  0.00    +0.031 C 
ENDBRANCH  23  24
ENDBRANCH  20  23
ENDBRANCH   4  21
TORSDOF 6
ENDMDL
MODEL 5
REMARK VINA RESULT:     -11.4      5.871     11.011
REMARK  Name = 5289109
REMARK  6 active torsions:
REMARK  status: ('A' for Active; 'I' for Inactive)
REMARK    1  A    between atoms: C_3  and  C_9
REMARK    2  A    between atoms: C_4  and  C_21
REMARK    3  A    between atoms: N_8  and  C_11
REMARK    4  A    between atoms: C_11  and  C_12
REMARK    5  A    between atoms: N_20  and  C_23
REMARK    6  A    between atoms: C_23  and  C_24
REMARK                            x       y       z     vdW  Elec       q    Type
REMARK                         _______ _______ _______ _____ _____    ______ ____
ROOT
ATOM      1  N   UNL     1      37.919 -23.676 -15.004  0.00  0.00    -0.244 NA
ATOM      2  N   UNL     1      36.480 -24.664 -13.343  0.00  0.00    -0.244 NA
ATOM      3  C   UNL     1      36.912 -22.835 -15.321  0.00  0.00    +0.115 C 
ATOM      4  C   UNL     1      35.547 -23.791 -13.727  0.00  0.00    +0.115 C 
ATOM      5  C   UNL     1      35.678 -22.848 -14.703  0.00  0.00    +0.100 C 
ATOM      6  C   UNL     1      37.638 -24.551 -14.020  0.00  0.00    +0.250 C 
ENDROOT
BRANCH   3   9
ATOM      7  O   UNL     1      37.940 -20.907 -16.174  0.00  0.00    -0.269 OA
ATOM      8  N   UNL     1      36.610 -22.128 -17.630  0.00  0.00    -0.296 N 
ATOM      9  C   UNL     1      37.194 -21.881 -16.381  0.00  0.00    +0.260 C 
ATOM     10  H   UNL     1      36.029 -22.917 -17.726  0.00  0.00    +0.150 HD
BRANCH   8  11
ATOM     11  C   UNL     1      36.813 -21.286 -18.787  0.00  0.00    +0.117 C 
BRANCH  11  12
ATOM     12  C   UNL     1      35.520 -20.952 -19.473  0.00  0.00    -0.003 C 
ATOM     13  C   UNL     1      35.537 -20.209 -20.647  0.00  0.00    -0.007 C 
ATOM     14  C   UNL     1      34.336 -19.900 -21.286  0.00  0.00    -0.022 C 
ATOM     15  C   UNL     1      34.319 -21.390 -18.927  0.00  0.00    -0.003 C 
ATOM     16  C   UNL     1      33.126 -20.335 -20.744  0.00  0.00    -0.004 C 
ATOM     17  C   UNL     1      33.118 -21.081 -19.565  0.00  0.00    -0.001 C 
ATOM     18  C   UNL     1      34.344 -19.102 -22.546  0.00  0.00    +0.031 C 
ENDBRANCH  11  12
ENDBRANCH   8  11
ENDBRANCH   3   9
BRANCH   4  21
ATOM     19  O   UNL     1      34.200 -24.604 -11.988  0.00  0.00    -0.269 OA
ATOM     20  N   UNL     1      33.205 -23.154 -13.500  0.00  0.00    -0.296 N 
ATOM     21  C   UNL     1      34.261 -23.899 -12.992  0.00  0.00    +0.260 C 
ATOM     22  H   UNL     1      33.352 -22.618 -14.313  0.00  0.00    +0.150 HD
BRANCH  20  23
ATOM     23  C   UNL     1      31.902 -23.135 -12.885  0.00  0.00    +0.117 C 
BRANCH  23  24
ATOM     24  C   UNL     1      30.863 -23.780 -13.738  0.00  0.00    -0.003 C 
ATOM     25  C   UNL     1      30.009 -22.994 -14.510  0.00  0.00    -0.007 C 
ATOM     26  C   UNL     1      29.036 -23.597 -15.310  0.00  0.00    -0.022 C 
ATOM     27  C   UNL     1      30.745 -25.170 -13.764  0.00  0.00    -0.003 C 
ATOM     28  C   UNL     1      28.920 -24.986 -15.335  0.00  0.00    -0.004 C 
ATOM     29  C   UNL     1      29.774 -25.773 -14.562  0.00  0.00    -0.001 C 
ATOM     30  C   UNL     1      28.123 -22.756 -16.136  0.00  0.00    +0.031 C 
ENDBRANCH  23  24
ENDBRANCH  20  23
ENDBRANCH   4  21
TORSDOF 6
ENDMDL
MODEL 6
REMARK VINA RESULT:     -11.3      6.344     12.381
REMARK  Name = 5289109
REMARK  6 active torsions:
REMARK  status: ('A' for Active; 'I' for Inactive)
REMARK    1  A    between atoms: C_3  and  C_9
REMARK    2  A    between atoms: C_4  and  C_21
REMARK    3  A    between atoms: N_8  and  C_11
REMARK    4  A    between atoms: C_11  and  C_12
REMARK    5  A    between atoms: N_20  and  C_23
REMARK    6  A    between atoms: C_23  and  C_24
REMARK                            x       y       z     vdW  Elec       q    Type
REMARK                         _______ _______ _______ _____ _____    ______ ____
ROOT
ATOM      1  N   UNL     1      30.624 -24.397 -14.845  0.00  0.00    -0.244 NA
ATOM      2  N   UNL     1      31.920 -25.106 -12.942  0.00  0.00    -0.244 NA
ATOM      3  C   UNL     1      31.686 -23.669 -15.249  0.00  0.00    +0.115 C 
ATOM      4  C   UNL     1      32.914 -24.356 -13.422  0.00  0.00    +0.115 C 
ATOM      5  C   UNL     1      32.882 -23.609 -14.562  0.00  0.00    +0.100 C 
ATOM      6  C   UNL     1      30.809 -25.082 -13.700  0.00  0.00    +0.250 C 
ENDROOT
BRANCH   3   9
ATOM      7  O   UNL     1      30.398 -22.451 -16.784  0.00  0.00    -0.269 OA
ATOM      8  N   UNL     1      32.642 -22.746 -17.288  0.00  0.00    -0.296 N 
ATOM      9  C   UNL     1      31.509 -22.922 -16.483  0.00  0.00    +0.260 C 
ATOM     10  H   UNL     1      33.491 -23.146 -16.992  0.00  0.00    +0.150 HD
BRANCH   8  11
ATOM     11  C   UNL     1      32.632 -22.009 -18.531  0.00  0.00    +0.117 C 
BRANCH  11  12
ATOM     12  C   UNL     1      34.006 -21.546 -18.921  0.00  0.00    -0.003 C 
ATOM     13  C   UNL     1      34.155 -20.624 -19.949  0.00  0.00    -0.007 C 
ATOM     14  C   UNL     1      35.431 -20.192 -20.310  0.00  0.00    -0.022 C 
ATOM     15  C   UNL     1      35.116 -22.044 -18.248  0.00  0.00    -0.003 C 
ATOM     16  C   UNL     1      36.551 -20.687 -19.640  0.00  0.00    -0.004 C 
ATOM     17  C   UNL     1      36.392 -21.613 -18.608  0.00  0.00    -0.001 C 
ATOM     18  C   UNL     1      35.601 -19.203 -21.414  0.00  0.00    +0.031 C 
ENDBRANCH  11  12
ENDBRANCH   8  11
ENDBRANCH   3   9
BRANCH   4  21
ATOM     19  O   UNL     1      34.208 -23.669 -11.590  0.00  0.00    -0.269 OA
ATOM     20  N   UNL     1      35.163 -25.212 -13.035  0.00  0.00    -0.296 N 
ATOM     21  C   UNL     1      34.151 -24.369 -12.599  0.00  0.00    +0.260 C 
ATOM     22  H   UNL     1      35.023 -25.734 -13.858  0.00  0.00    +0.150 HD
BRANCH  20  23
ATOM     23  C   UNL     1      36.412 -25.353 -12.330  0.00  0.00    +0.117 C 
BRANCH  23  24
ATOM     24  C   UNL     1      37.592 -25.172 -13.226  0.00  0.00    -0.003 C 
ATOM     25  C   UNL     1      38.703 -26.004 -13.090  0.00  0.00    -0.007 C 
ATOM     26  C   UNL     1      39.807 -25.836 -13.928  0.00  0.00    -0.022 C 
ATOM     27  C   UNL     1      37.583 -24.174 -14.199  0.00  0.00    -0.003 C 
ATOM     28  C   UNL     1      39.797 -24.837 -14.901  0.00  0.00    -0.004 C 
ATOM     29  C   UNL     1      38.685 -24.005 -15.037  0.00  0.00    -0.001 C 
ATOM     30  C   UNL     1      40.996 -26.724 -13.782  0.00  0.00    +0.031 C 
ENDBRANCH  23  24
ENDBRANCH  20  23
ENDBRANCH   4  21
TORSDOF 6
ENDMDL
MODEL 7
REMARK VINA RESULT:     -11.3      2.614     10.871
REMARK  Name = 5289109
REMARK  6 active torsions:
REMARK  status: ('A' for Active; 'I' for Inactive)
REMARK    1  A    between atoms: C_3  and  C_9
REMARK    2  A    between atoms: C_4  and  C_21
REMARK    3  A    between atoms: N_8  and  C_11
REMARK    4  A    between atoms: C_11  and  C_12
REMARK    5  A    between atoms: N_20  and  C_23
REMARK    6  A    between atoms: C_23  and  C_24
REMARK                            x       y       z     vdW  Elec       q    Type
REMARK                         _______ _______ _______ _____ _____    ______ ____
ROOT
ATOM      1  N   UNL     1      33.073 -11.701 -22.608  0.00  0.00    -0.244 NA
ATOM      2  N   UNL     1      32.945 -14.103 -22.481  0.00  0.00    -0.244 NA
ATOM      3  C   UNL     1      33.823 -11.836 -23.721  0.00  0.00    +0.115 C 
ATOM      4  C   UNL     1      33.693 -14.135 -23.587  0.00  0.00    +0.115 C 
ATOM      5  C   UNL     1      34.172 -13.055 -24.267  0.00  0.00    +0.100 C 
ATOM      6  C   UNL     1      32.673 -12.858 -22.048  0.00  0.00    +0.250 C 
ENDROOT
BRANCH   3   9
ATOM      7  O   UNL     1      34.520 -10.557 -25.558  0.00  0.00    -0.269 OA
ATOM      8  N   UNL     1      34.363  -9.472 -23.514  0.00  0.00    -0.296 N 
ATOM      9  C   UNL     1      34.265 -10.599 -24.341  0.00  0.00    +0.260 C 
ATOM     10  H   UNL     1      34.146  -9.575 -22.560  0.00  0.00    +0.150 HD
BRANCH   8  11
ATOM     11  C   UNL     1      34.764  -8.167 -23.987  0.00  0.00    +0.117 C 
BRANCH  11  12
ATOM     12  C   UNL     1      33.924  -7.072 -23.395  0.00  0.00    -0.003 C 
ATOM     13  C   UNL     1      33.387  -7.230 -22.123  0.00  0.00    -0.007 C 
ATOM     14  C   UNL     1      32.608  -6.212 -21.572  0.00  0.00    -0.022 C 
ATOM     15  C   UNL     1      33.693  -5.912 -24.125  0.00  0.00    -0.003 C 
ATOM     16  C   UNL     1      32.371  -5.044 -22.298  0.00  0.00    -0.004 C 
ATOM     17  C   UNL     1      32.914  -4.894 -23.574  0.00  0.00    -0.001 C 
ATOM     18  C   UNL     1      32.026  -6.372 -20.208  0.00  0.00    +0.031 C 
ENDBRANCH  11  12
ENDBRANCH   8  11
ENDBRANCH   3   9
BRANCH   4  21
ATOM     19  O   UNL     1      33.716 -15.801 -25.237  0.00  0.00    -0.269 OA
ATOM     20  N   UNL     1      34.639 -16.344 -23.180  0.00  0.00    -0.296 N 
ATOM     21  C   UNL     1      34.005 -15.500 -24.081  0.00  0.00    +0.260 C 
ATOM     22  H   UNL     1      34.829 -16.011 -22.273  0.00  0.00    +0.150 HD
BRANCH  20  23
ATOM     23  C   UNL     1      35.029 -17.689 -23.519  0.00  0.00    +0.117 C 
BRANCH  23  24
ATOM     24  C   UNL     1      35.419 -18.485 -22.319  0.00  0.00    -0.003 C 
ATOM     25  C   UNL     1      34.473 -19.281 -21.673  0.00  0.00    -0.007 C 
ATOM     26  C   UNL     1      34.838 -20.027 -20.551  0.00  0.00    -0.022 C 
ATOM     27  C   UNL     1      36.729 -18.435 -21.844  0.00  0.00    -0.003 C 
ATOM     28  C   UNL     1      36.148 -19.976 -20.077  0.00  0.00    -0.004 C 
ATOM     29  C   UNL     1      37.094 -19.180 -20.723  0.00  0.00    -0.001 C 
ATOM     30  C   UNL     1      33.826 -20.877 -19.859  0.00  0.00    +0.031 C 
ENDBRANCH  23  24
ENDBRANCH  20  23
ENDBRANCH   4  21
TORSDOF 6
ENDMDL
MODEL 8
REMARK VINA RESULT:     -11.3      6.328      9.930
REMARK  Name = 5289109
REMARK  6 active torsions:
REMARK  status: ('A' for Active; 'I' for Inactive)
REMARK    1  A    between atoms: C_3  and  C_9
REMARK    2  A    between atoms: C_4  and  C_21
REMARK    3  A    between atoms: N_8  and  C_11
REMARK    4  A    between atoms: C_11  and  C_12
REMARK    5  A    between atoms: N_20  and  C_23
REMARK    6  A    between atoms: C_23  and  C_24
REMARK                            x       y       z     vdW  Elec       q    Type
REMARK                         _______ _______ _______ _____ _____    ______ ____
ROOT
ATOM      1  N   UNL     1      31.901 -25.076 -12.967  0.00  0.00    -0.244 NA
ATOM      2  N   UNL     1      30.622 -24.398 -14.894  0.00  0.00    -0.244 NA
ATOM      3  C   UNL     1      32.919 -24.316 -13.423  0.00  0.00    +0.115 C 
ATOM      4  C   UNL     1      31.682 -23.677 -15.262  0.00  0.00    +0.115 C 
ATOM      5  C   UNL     1      32.865 -23.580 -14.590  0.00  0.00    +0.100 C 
ATOM      6  C   UNL     1      30.798 -25.070 -13.741  0.00  0.00    +0.250 C 
ENDROOT
BRANCH   3   9
ATOM      7  O   UNL     1      34.174 -23.617 -11.570  0.00  0.00    -0.269 OA
ATOM      8  N   UNL     1      35.179 -25.122 -13.019  0.00  0.00    -0.296 N 
ATOM      9  C   UNL     1      34.118 -24.307 -12.603  0.00  0.00    +0.260 C 
ATOM     10  H   UNL     1      35.070 -25.643 -13.847  0.00  0.00    +0.150 HD
BRANCH   8  11
ATOM     11  C   UNL     1      36.427 -25.240 -12.299  0.00  0.00    +0.117 C 
BRANCH  11  12
ATOM     12  C   UNL     1      37.615 -25.114 -13.209  0.00  0.00    -0.003 C 
ATOM     13  C   UNL     1      38.697 -25.971 -13.048  0.00  0.00    -0.007 C 
ATOM     14  C   UNL     1      39.799 -25.856 -13.895  0.00  0.00    -0.022 C 
ATOM     15  C   UNL     1      37.620 -24.143 -14.204  0.00  0.00    -0.003 C 
ATOM     16  C   UNL     1      39.813 -24.884 -14.895  0.00  0.00    -0.004 C 
ATOM     17  C   UNL     1      38.722 -24.028 -15.050  0.00  0.00    -0.001 C 
ATOM     18  C   UNL     1      40.966 -26.770 -13.730  0.00  0.00    +0.031 C 
ENDBRANCH  11  12
ENDBRANCH   8  11
ENDBRANCH   3   9
BRANCH   4  21
ATOM     19  O   UNL     1      30.399 -22.488 -16.824  0.00  0.00    -0.269 OA
ATOM     20  N   UNL     1      32.652 -22.761 -17.302  0.00  0.00    -0.296 N 
ATOM     21  C   UNL     1      31.509 -22.928 -16.533  0.00  0.00    +0.260 C 
ATOM     22  H   UNL     1      33.497 -23.152 -16.984  0.00  0.00    +0.150 HD
BRANCH  20  23
ATOM     23  C   UNL     1      32.650 -22.036 -18.548  0.00  0.00    +0.117 C 
BRANCH  23  24
ATOM     24  C   UNL     1      34.010 -21.556 -18.926  0.00  0.00    -0.003 C 
ATOM     25  C   UNL     1      34.159 -20.618 -19.947  0.00  0.00    -0.007 C 
ATOM     26  C   UNL     1      35.432 -20.168 -20.302  0.00  0.00    -0.022 C 
ATOM     27  C   UNL     1      35.134 -22.045 -18.259  0.00  0.00    -0.003 C 
ATOM     28  C   UNL     1      36.554 -20.657 -19.634  0.00  0.00    -0.004 C 
ATOM     29  C   UNL     1      36.406 -21.595 -18.613  0.00  0.00    -0.001 C 
ATOM     30  C   UNL     1      35.591 -19.165 -21.394  0.00  0.00    +0.031 C 
ENDBRANCH  23  24
ENDBRANCH  20  23
ENDBRANCH   4  21
TORSDOF 6
ENDMDL
MODEL 9
REMARK VINA RESULT:     -11.3      2.586      5.181
REMARK  Name = 5289109
REMARK  6 active torsions:
REMARK  status: ('A' for Active; 'I' for Inactive)
REMARK    1  A    between atoms: C_3  and  C_9
REMARK    2  A    between atoms: C_4  and  C_21
REMARK    3  A    between atoms: N_8  and  C_11
REMARK    4  A    between atoms: C_11  and  C_12
REMARK    5  A    between atoms: N_20  and  C_23
REMARK    6  A    between atoms: C_23  and  C_24
REMARK                            x       y       z     vdW  Elec       q    Type
REMARK                         _______ _______ _______ _____ _____    ______ ____
ROOT
ATOM      1  N   UNL     1      33.079 -14.234 -22.405  0.00  0.00    -0.244 NA
ATOM      2  N   UNL     1      33.178 -11.836 -22.611  0.00  0.00    -0.244 NA
ATOM      3  C   UNL     1      33.775 -14.325 -23.558  0.00  0.00    +0.115 C 
ATOM      4  C   UNL     1      33.861 -12.027 -23.741  0.00  0.00    +0.115 C 
ATOM      5  C   UNL     1      34.200 -13.231 -24.284  0.00  0.00    +0.100 C 
ATOM      6  C   UNL     1      32.820 -12.978 -21.995  0.00  0.00    +0.250 C 
ENDROOT
BRANCH   3   9
ATOM      7  O   UNL     1      33.743 -16.033 -25.164  0.00  0.00    -0.269 OA
ATOM      8  N   UNL     1      34.738 -16.517 -23.126  0.00  0.00    -0.296 N 
ATOM      9  C   UNL     1      34.066 -15.672 -24.018  0.00  0.00    +0.260 C 
ATOM     10  H   UNL     1      34.964 -16.169 -22.234  0.00  0.00    +0.150 HD
BRANCH   8  11
ATOM     11  C   UNL     1      35.118 -17.875 -23.444  0.00  0.00    +0.117 C 
BRANCH  11  12
ATOM     12  C   UNL     1      35.511 -18.650 -22.220  0.00  0.00    -0.003 C 
ATOM     13  C   UNL     1      34.571 -19.451 -21.583  0.00  0.00    -0.007 C 
ATOM     14  C   UNL     1      34.937 -20.173 -20.447  0.00  0.00    -0.022 C 
ATOM     15  C   UNL     1      36.811 -18.559 -21.736  0.00  0.00    -0.003 C 
ATOM     16  C   UNL     1      36.239 -20.087 -19.954  0.00  0.00    -0.004 C 
ATOM     17  C   UNL     1      37.176 -19.280 -20.600  0.00  0.00    -0.001 C 
ATOM     18  C   UNL     1      33.934 -21.035 -19.756  0.00  0.00    +0.031 C 
ENDBRANCH  11  12
ENDBRANCH   8  11
ENDBRANCH   3   9
BRANCH   4  21
ATOM     19  O   UNL     1      34.275 -10.751 -25.665  0.00  0.00    -0.269 OA
ATOM     20  N   UNL     1      34.588  -9.704 -23.619  0.00  0.00    -0.296 N 
ATOM     21  C   UNL     1      34.266 -10.778 -24.437  0.00  0.00    +0.260 C 
ATOM     22  H   UNL     1      34.551  -9.824 -22.643  0.00  0.00    +0.150 HD
BRANCH  20  23
ATOM     23  C   UNL     1      34.975  -8.419 -24.144  0.00  0.00    +0.117 C 
BRANCH  23  24
ATOM     24  C   UNL     1      34.171  -7.304 -23.564  0.00  0.00    -0.003 C 
ATOM     25  C   UNL     1      33.623  -7.432 -22.288  0.00  0.00    -0.007 C 
ATOM     26  C   UNL     1      32.871  -6.389 -21.744  0.00  0.00    -0.022 C 
ATOM     27  C   UNL     1      33.968  -6.135 -24.297  0.00  0.00    -0.003 C 
ATOM     28  C   UNL     1      32.669  -5.220 -22.478  0.00  0.00    -0.004 C 
ATOM     29  C   UNL     1      33.217  -5.093 -23.754  0.00  0.00    -0.001 C 
ATOM     30  C   UNL     1      32.284  -6.525 -20.380  0.00  0.00    +0.031 C 
ENDBRANCH  23  24
ENDBRANCH  20  23
ENDBRANCH   4  21
TORSDOF 6
ENDMDL
