MODEL 1
REMARK VINA RESULT:     -11.9      0.000      0.000
REMARK  Name = 9810927
REMARK  6 active torsions:
REMARK  status: ('A' for Active; 'I' for Inactive)
REMARK    1  A    between atoms: N_1  and  C_13
REMARK    2  A    between atoms: C_11  and  O_24
REMARK    3  A    between atoms: C_12  and  O_26
REMARK    4  A    between atoms: C_14  and  C_18
REMARK    5  A    between atoms: C_19  and  C_20
REMARK    6  A    between atoms: N_28  and  C_32
REMARK                            x       y       z     vdW  Elec       q    Type
REMARK                         _______ _______ _______ _____ _____    ______ ____
ROOT
ATOM      1  N   UNL     1      36.386 -23.430 -15.516  0.00  0.00    -0.247 N 
ATOM      2  N   UNL     1      37.466 -21.833 -16.639  0.00  0.00    -0.242 NA
ATOM      3  N   UNL     1      34.375 -23.599 -16.868  0.00  0.00    -0.228 NA
ATOM      4  N   UNL     1      34.430 -22.037 -18.743  0.00  0.00    -0.228 NA
ATOM      5  C   UNL     1      35.577 -23.088 -16.564  0.00  0.00    +0.152 C 
ATOM      6  C   UNL     1      37.508 -22.648 -15.605  0.00  0.00    +0.223 C 
ATOM      7  C   UNL     1      36.265 -22.098 -17.247  0.00  0.00    +0.140 C 
ATOM      8  C   UNL     1      35.648 -21.568 -18.376  0.00  0.00    +0.150 C 
ATOM      9  C   UNL     1      33.878 -23.009 -17.977  0.00  0.00    +0.253 C 
ATOM     10  N   UNL     1      36.273 -20.560 -19.130  0.00  0.00    -0.295 N 
ATOM     11  H   UNL     1      37.154 -20.293 -18.778  0.00  0.00    +0.154 HD
ENDROOT
BRANCH  10  14
ATOM     12 CL   UNL     1      34.664 -17.607 -24.002  0.00  0.00    -0.082 Cl
ATOM     13  F   UNL     1      37.944 -18.661 -20.291  0.00  0.00    -0.203 F 
ATOM     14  C   UNL     1      35.892 -19.856 -20.291  0.00  0.00    +0.077 C 
ATOM     15  C   UNL     1      36.751 -18.910 -20.850  0.00  0.00    +0.154 C 
ATOM     16  C   UNL     1      34.653 -20.106 -20.880  0.00  0.00    +0.018 C 
ATOM     17  C   UNL     1      36.371 -18.214 -21.997  0.00  0.00    +0.042 C 
ATOM     18  C   UNL     1      34.272 -19.411 -22.027  0.00  0.00    +0.013 C 
ATOM     19  C   UNL     1      35.131 -18.465 -22.586  0.00  0.00    +0.060 C 
ENDBRANCH  10  14
BRANCH   1  23
ATOM     20  O   UNL     1      34.702 -24.716 -14.435  0.00  0.00    -0.326 OA
ATOM     21  C   UNL     1      36.545 -24.018 -13.087  0.00  0.00    +0.187 C 
ATOM     22  C   UNL     1      35.242 -23.536 -12.478  0.00  0.00    +0.178 C 
ATOM     23  C   UNL     1      36.116 -24.438 -14.488  0.00  0.00    +0.225 C 
ATOM     24  C   UNL     1      34.226 -24.493 -13.087  0.00  0.00    +0.223 C 
BRANCH  24  28
ATOM     25  O   UNL     1      32.209 -24.098 -14.408  0.00  0.00    -0.421 OA
ATOM     26  N   UNL     1      32.015 -23.535 -12.253  0.00  0.00    -0.109 NA
ATOM     27  N   UNL     1      30.811 -23.260 -12.876  0.00  0.00    -0.112 NA
ATOM     28  C   UNL     1      32.791 -24.019 -13.185  0.00  0.00    +0.255 A 
ATOM     29  C   UNL     1      30.972 -23.604 -14.132  0.00  0.00    +0.225 A 
BRANCH  29  30
ATOM     30  C   UNL     1      30.021 -23.535 -15.250  0.00  0.00    +0.070 C 
ATOM     31  C   UNL     1      29.573 -24.957 -15.750  0.00  0.00    +0.009 C 
ATOM     32  C   UNL     1      30.612 -22.787 -16.500  0.00  0.00    +0.009 C 
ATOM     33  C   UNL     1      28.664 -22.784 -14.956  0.00  0.00    +0.009 C 
ENDBRANCH  29  30
ENDBRANCH  24  28
BRANCH  21  34
ATOM     34  O   UNL     1      37.018 -25.179 -12.407  0.00  0.00    -0.378 OA
ATOM     35  H   UNL     1      36.521 -25.956 -12.711  0.00  0.00    +0.211 HD
ENDBRANCH  21  34
BRANCH  22  36
ATOM     36  O   UNL     1      35.249 -23.597 -11.066  0.00  0.00    -0.379 OA
ATOM     37  H   UNL     1      34.341 -23.514 -10.733  0.00  0.00    +0.211 HD
ENDBRANCH  22  36
ENDBRANCH   1  23
TORSDOF 6
ENDMDL
MODEL 2
REMARK VINA RESULT:     -10.9      2.394      3.212
REMARK  Name = 9810927
REMARK  6 active torsions:
REMARK  status: ('A' for Active; 'I' for Inactive)
REMARK    1  A    between atoms: N_1  and  C_13
REMARK    2  A    between atoms: C_11  and  O_24
REMARK    3  A    between atoms: C_12  and  O_26
REMARK    4  A    between atoms: C_14  and  C_18
REMARK    5  A    between atoms: C_19  and  C_20
REMARK    6  A    between atoms: N_28  and  C_32
REMARK                            x       y       z     vdW  Elec       q    Type
REMARK                         _______ _______ _______ _____ _____    ______ ____
ROOT
ATOM      1  N   UNL     1      35.818 -22.024 -18.235  0.00  0.00    -0.247 N 
ATOM      2  N   UNL     1      36.924 -20.363 -19.232  0.00  0.00    -0.242 NA
ATOM      3  N   UNL     1      33.632 -21.738 -19.258  0.00  0.00    -0.228 NA
ATOM      4  N   UNL     1      33.625 -19.870 -20.828  0.00  0.00    -0.228 NA
ATOM      5  C   UNL     1      34.920 -21.414 -19.068  0.00  0.00    +0.152 C 
ATOM      6  C   UNL     1      37.006 -21.355 -18.370  0.00  0.00    +0.223 C 
ATOM      7  C   UNL     1      35.627 -20.389 -19.676  0.00  0.00    +0.140 C 
ATOM      8  C   UNL     1      34.931 -19.601 -20.587  0.00  0.00    +0.150 C 
ATOM      9  C   UNL     1      33.065 -20.906 -20.158  0.00  0.00    +0.253 C 
ATOM     10  N   UNL     1      35.568 -18.538 -21.251  0.00  0.00    -0.295 N 
ATOM     11  H   UNL     1      36.516 -18.431 -21.004  0.00  0.00    +0.154 HD
ENDROOT
BRANCH  10  14
ATOM     12 CL   UNL     1      33.695 -14.578 -25.233  0.00  0.00    -0.082 Cl
ATOM     13  F   UNL     1      34.802 -19.311 -23.813  0.00  0.00    -0.203 F 
ATOM     14  C   UNL     1      35.121 -17.596 -22.202  0.00  0.00    +0.077 C 
ATOM     15  C   UNL     1      34.745 -18.014 -23.477  0.00  0.00    +0.154 C 
ATOM     16  C   UNL     1      35.058 -16.245 -21.863  0.00  0.00    +0.018 C 
ATOM     17  C   UNL     1      34.303 -17.081 -24.415  0.00  0.00    +0.042 C 
ATOM     18  C   UNL     1      34.618 -15.311 -22.800  0.00  0.00    +0.013 C 
ATOM     19  C   UNL     1      34.240 -15.729 -24.076  0.00  0.00    +0.060 C 
ENDBRANCH  10  14
BRANCH   1  23
ATOM     20  O   UNL     1      34.187 -23.576 -17.466  0.00  0.00    -0.326 OA
ATOM     21  C   UNL     1      35.844 -22.897 -15.888  0.00  0.00    +0.187 C 
ATOM     22  C   UNL     1      34.458 -22.609 -15.344  0.00  0.00    +0.178 C 
ATOM     23  C   UNL     1      35.567 -23.173 -17.361  0.00  0.00    +0.225 C 
ATOM     24  C   UNL     1      33.589 -23.566 -16.149  0.00  0.00    +0.223 C 
BRANCH  24  28
ATOM     25  O   UNL     1      31.239 -23.940 -15.597  0.00  0.00    -0.421 OA
ATOM     26  N   UNL     1      31.581 -22.288 -17.066  0.00  0.00    -0.109 NA
ATOM     27  N   UNL     1      30.219 -22.390 -16.848  0.00  0.00    -0.112 NA
ATOM     28  C   UNL     1      32.127 -23.209 -16.317  0.00  0.00    +0.255 A 
ATOM     29  C   UNL     1      30.067 -23.366 -15.984  0.00  0.00    +0.225 A 
BRANCH  29  30
ATOM     30  C   UNL     1      28.836 -23.907 -15.392  0.00  0.00    +0.070 C 
ATOM     31  C   UNL     1      29.124 -24.986 -14.285  0.00  0.00    +0.009 C 
ATOM     32  C   UNL     1      27.906 -24.597 -16.457  0.00  0.00    +0.009 C 
ATOM     33  C   UNL     1      27.896 -22.860 -14.677  0.00  0.00    +0.009 C 
ENDBRANCH  29  30
ENDBRANCH  24  28
BRANCH  21  34
ATOM     34  O   UNL     1      36.373 -24.089 -15.311  0.00  0.00    -0.378 OA
ATOM     35  H   UNL     1      37.109 -24.412 -15.855  0.00  0.00    +0.211 HD
ENDBRANCH  21  34
BRANCH  22  36
ATOM     36  O   UNL     1      34.362 -22.847 -13.953  0.00  0.00    -0.379 OA
ATOM     37  H   UNL     1      33.647 -22.306 -13.581  0.00  0.00    +0.211 HD
ENDBRANCH  22  36
ENDBRANCH   1  23
TORSDOF 6
ENDMDL
MODEL 3
REMARK VINA RESULT:     -10.6      5.789     10.201
REMARK  Name = 9810927
REMARK  6 active torsions:
REMARK  status: ('A' for Active; 'I' for Inactive)
REMARK    1  A    between atoms: N_1  and  C_13
REMARK    2  A    between atoms: C_11  and  O_24
REMARK    3  A    between atoms: C_12  and  O_26
REMARK    4  A    between atoms: C_14  and  C_18
REMARK    5  A    between atoms: C_19  and  C_20
REMARK    6  A    between atoms: N_28  and  C_32
REMARK                            x       y       z     vdW  Elec       q    Type
REMARK                         _______ _______ _______ _____ _____    ______ ____
ROOT
ATOM      1  N   UNL     1      34.308 -20.197 -20.898  0.00  0.00    -0.247 N 
ATOM      2  N   UNL     1      32.343 -20.649 -19.943  0.00  0.00    -0.242 NA
ATOM      3  N   UNL     1      35.792 -21.344 -19.353  0.00  0.00    -0.228 NA
ATOM      4  N   UNL     1      34.542 -22.416 -17.552  0.00  0.00    -0.228 NA
ATOM      5  C   UNL     1      34.587 -20.949 -19.790  0.00  0.00    +0.152 C 
ATOM      6  C   UNL     1      32.947 -20.044 -20.945  0.00  0.00    +0.223 C 
ATOM      7  C   UNL     1      33.356 -21.219 -19.214  0.00  0.00    +0.140 C 
ATOM      8  C   UNL     1      33.360 -21.983 -18.052  0.00  0.00    +0.150 C 
ATOM      9  C   UNL     1      35.669 -22.074 -18.224  0.00  0.00    +0.253 C 
ATOM     10  N   UNL     1      32.156 -22.305 -17.400  0.00  0.00    -0.295 N 
ATOM     11  H   UNL     1      31.357 -21.943 -17.847  0.00  0.00    +0.154 HD
ENDROOT
BRANCH  10  14
ATOM     12 CL   UNL     1      30.947 -25.410 -12.507  0.00  0.00    -0.082 Cl
ATOM     13  F   UNL     1      29.534 -22.798 -16.608  0.00  0.00    -0.203 F 
ATOM     14  C   UNL     1      31.866 -23.045 -16.234  0.00  0.00    +0.077 C 
ATOM     15  C   UNL     1      30.542 -23.275 -15.864  0.00  0.00    +0.154 C 
ATOM     16  C   UNL     1      32.906 -23.545 -15.453  0.00  0.00    +0.018 C 
ATOM     17  C   UNL     1      30.257 -24.007 -14.711  0.00  0.00    +0.042 C 
ATOM     18  C   UNL     1      32.623 -24.276 -14.299  0.00  0.00    +0.013 C 
ATOM     19  C   UNL     1      31.298 -24.508 -13.929  0.00  0.00    +0.060 C 
ENDBRANCH  10  14
BRANCH   1  23
ATOM     20  O   UNL     1      35.572 -18.282 -21.527  0.00  0.00    -0.326 OA
ATOM     21  C   UNL     1      34.781 -19.671 -23.300  0.00  0.00    +0.187 C 
ATOM     22  C   UNL     1      34.294 -18.248 -23.497  0.00  0.00    +0.178 C 
ATOM     23  C   UNL     1      35.273 -19.653 -21.858  0.00  0.00    +0.225 C 
ATOM     24  C   UNL     1      35.295 -17.446 -22.675  0.00  0.00    +0.223 C 
BRANCH  24  28
ATOM     25  O   UNL     1      34.257 -15.267 -23.053  0.00  0.00    -0.421 OA
ATOM     26  N   UNL     1      34.956 -15.596 -20.953  0.00  0.00    -0.109 NA
ATOM     27  N   UNL     1      34.395 -14.333 -21.024  0.00  0.00    -0.112 NA
ATOM     28  C   UNL     1      34.851 -16.095 -22.156  0.00  0.00    +0.255 A 
ATOM     29  C   UNL     1      34.002 -14.185 -22.267  0.00  0.00    +0.225 A 
BRANCH  29  30
ATOM     30  C   UNL     1      33.338 -13.043 -22.909  0.00  0.00    +0.070 C 
ATOM     31  C   UNL     1      32.051 -12.579 -22.133  0.00  0.00    +0.009 C 
ATOM     32  C   UNL     1      32.883 -13.357 -24.381  0.00  0.00    +0.009 C 
ATOM     33  C   UNL     1      34.202 -11.729 -23.043  0.00  0.00    +0.009 C 
ENDBRANCH  29  30
ENDBRANCH  24  28
BRANCH  21  34
ATOM     34  O   UNL     1      35.902 -19.938 -24.142  0.00  0.00    -0.378 OA
ATOM     35  H   UNL     1      36.608 -20.349 -23.617  0.00  0.00    +0.211 HD
ENDBRANCH  21  34
BRANCH  22  36
ATOM     36  O   UNL     1      34.290 -17.859 -24.856  0.00  0.00    -0.379 OA
ATOM     37  H   UNL     1      33.405 -17.996 -25.229  0.00  0.00    +0.211 HD
ENDBRANCH  22  36
ENDBRANCH   1  23
TORSDOF 6
ENDMDL
MODEL 4
REMARK VINA RESULT:     -10.5      6.448      9.121
REMARK  Name = 9810927
REMARK  6 active torsions:
REMARK  status: ('A' for Active; 'I' for Inactive)
REMARK    1  A    between atoms: N_1  and  C_13
REMARK    2  A    between atoms: C_11  and  O_24
REMARK    3  A    between atoms: C_12  and  O_26
REMARK    4  A    between atoms: C_14  and  C_18
REMARK    5  A    between atoms: C_19  and  C_20
REMARK    6  A    between atoms: N_28  and  C_32
REMARK                            x       y       z     vdW  Elec       q    Type
REMARK                         _______ _______ _______ _____ _____    ______ ____
ROOT
ATOM      1  N   UNL     1      35.091 -16.598 -22.019  0.00  0.00    -0.247 N 
ATOM      2  N   UNL     1      34.423 -14.899 -20.737  0.00  0.00    -0.242 NA
ATOM      3  N   UNL     1      34.517 -15.715 -24.208  0.00  0.00    -0.228 NA
ATOM      4  N   UNL     1      33.526 -13.491 -24.037  0.00  0.00    -0.228 NA
ATOM      5  C   UNL     1      34.594 -15.651 -22.871  0.00  0.00    +0.152 C 
ATOM      6  C   UNL     1      34.965 -16.099 -20.749  0.00  0.00    +0.223 C 
ATOM      7  C   UNL     1      34.187 -14.607 -22.056  0.00  0.00    +0.140 C 
ATOM      8  C   UNL     1      33.635 -13.496 -22.687  0.00  0.00    +0.150 C 
ATOM      9  C   UNL     1      33.967 -14.586 -24.704  0.00  0.00    +0.253 C 
ATOM     10  N   UNL     1      33.195 -12.390 -21.938  0.00  0.00    -0.295 N 
ATOM     11  H   UNL     1      33.322 -12.495 -20.967  0.00  0.00    +0.154 HD
ENDROOT
BRANCH  10  14
ATOM     12 CL   UNL     1      30.745  -7.223 -23.469  0.00  0.00    -0.082 Cl
ATOM     13  F   UNL     1      30.822 -11.513 -20.780  0.00  0.00    -0.203 F 
ATOM     14  C   UNL     1      32.610 -11.159 -22.301  0.00  0.00    +0.077 C 
ATOM     15  C   UNL     1      31.420 -10.747 -21.703  0.00  0.00    +0.154 C 
ATOM     16  C   UNL     1      33.224 -10.354 -23.261  0.00  0.00    +0.018 C 
ATOM     17  C   UNL     1      30.843  -9.529 -22.064  0.00  0.00    +0.042 C 
ATOM     18  C   UNL     1      32.647  -9.138 -23.623  0.00  0.00    +0.013 C 
ATOM     19  C   UNL     1      31.457  -8.724 -23.024  0.00  0.00    +0.060 C 
ENDBRANCH  10  14
BRANCH   1  23
ATOM     20  O   UNL     1      34.710 -18.946 -22.065  0.00  0.00    -0.326 OA
ATOM     21  C   UNL     1      36.952 -18.235 -21.661  0.00  0.00    +0.187 C 
ATOM     22  C   UNL     1      36.479 -19.132 -20.533  0.00  0.00    +0.178 C 
ATOM     23  C   UNL     1      35.652 -17.902 -22.383  0.00  0.00    +0.225 C 
ATOM     24  C   UNL     1      35.344 -19.907 -21.190  0.00  0.00    +0.223 C 
BRANCH  24  28
ATOM     25  O   UNL     1      34.660 -21.443 -19.418  0.00  0.00    -0.421 OA
ATOM     26  N   UNL     1      33.003 -20.169 -20.214  0.00  0.00    -0.109 NA
ATOM     27  N   UNL     1      32.479 -20.984 -19.227  0.00  0.00    -0.112 NA
ATOM     28  C   UNL     1      34.271 -20.475 -20.285  0.00  0.00    +0.255 A 
ATOM     29  C   UNL     1      33.481 -21.710 -18.791  0.00  0.00    +0.225 A 
BRANCH  29  30
ATOM     30  C   UNL     1      33.505 -22.741 -17.745  0.00  0.00    +0.070 C 
ATOM     31  C   UNL     1      33.695 -24.189 -18.330  0.00  0.00    +0.009 C 
ATOM     32  C   UNL     1      32.182 -22.771 -16.897  0.00  0.00    +0.009 C 
ATOM     33  C   UNL     1      34.652 -22.605 -16.669  0.00  0.00    +0.009 C 
ENDBRANCH  29  30
ENDBRANCH  24  28
BRANCH  21  34
ATOM     34  O   UNL     1      37.781 -18.962 -22.566  0.00  0.00    -0.378 OA
ATOM     35  H   UNL     1      38.556 -18.424 -22.798  0.00  0.00    +0.211 HD
ENDBRANCH  21  34
BRANCH  22  36
ATOM     36  O   UNL     1      37.499 -19.986 -20.056  0.00  0.00    -0.379 OA
ATOM     37  H   UNL     1      38.347 -19.730 -20.453  0.00  0.00    +0.211 HD
ENDBRANCH  22  36
ENDBRANCH   1  23
TORSDOF 6
ENDMDL
MODEL 5
REMARK VINA RESULT:     -10.4     12.366     16.583
REMARK  Name = 9810927
REMARK  6 active torsions:
REMARK  status: ('A' for Active; 'I' for Inactive)
REMARK    1  A    between atoms: N_1  and  C_13
REMARK    2  A    between atoms: C_11  and  O_24
REMARK    3  A    between atoms: C_12  and  O_26
REMARK    4  A    between atoms: C_14  and  C_18
REMARK    5  A    between atoms: C_19  and  C_20
REMARK    6  A    between atoms: N_28  and  C_32
REMARK                            x       y       z     vdW  Elec       q    Type
REMARK                         _______ _______ _______ _____ _____    ______ ____
ROOT
ATOM      1  N   UNL     1      31.956  -8.970 -22.325  0.00  0.00    -0.247 N 
ATOM      2  N   UNL     1      33.281 -10.095 -23.724  0.00  0.00    -0.242 NA
ATOM      3  N   UNL     1      31.325 -10.767 -20.818  0.00  0.00    -0.228 NA
ATOM      4  N   UNL     1      32.363 -12.878 -21.467  0.00  0.00    -0.228 NA
ATOM      5  C   UNL     1      31.971 -10.262 -21.879  0.00  0.00    +0.152 C 
ATOM      6  C   UNL     1      32.758  -8.921 -23.436  0.00  0.00    +0.223 C 
ATOM      7  C   UNL     1      32.798 -10.942 -22.759  0.00  0.00    +0.140 C 
ATOM      8  C   UNL     1      32.986 -12.300 -22.523  0.00  0.00    +0.150 C 
ATOM      9  C   UNL     1      31.582 -12.087 -20.692  0.00  0.00    +0.253 C 
ATOM     10  N   UNL     1      33.810 -13.068 -23.365  0.00  0.00    -0.295 N 
ATOM     11  H   UNL     1      34.214 -12.551 -24.099  0.00  0.00    +0.154 HD
ENDROOT
BRANCH  10  14
ATOM     12 CL   UNL     1      35.335 -18.788 -23.363  0.00  0.00    -0.082 Cl
ATOM     13  F   UNL     1      33.501 -14.650 -25.634  0.00  0.00    -0.203 F 
ATOM     14  C   UNL     1      34.173 -14.431 -23.367  0.00  0.00    +0.077 C 
ATOM     15  C   UNL     1      34.006 -15.198 -24.519  0.00  0.00    +0.154 C 
ATOM     16  C   UNL     1      34.698 -15.011 -22.213  0.00  0.00    +0.018 C 
ATOM     17  C   UNL     1      34.365 -16.545 -24.518  0.00  0.00    +0.042 C 
ATOM     18  C   UNL     1      35.057 -16.358 -22.211  0.00  0.00    +0.013 C 
ATOM     19  C   UNL     1      34.892 -17.126 -23.364  0.00  0.00    +0.060 C 
ENDBRANCH  10  14
BRANCH   1  23
ATOM     20  O   UNL     1      30.846  -6.913 -22.771  0.00  0.00    -0.326 OA
ATOM     21  C   UNL     1      32.028  -7.064 -20.702  0.00  0.00    +0.187 C 
ATOM     22  C   UNL     1      32.532  -5.879 -21.505  0.00  0.00    +0.178 C 
ATOM     23  C   UNL     1      31.226  -7.844 -21.738  0.00  0.00    +0.225 C 
ATOM     24  C   UNL     1      31.364  -5.603 -22.443  0.00  0.00    +0.223 C 
BRANCH  24  28
ATOM     25  O   UNL     1      32.903  -5.094 -24.271  0.00  0.00    -0.421 OA
ATOM     26  N   UNL     1      30.905  -4.104 -24.454  0.00  0.00    -0.109 NA
ATOM     27  N   UNL     1      31.669  -3.731 -25.546  0.00  0.00    -0.112 NA
ATOM     28  C   UNL     1      31.668  -4.895 -23.746  0.00  0.00    +0.255 A 
ATOM     29  C   UNL     1      32.825  -4.332 -25.396  0.00  0.00    +0.225 A 
BRANCH  29  30
ATOM     30  C   UNL     1      34.015  -4.299 -26.257  0.00  0.00    +0.070 C 
ATOM     31  C   UNL     1      33.684  -4.635 -27.757  0.00  0.00    +0.009 C 
ATOM     32  C   UNL     1      35.119  -5.322 -25.803  0.00  0.00    +0.009 C 
ATOM     33  C   UNL     1      34.775  -2.917 -26.329  0.00  0.00    +0.009 C 
ENDBRANCH  29  30
ENDBRANCH  24  28
BRANCH  21  34
ATOM     34  O   UNL     1      31.127  -6.633 -19.684  0.00  0.00    -0.378 OA
ATOM     35  H   UNL     1      31.632  -6.339 -18.909  0.00  0.00    +0.211 HD
ENDBRANCH  21  34
BRANCH  22  36
ATOM     36  O   UNL     1      32.836  -4.764 -20.692  0.00  0.00    -0.379 OA
ATOM     37  H   UNL     1      32.339  -4.825 -19.860  0.00  0.00    +0.211 HD
ENDBRANCH  22  36
ENDBRANCH   1  23
TORSDOF 6
ENDMDL
MODEL 6
REMARK VINA RESULT:     -10.3      2.660      4.064
REMARK  Name = 9810927
REMARK  6 active torsions:
REMARK  status: ('A' for Active; 'I' for Inactive)
REMARK    1  A    between atoms: N_1  and  C_13
REMARK    2  A    between atoms: C_11  and  O_24
REMARK    3  A    between atoms: C_12  and  O_26
REMARK    4  A    between atoms: C_14  and  C_18
REMARK    5  A    between atoms: C_19  and  C_20
REMARK    6  A    between atoms: N_28  and  C_32
REMARK                            x       y       z     vdW  Elec       q    Type
REMARK                         _______ _______ _______ _____ _____    ______ ____
ROOT
ATOM      1  N   UNL     1      36.678 -20.869 -18.940  0.00  0.00    -0.247 N 
ATOM      2  N   UNL     1      37.342 -18.875 -19.689  0.00  0.00    -0.242 NA
ATOM      3  N   UNL     1      34.559 -21.066 -20.113  0.00  0.00    -0.228 NA
ATOM      4  N   UNL     1      34.130 -19.109 -21.507  0.00  0.00    -0.228 NA
ATOM      5  C   UNL     1      35.696 -20.434 -19.788  0.00  0.00    +0.152 C 
ATOM      6  C   UNL     1      37.643 -19.897 -18.914  0.00  0.00    +0.223 C 
ATOM      7  C   UNL     1      36.129 -19.198 -20.241  0.00  0.00    +0.140 C 
ATOM      8  C   UNL     1      35.297 -18.530 -21.134  0.00  0.00    +0.150 C 
ATOM      9  C   UNL     1      33.838 -20.323 -20.981  0.00  0.00    +0.253 C 
ATOM     10  N   UNL     1      35.656 -17.271 -21.646  0.00  0.00    -0.295 N 
ATOM     11  H   UNL     1      36.523 -16.942 -21.312  0.00  0.00    +0.154 HD
ENDROOT
BRANCH  10  14
ATOM     12 CL   UNL     1      33.002 -13.560 -25.418  0.00  0.00    -0.082 Cl
ATOM     13  F   UNL     1      34.780 -14.758 -20.831  0.00  0.00    -0.203 F 
ATOM     14  C   UNL     1      35.024 -16.385 -22.544  0.00  0.00    +0.077 C 
ATOM     15  C   UNL     1      34.596 -15.132 -22.105  0.00  0.00    +0.154 C 
ATOM     16  C   UNL     1      34.827 -16.765 -23.871  0.00  0.00    +0.018 C 
ATOM     17  C   UNL     1      33.970 -14.259 -22.994  0.00  0.00    +0.042 C 
ATOM     18  C   UNL     1      34.201 -15.892 -24.760  0.00  0.00    +0.013 C 
ATOM     19  C   UNL     1      33.773 -14.638 -24.322  0.00  0.00    +0.060 C 
ENDBRANCH  10  14
BRANCH   1  23
ATOM     20  O   UNL     1      35.401 -22.751 -18.243  0.00  0.00    -0.326 OA
ATOM     21  C   UNL     1      37.069 -21.969 -16.725  0.00  0.00    +0.187 C 
ATOM     22  C   UNL     1      35.713 -21.984 -16.045  0.00  0.00    +0.178 C 
ATOM     23  C   UNL     1      36.701 -22.130 -18.196  0.00  0.00    +0.225 C 
ATOM     24  C   UNL     1      34.938 -22.985 -16.892  0.00  0.00    +0.223 C 
BRANCH  24  28
ATOM     25  O   UNL     1      32.777 -23.330 -15.806  0.00  0.00    -0.421 OA
ATOM     26  N   UNL     1      32.643 -22.384 -17.829  0.00  0.00    -0.109 NA
ATOM     27  N   UNL     1      31.358 -22.520 -17.335  0.00  0.00    -0.112 NA
ATOM     28  C   UNL     1      33.428 -22.869 -16.904  0.00  0.00    +0.255 A 
ATOM     29  C   UNL     1      31.486 -23.077 -16.154  0.00  0.00    +0.225 A 
BRANCH  29  30
ATOM     30  C   UNL     1      30.452 -23.451 -15.179  0.00  0.00    +0.070 C 
ATOM     31  C   UNL     1      29.083 -22.723 -15.443  0.00  0.00    +0.009 C 
ATOM     32  C   UNL     1      30.863 -23.108 -13.700  0.00  0.00    +0.009 C 
ATOM     33  C   UNL     1      30.072 -24.982 -15.130  0.00  0.00    +0.009 C 
ENDBRANCH  29  30
ENDBRANCH  24  28
BRANCH  21  34
ATOM     34  O   UNL     1      37.837 -23.107 -16.339  0.00  0.00    -0.378 OA
ATOM     35  H   UNL     1      37.351 -23.612 -15.667  0.00  0.00    +0.211 HD
ENDBRANCH  21  34
BRANCH  22  36
ATOM     36  O   UNL     1      35.790 -22.382 -14.691  0.00  0.00    -0.379 OA
ATOM     37  H   UNL     1      36.684 -22.708 -14.500  0.00  0.00    +0.211 HD
ENDBRANCH  22  36
ENDBRANCH   1  23
TORSDOF 6
ENDMDL
MODEL 7
REMARK VINA RESULT:     -10.0     11.850     16.067
REMARK  Name = 9810927
REMARK  6 active torsions:
REMARK  status: ('A' for Active; 'I' for Inactive)
REMARK    1  A    between atoms: N_1  and  C_13
REMARK    2  A    between atoms: C_11  and  O_24
REMARK    3  A    between atoms: C_12  and  O_26
REMARK    4  A    between atoms: C_14  and  C_18
REMARK    5  A    between atoms: C_19  and  C_20
REMARK    6  A    between atoms: N_28  and  C_32
REMARK                            x       y       z     vdW  Elec       q    Type
REMARK                         _______ _______ _______ _____ _____    ______ ____
ROOT
ATOM      1  N   UNL     1      32.366  -9.865 -22.499  0.00  0.00    -0.247 N 
ATOM      2  N   UNL     1      33.545 -11.112 -23.924  0.00  0.00    -0.242 NA
ATOM      3  N   UNL     1      31.761 -11.561 -20.868  0.00  0.00    -0.228 NA
ATOM      4  N   UNL     1      32.663 -13.745 -21.480  0.00  0.00    -0.228 NA
ATOM      5  C   UNL     1      32.355 -11.135 -21.992  0.00  0.00    +0.152 C 
ATOM      6  C   UNL     1      33.093  -9.904 -23.660  0.00  0.00    +0.223 C 
ATOM      7  C   UNL     1      33.092 -11.891 -22.890  0.00  0.00    +0.140 C 
ATOM      8  C   UNL     1      33.237 -13.245 -22.601  0.00  0.00    +0.150 C 
ATOM      9  C   UNL     1      31.970 -12.884 -20.695  0.00  0.00    +0.253 C 
ATOM     10  N   UNL     1      33.969 -14.087 -23.456  0.00  0.00    -0.295 N 
ATOM     11  H   UNL     1      34.345 -13.623 -24.240  0.00  0.00    +0.154 HD
ENDROOT
BRANCH  10  14
ATOM     12 CL   UNL     1      35.242 -19.866 -23.294  0.00  0.00    -0.082 Cl
ATOM     13  F   UNL     1      35.188 -15.240 -21.236  0.00  0.00    -0.203 F 
ATOM     14  C   UNL     1      34.273 -15.464 -23.416  0.00  0.00    +0.077 C 
ATOM     15  C   UNL     1      34.884 -16.013 -22.289  0.00  0.00    +0.154 C 
ATOM     16  C   UNL     1      33.962 -16.276 -24.506  0.00  0.00    +0.018 C 
ATOM     17  C   UNL     1      35.184 -17.374 -22.251  0.00  0.00    +0.042 C 
ATOM     18  C   UNL     1      34.262 -17.637 -24.469  0.00  0.00    +0.013 C 
ATOM     19  C   UNL     1      34.872 -18.187 -23.341  0.00  0.00    +0.060 C 
ENDBRANCH  10  14
BRANCH   1  23
ATOM     20  O   UNL     1      31.770  -7.591 -22.861  0.00  0.00    -0.326 OA
ATOM     21  C   UNL     1      32.383  -8.193 -20.634  0.00  0.00    +0.187 C 
ATOM     22  C   UNL     1      33.262  -7.059 -21.128  0.00  0.00    +0.178 C 
ATOM     23  C   UNL     1      31.725  -8.682 -21.920  0.00  0.00    +0.225 C 
ATOM     24  C   UNL     1      32.416  -6.455 -22.241  0.00  0.00    +0.223 C 
BRANCH  24  28
ATOM     25  O   UNL     1      32.510  -4.593 -23.819  0.00  0.00    -0.421 OA
ATOM     26  N   UNL     1      34.296  -5.937 -23.885  0.00  0.00    -0.109 NA
ATOM     27  N   UNL     1      34.480  -4.937 -24.822  0.00  0.00    -0.112 NA
ATOM     28  C   UNL     1      33.138  -5.692 -23.331  0.00  0.00    +0.255 A 
ATOM     29  C   UNL     1      33.414  -4.176 -24.748  0.00  0.00    +0.225 A 
BRANCH  29  30
ATOM     30  C   UNL     1      33.073  -2.967 -25.508  0.00  0.00    +0.070 C 
ATOM     31  C   UNL     1      32.423  -1.852 -24.609  0.00  0.00    +0.009 C 
ATOM     32  C   UNL     1      32.054  -3.251 -26.673  0.00  0.00    +0.009 C 
ATOM     33  C   UNL     1      34.278  -2.236 -26.219  0.00  0.00    +0.009 C 
ENDBRANCH  29  30
ENDBRANCH  24  28
BRANCH  21  34
ATOM     34  O   UNL     1      31.356  -7.696 -19.779  0.00  0.00    -0.378 OA
ATOM     35  H   UNL     1      30.760  -7.124 -20.288  0.00  0.00    +0.211 HD
ENDBRANCH  21  34
BRANCH  22  36
ATOM     36  O   UNL     1      33.554  -6.120 -20.113  0.00  0.00    -0.379 OA
ATOM     37  H   UNL     1      34.517  -6.044 -20.010  0.00  0.00    +0.211 HD
ENDBRANCH  22  36
ENDBRANCH   1  23
TORSDOF 6
ENDMDL
MODEL 8
REMARK VINA RESULT:      -9.6      3.378      6.141
REMARK  Name = 9810927
REMARK  6 active torsions:
REMARK  status: ('A' for Active; 'I' for Inactive)
REMARK    1  A    between atoms: N_1  and  C_13
REMARK    2  A    between atoms: C_11  and  O_24
REMARK    3  A    between atoms: C_12  and  O_26
REMARK    4  A    between atoms: C_14  and  C_18
REMARK    5  A    between atoms: C_19  and  C_20
REMARK    6  A    between atoms: N_28  and  C_32
REMARK                            x       y       z     vdW  Elec       q    Type
REMARK                         _______ _______ _______ _____ _____    ______ ____
ROOT
ATOM      1  N   UNL     1      36.098 -23.456 -14.768  0.00  0.00    -0.247 N 
ATOM      2  N   UNL     1      34.621 -23.331 -16.436  0.00  0.00    -0.242 NA
ATOM      3  N   UNL     1      37.715 -21.808 -15.525  0.00  0.00    -0.228 NA
ATOM      4  N   UNL     1      37.039 -20.809 -17.646  0.00  0.00    -0.228 NA
ATOM      5  C   UNL     1      36.582 -22.518 -15.637  0.00  0.00    +0.152 C 
ATOM      6  C   UNL     1      34.918 -23.915 -15.293  0.00  0.00    +0.223 C 
ATOM      7  C   UNL     1      35.652 -22.456 -16.662  0.00  0.00    +0.140 C 
ATOM      8  C   UNL     1      35.912 -21.560 -17.694  0.00  0.00    +0.150 C 
ATOM      9  C   UNL     1      37.859 -20.978 -16.580  0.00  0.00    +0.253 C 
ATOM     10  N   UNL     1      35.022 -21.430 -18.774  0.00  0.00    -0.295 N 
ATOM     11  H   UNL     1      34.235 -22.019 -18.710  0.00  0.00    +0.154 HD
ENDROOT
BRANCH  10  14
ATOM     12 CL   UNL     1      35.066 -18.043 -23.630  0.00  0.00    -0.082 Cl
ATOM     13  F   UNL     1      32.705 -20.985 -20.251  0.00  0.00    -0.203 F 
ATOM     14  C   UNL     1      35.030 -20.623 -19.932  0.00  0.00    +0.077 C 
ATOM     15  C   UNL     1      33.853 -20.419 -20.650  0.00  0.00    +0.154 C 
ATOM     16  C   UNL     1      36.219 -20.030 -20.356  0.00  0.00    +0.018 C 
ATOM     17  C   UNL     1      33.864 -19.621 -21.794  0.00  0.00    +0.042 C 
ATOM     18  C   UNL     1      36.230 -19.233 -21.500  0.00  0.00    +0.013 C 
ATOM     19  C   UNL     1      35.053 -19.027 -22.219  0.00  0.00    +0.060 C 
ENDBRANCH  10  14
BRANCH   1  23
ATOM     20  O   UNL     1      38.112 -24.177 -13.728  0.00  0.00    -0.326 OA
ATOM     21  C   UNL     1      36.086 -25.155 -12.929  0.00  0.00    +0.187 C 
ATOM     22  C   UNL     1      37.044 -26.240 -13.386  0.00  0.00    +0.178 C 
ATOM     23  C   UNL     1      36.714 -23.895 -13.514  0.00  0.00    +0.225 C 
ATOM     24  C   UNL     1      38.391 -25.534 -13.313  0.00  0.00    +0.223 C 
BRANCH  24  28
ATOM     25  O   UNL     1      39.442 -27.372 -14.532  0.00  0.00    -0.421 OA
ATOM     26  N   UNL     1      40.535 -25.427 -14.690  0.00  0.00    -0.109 NA
ATOM     27  N   UNL     1      41.235 -26.370 -15.419  0.00  0.00    -0.112 NA
ATOM     28  C   UNL     1      39.504 -26.059 -14.195  0.00  0.00    +0.255 A 
ATOM     29  C   UNL     1      40.561 -27.489 -15.298  0.00  0.00    +0.225 A 
BRANCH  29  30
ATOM     30  C   UNL     1      40.839 -28.815 -15.865  0.00  0.00    +0.070 C 
ATOM     31  C   UNL     1      39.670 -29.339 -16.777  0.00  0.00    +0.009 C 
ATOM     32  C   UNL     1      41.068 -29.910 -14.759  0.00  0.00    +0.009 C 
ATOM     33  C   UNL     1      42.120 -28.918 -16.782  0.00  0.00    +0.009 C 
ENDBRANCH  29  30
ENDBRANCH  24  28
BRANCH  21  34
ATOM     34  O   UNL     1      36.106 -25.035 -11.508  0.00  0.00    -0.378 OA
ATOM     35  H   UNL     1      37.016 -24.872 -11.210  0.00  0.00    +0.211 HD
ENDBRANCH  21  34
BRANCH  22  36
ATOM     36  O   UNL     1      36.999 -27.386 -12.560  0.00  0.00    -0.379 OA
ATOM     37  H   UNL     1      36.549 -27.167 -11.728  0.00  0.00    +0.211 HD
ENDBRANCH  22  36
ENDBRANCH   1  23
TORSDOF 6
ENDMDL
MODEL 9
REMARK VINA RESULT:      -9.5      1.540      2.429
REMARK  Name = 9810927
REMARK  6 active torsions:
REMARK  status: ('A' for Active; 'I' for Inactive)
REMARK    1  A    between atoms: N_1  and  C_13
REMARK    2  A    between atoms: C_11  and  O_24
REMARK    3  A    between atoms: C_12  and  O_26
REMARK    4  A    between atoms: C_14  and  C_18
REMARK    5  A    between atoms: C_19  and  C_20
REMARK    6  A    between atoms: N_28  and  C_32
REMARK                            x       y       z     vdW  Elec       q    Type
REMARK                         _______ _______ _______ _____ _____    ______ ____
ROOT
ATOM      1  N   UNL     1      34.965 -22.834 -17.533  0.00  0.00    -0.247 N 
ATOM      2  N   UNL     1      33.480 -21.907 -18.917  0.00  0.00    -0.242 NA
ATOM      3  N   UNL     1      36.970 -21.651 -18.226  0.00  0.00    -0.228 NA
ATOM      4  N   UNL     1      36.492 -20.067 -20.021  0.00  0.00    -0.228 NA
ATOM      5  C   UNL     1      35.660 -21.933 -18.290  0.00  0.00    +0.152 C 
ATOM      6  C   UNL     1      33.660 -22.782 -17.948  0.00  0.00    +0.223 C 
ATOM      7  C   UNL     1      34.722 -21.369 -19.139  0.00  0.00    +0.140 C 
ATOM      8  C   UNL     1      35.179 -20.402 -20.029  0.00  0.00    +0.150 C 
ATOM      9  C   UNL     1      37.295 -20.704 -19.133  0.00  0.00    +0.253 C 
ATOM     10  N   UNL     1      34.296 -19.776 -20.927  0.00  0.00    -0.295 N 
ATOM     11  H   UNL     1      33.366 -20.091 -20.849  0.00  0.00    +0.154 HD
ENDROOT
BRANCH  10  14
ATOM     12 CL   UNL     1      35.050 -15.630 -25.085  0.00  0.00    -0.082 Cl
ATOM     13  F   UNL     1      35.309 -17.262 -20.298  0.00  0.00    -0.203 F 
ATOM     14  C   UNL     1      34.477 -18.787 -21.916  0.00  0.00    +0.077 C 
ATOM     15  C   UNL     1      34.986 -17.536 -21.570  0.00  0.00    +0.154 C 
ATOM     16  C   UNL     1      34.143 -19.062 -23.242  0.00  0.00    +0.018 C 
ATOM     17  C   UNL     1      35.164 -16.560 -22.550  0.00  0.00    +0.042 C 
ATOM     18  C   UNL     1      34.320 -18.086 -24.222  0.00  0.00    +0.013 C 
ATOM     19  C   UNL     1      34.831 -16.835 -23.876  0.00  0.00    +0.060 C 
ENDBRANCH  10  14
BRANCH   1  23
ATOM     20  O   UNL     1      34.423 -24.383 -15.811  0.00  0.00    -0.326 OA
ATOM     21  C   UNL     1      36.288 -22.947 -15.410  0.00  0.00    +0.187 C 
ATOM     22  C   UNL     1      35.266 -22.796 -14.299  0.00  0.00    +0.178 C 
ATOM     23  C   UNL     1      35.502 -23.698 -16.479  0.00  0.00    +0.225 C 
ATOM     24  C   UNL     1      34.490 -24.103 -14.393  0.00  0.00    +0.223 C 
BRANCH  24  28
ATOM     25  O   UNL     1      32.084 -23.903 -14.766  0.00  0.00    -0.421 OA
ATOM     26  N   UNL     1      32.650 -24.298 -12.638  0.00  0.00    -0.109 NA
ATOM     27  N   UNL     1      31.271 -24.208 -12.704  0.00  0.00    -0.112 NA
ATOM     28  C   UNL     1      33.073 -24.114 -13.861  0.00  0.00    +0.255 A 
ATOM     29  C   UNL     1      30.987 -23.976 -13.964  0.00  0.00    +0.225 A 
BRANCH  29  30
ATOM     30  C   UNL     1      29.680 -23.794 -14.609  0.00  0.00    +0.070 C 
ATOM     31  C   UNL     1      28.761 -25.064 -14.481  0.00  0.00    +0.009 C 
ATOM     32  C   UNL     1      29.803 -23.486 -16.147  0.00  0.00    +0.009 C 
ATOM     33  C   UNL     1      28.792 -22.616 -14.049  0.00  0.00    +0.009 C 
ENDBRANCH  29  30
ENDBRANCH  24  28
BRANCH  21  34
ATOM     34  O   UNL     1      37.365 -23.782 -14.991  0.00  0.00    -0.378 OA
ATOM     35  H   UNL     1      38.149 -23.593 -15.532  0.00  0.00    +0.211 HD
ENDBRANCH  21  34
BRANCH  22  36
ATOM     36  O   UNL     1      35.867 -22.625 -13.031  0.00  0.00    -0.379 OA
ATOM     37  H   UNL     1      35.977 -21.678 -12.850  0.00  0.00    +0.211 HD
ENDBRANCH  22  36
ENDBRANCH   1  23
TORSDOF 6
ENDMDL
