MODEL 1
REMARK VINA RESULT:     -11.4      0.000      0.000
REMARK  Name = 6450813
REMARK  4 active torsions:
REMARK  status: ('A' for Active; 'I' for Inactive)
REMARK    1  A    between atoms: C_4  and  C_10
REMARK    2  A    between atoms: C_6  and  C_22
REMARK    3  A    between atoms: C_12  and  N_17
REMARK    4  A    between atoms: C_22  and  C_24
REMARK                            x       y       z     vdW  Elec       q    Type
REMARK                         _______ _______ _______ _____ _____    ______ ____
ROOT
ATOM      1  N   UNL     1      34.703 -16.086 -22.350  0.00  0.00    -0.191 N 
ATOM      2  N   UNL     1      34.880 -15.491 -21.137  0.00  0.00    -0.179 NA
ATOM      3  N   UNL     1      33.957 -15.533 -24.575  0.00  0.00    -0.231 NA
ATOM      4  C   UNL     1      34.937 -17.427 -22.697  0.00  0.00    +0.143 C 
ATOM      5  C   UNL     1      34.220 -15.170 -23.289  0.00  0.00    +0.141 C 
ATOM      6  C   UNL     1      34.103 -13.964 -22.636  0.00  0.00    +0.161 C 
ATOM      7  C   UNL     1      34.691 -17.829 -23.955  0.00  0.00    +0.020 C 
ATOM      8  C   UNL     1      34.519 -14.223 -21.325  0.00  0.00    +0.106 C 
ATOM      9  C   UNL     1      34.180 -16.777 -24.869  0.00  0.00    +0.097 C 
ENDROOT
BRANCH   4  10
ATOM     10  C   UNL     1      35.459 -18.402 -21.721  0.00  0.00    +0.003 C 
ATOM     11  C   UNL     1      34.589 -19.289 -21.086  0.00  0.00    +0.013 C 
ATOM     12  C   UNL     1      35.083 -20.211 -20.163  0.00  0.00    +0.054 C 
ATOM     13  C   UNL     1      36.823 -18.437 -21.432  0.00  0.00    -0.002 C 
ATOM     14  C   UNL     1      36.447 -20.246 -19.875  0.00  0.00    +0.015 C 
ATOM     15  C   UNL     1      37.318 -19.359 -20.509  0.00  0.00    +0.001 C 
BRANCH  12  17
ATOM     16  O   UNL     1      35.829 -22.255 -18.254  0.00  0.00    -0.275 OA
ATOM     17  N   UNL     1      34.213 -21.098 -19.527  0.00  0.00    -0.257 N 
ATOM     18  C   UNL     1      32.748 -20.976 -19.797  0.00  0.00    +0.120 C 
ATOM     19  C   UNL     1      34.649 -22.067 -18.558  0.00  0.00    +0.230 C 
ATOM     20  C   UNL     1      33.597 -22.879 -17.838  0.00  0.00    +0.095 C 
ENDBRANCH  12  17
ENDBRANCH   4  10
BRANCH   6  22
ATOM     21  O   UNL     1      34.015 -12.356 -24.340  0.00  0.00    -0.290 OA
ATOM     22  C   UNL     1      33.645 -12.736 -23.212  0.00  0.00    +0.191 C 
BRANCH  22  24
ATOM     23  S   UNL     1      32.612 -10.264 -22.799  0.00  0.00    -0.084 S 
ATOM     24  C   UNL     1      32.698 -11.906 -22.428  0.00  0.00    +0.065 C 
ATOM     25  C   UNL     1      31.887 -12.319 -21.439  0.00  0.00    +0.010 C 
ATOM     26  C   UNL     1      31.130 -11.224 -20.934  0.00  0.00    +0.008 C 
ATOM     27  C   UNL     1      31.425 -10.046 -21.584  0.00  0.00    +0.036 C 
ENDBRANCH  22  24
ENDBRANCH   6  22
TORSDOF 4
ENDMDL
MODEL 2
REMARK VINA RESULT:     -11.3      3.138      8.837
REMARK  Name = 6450813
REMARK  4 active torsions:
REMARK  status: ('A' for Active; 'I' for Inactive)
REMARK    1  A    between atoms: C_4  and  C_10
REMARK    2  A    between atoms: C_6  and  C_22
REMARK    3  A    between atoms: C_12  and  N_17
REMARK    4  A    between atoms: C_22  and  C_24
REMARK                            x       y       z     vdW  Elec       q    Type
REMARK                         _______ _______ _______ _____ _____    ______ ____
ROOT
ATOM      1  N   UNL     1      34.836 -15.981 -22.357  0.00  0.00    -0.191 N 
ATOM      2  N   UNL     1      35.059 -16.645 -23.526  0.00  0.00    -0.179 NA
ATOM      3  N   UNL     1      35.025 -16.334 -19.979  0.00  0.00    -0.231 NA
ATOM      4  C   UNL     1      34.333 -14.680 -22.185  0.00  0.00    +0.143 C 
ATOM      5  C   UNL     1      35.170 -16.778 -21.258  0.00  0.00    +0.141 C 
ATOM      6  C   UNL     1      35.624 -17.975 -21.766  0.00  0.00    +0.161 C 
ATOM      7  C   UNL     1      34.174 -14.202 -20.939  0.00  0.00    +0.020 C 
ATOM      8  C   UNL     1      35.533 -17.834 -23.155  0.00  0.00    +0.106 C 
ATOM      9  C   UNL     1      34.557 -15.131 -19.847  0.00  0.00    +0.097 C 
ENDROOT
BRANCH   4  10
ATOM     10  C   UNL     1      33.989 -13.822 -23.333  0.00  0.00    +0.003 C 
ATOM     11  C   UNL     1      34.168 -12.441 -23.253  0.00  0.00    +0.013 C 
ATOM     12  C   UNL     1      33.844 -11.630 -24.339  0.00  0.00    +0.054 C 
ATOM     13  C   UNL     1      33.485 -14.392 -24.502  0.00  0.00    -0.002 C 
ATOM     14  C   UNL     1      33.339 -12.199 -25.508  0.00  0.00    +0.015 C 
ATOM     15  C   UNL     1      33.159 -13.581 -25.590  0.00  0.00    +0.001 C 
BRANCH  12  17
ATOM     16  O   UNL     1      32.106  -9.764 -22.968  0.00  0.00    -0.275 OA
ATOM     17  N   UNL     1      34.022 -10.248 -24.259  0.00  0.00    -0.257 N 
ATOM     18  C   UNL     1      35.239  -9.649 -24.887  0.00  0.00    +0.120 C 
ATOM     19  C   UNL     1      33.137  -9.382 -23.527  0.00  0.00    +0.230 C 
ATOM     20  C   UNL     1      33.510  -7.923 -23.401  0.00  0.00    +0.095 C 
ENDBRANCH  12  17
ENDBRANCH   4  10
BRANCH   6  22
ATOM     21  O   UNL     1      37.291 -19.328 -20.825  0.00  0.00    -0.290 OA
ATOM     22  C   UNL     1      36.079 -19.096 -21.000  0.00  0.00    +0.191 C 
BRANCH  22  24
ATOM     23  S   UNL     1      35.608 -21.218 -19.382  0.00  0.00    -0.084 S 
ATOM     24  C   UNL     1      35.061 -19.994 -20.404  0.00  0.00    +0.065 C 
ATOM     25  C   UNL     1      33.731 -19.943 -20.585  0.00  0.00    +0.010 C 
ATOM     26  C   UNL     1      33.093 -20.976 -19.842  0.00  0.00    +0.008 C 
ATOM     27  C   UNL     1      33.996 -21.744 -19.141  0.00  0.00    +0.036 C 
ENDBRANCH  22  24
ENDBRANCH   6  22
TORSDOF 4
ENDMDL
MODEL 3
REMARK VINA RESULT:     -11.1      4.693     10.188
REMARK  Name = 6450813
REMARK  4 active torsions:
REMARK  status: ('A' for Active; 'I' for Inactive)
REMARK    1  A    between atoms: C_4  and  C_10
REMARK    2  A    between atoms: C_6  and  C_22
REMARK    3  A    between atoms: C_12  and  N_17
REMARK    4  A    between atoms: C_22  and  C_24
REMARK                            x       y       z     vdW  Elec       q    Type
REMARK                         _______ _______ _______ _____ _____    ______ ____
ROOT
ATOM      1  N   UNL     1      35.729 -21.582 -18.109  0.00  0.00    -0.191 N 
ATOM      2  N   UNL     1      36.985 -21.257 -17.690  0.00  0.00    -0.179 NA
ATOM      3  N   UNL     1      33.859 -22.942 -17.425  0.00  0.00    -0.231 NA
ATOM      4  C   UNL     1      35.064 -21.144 -19.267  0.00  0.00    +0.143 C 
ATOM      5  C   UNL     1      35.119 -22.467 -17.216  0.00  0.00    +0.141 C 
ATOM      6  C   UNL     1      36.026 -22.691 -16.204  0.00  0.00    +0.161 C 
ATOM      7  C   UNL     1      33.820 -21.588 -19.512  0.00  0.00    +0.020 C 
ATOM      8  C   UNL     1      37.145 -21.927 -16.550  0.00  0.00    +0.106 C 
ATOM      9  C   UNL     1      33.268 -22.524 -18.501  0.00  0.00    +0.097 C 
ENDROOT
BRANCH   4  10
ATOM     10  C   UNL     1      35.690 -20.200 -20.211  0.00  0.00    +0.003 C 
ATOM     11  C   UNL     1      34.925 -19.609 -21.219  0.00  0.00    +0.013 C 
ATOM     12  C   UNL     1      35.517 -18.717 -22.111  0.00  0.00    +0.054 C 
ATOM     13  C   UNL     1      37.046 -19.896 -20.098  0.00  0.00    -0.002 C 
ATOM     14  C   UNL     1      36.873 -18.414 -21.998  0.00  0.00    +0.015 C 
ATOM     15  C   UNL     1      37.639 -19.003 -20.991  0.00  0.00    +0.001 C 
BRANCH  12  17
ATOM     16  O   UNL     1      35.326 -15.882 -22.667  0.00  0.00    -0.275 OA
ATOM     17  N   UNL     1      34.753 -18.126 -23.119  0.00  0.00    -0.257 N 
ATOM     18  C   UNL     1      33.990 -19.015 -24.048  0.00  0.00    +0.120 C 
ATOM     19  C   UNL     1      34.734 -16.710 -23.364  0.00  0.00    +0.230 C 
ATOM     20  C   UNL     1      33.976 -16.204 -24.569  0.00  0.00    +0.095 C 
ENDBRANCH  12  17
ENDBRANCH   4  10
BRANCH   6  22
ATOM     21  O   UNL     1      34.801 -23.462 -14.360  0.00  0.00    -0.290 OA
ATOM     22  C   UNL     1      35.826 -23.536 -15.066  0.00  0.00    +0.191 C 
BRANCH  22  24
ATOM     23  S   UNL     1      36.442 -26.152 -14.721  0.00  0.00    -0.084 S 
ATOM     24  C   UNL     1      36.880 -24.524 -14.735  0.00  0.00    +0.065 C 
ATOM     25  C   UNL     1      38.166 -24.269 -14.441  0.00  0.00    +0.010 C 
ATOM     26  C   UNL     1      38.862 -25.483 -14.180  0.00  0.00    +0.008 C 
ATOM     27  C   UNL     1      38.044 -26.585 -14.297  0.00  0.00    +0.036 C 
ENDBRANCH  22  24
ENDBRANCH   6  22
TORSDOF 4
ENDMDL
MODEL 4
REMARK VINA RESULT:     -10.9      1.381      1.770
REMARK  Name = 6450813
REMARK  4 active torsions:
REMARK  status: ('A' for Active; 'I' for Inactive)
REMARK    1  A    between atoms: C_4  and  C_10
REMARK    2  A    between atoms: C_6  and  C_22
REMARK    3  A    between atoms: C_12  and  N_17
REMARK    4  A    between atoms: C_22  and  C_24
REMARK                            x       y       z     vdW  Elec       q    Type
REMARK                         _______ _______ _______ _____ _____    ______ ____
ROOT
ATOM      1  N   UNL     1      34.652 -16.821 -22.828  0.00  0.00    -0.191 N 
ATOM      2  N   UNL     1      35.074 -15.914 -21.902  0.00  0.00    -0.179 NA
ATOM      3  N   UNL     1      33.459 -16.887 -24.923  0.00  0.00    -0.231 NA
ATOM      4  C   UNL     1      34.816 -18.216 -22.807  0.00  0.00    +0.143 C 
ATOM      5  C   UNL     1      33.981 -16.186 -23.877  0.00  0.00    +0.141 C 
ATOM      6  C   UNL     1      33.996 -14.839 -23.595  0.00  0.00    +0.161 C 
ATOM      7  C   UNL     1      34.316 -18.946 -23.819  0.00  0.00    +0.020 C 
ATOM      8  C   UNL     1      34.676 -14.735 -22.376  0.00  0.00    +0.106 C 
ATOM      9  C   UNL     1      33.622 -18.173 -24.879  0.00  0.00    +0.097 C 
ENDROOT
BRANCH   4  10
ATOM     10  C   UNL     1      35.533 -18.898 -21.714  0.00  0.00    +0.003 C 
ATOM     11  C   UNL     1      34.847 -19.764 -20.862  0.00  0.00    +0.013 C 
ATOM     12  C   UNL     1      35.525 -20.409 -19.828  0.00  0.00    +0.054 C 
ATOM     13  C   UNL     1      36.898 -18.677 -21.531  0.00  0.00    -0.002 C 
ATOM     14  C   UNL     1      36.890 -20.188 -19.645  0.00  0.00    +0.015 C 
ATOM     15  C   UNL     1      37.577 -19.322 -20.497  0.00  0.00    +0.001 C 
BRANCH  12  17
ATOM     16  O   UNL     1      32.656 -20.785 -19.726  0.00  0.00    -0.275 OA
ATOM     17  N   UNL     1      34.839 -21.275 -18.975  0.00  0.00    -0.257 N 
ATOM     18  C   UNL     1      35.634 -22.140 -18.050  0.00  0.00    +0.120 C 
ATOM     19  C   UNL     1      33.412 -21.441 -19.004  0.00  0.00    +0.230 C 
ATOM     20  C   UNL     1      32.799 -22.506 -18.125  0.00  0.00    +0.095 C 
ENDBRANCH  12  17
ENDBRANCH   4  10
BRANCH   6  22
ATOM     21  O   UNL     1      33.119 -13.988 -25.595  0.00  0.00    -0.290 OA
ATOM     22  C   UNL     1      33.423 -13.804 -24.401  0.00  0.00    +0.191 C 
BRANCH  22  24
ATOM     23  S   UNL     1      32.225 -12.433 -22.392  0.00  0.00    -0.084 S 
ATOM     24  C   UNL     1      33.188 -12.480 -23.775  0.00  0.00    +0.065 C 
ATOM     25  C   UNL     1      33.664 -11.293 -24.190  0.00  0.00    +0.010 C 
ATOM     26  C   UNL     1      33.217 -10.255 -23.324  0.00  0.00    +0.008 C 
ATOM     27  C   UNL     1      32.426 -10.734 -22.304  0.00  0.00    +0.036 C 
ENDBRANCH  22  24
ENDBRANCH   6  22
TORSDOF 4
ENDMDL
MODEL 5
REMARK VINA RESULT:     -10.7      3.240      8.808
REMARK  Name = 6450813
REMARK  4 active torsions:
REMARK  status: ('A' for Active; 'I' for Inactive)
REMARK    1  A    between atoms: C_4  and  C_10
REMARK    2  A    between atoms: C_6  and  C_22
REMARK    3  A    between atoms: C_12  and  N_17
REMARK    4  A    between atoms: C_22  and  C_24
REMARK                            x       y       z     vdW  Elec       q    Type
REMARK                         _______ _______ _______ _____ _____    ______ ____
ROOT
ATOM      1  N   UNL     1      34.479 -15.503 -22.260  0.00  0.00    -0.191 N 
ATOM      2  N   UNL     1      34.639 -15.252 -20.930  0.00  0.00    -0.179 NA
ATOM      3  N   UNL     1      34.933 -17.242 -23.869  0.00  0.00    -0.231 NA
ATOM      4  C   UNL     1      33.915 -14.664 -23.236  0.00  0.00    +0.143 C 
ATOM      5  C   UNL     1      34.974 -16.767 -22.592  0.00  0.00    +0.141 C 
ATOM      6  C   UNL     1      35.450 -17.322 -21.425  0.00  0.00    +0.161 C 
ATOM      7  C   UNL     1      33.855 -15.092 -24.508  0.00  0.00    +0.020 C 
ATOM      8  C   UNL     1      35.218 -16.350 -20.445  0.00  0.00    +0.106 C 
ATOM      9  C   UNL     1      34.409 -16.447 -24.750  0.00  0.00    +0.097 C 
ENDROOT
BRANCH   4  10
ATOM     10  C   UNL     1      33.377 -13.333 -22.898  0.00  0.00    +0.003 C 
ATOM     11  C   UNL     1      33.963 -12.186 -23.434  0.00  0.00    +0.013 C 
ATOM     12  C   UNL     1      33.454 -10.928 -23.115  0.00  0.00    +0.054 C 
ATOM     13  C   UNL     1      32.280 -13.221 -22.044  0.00  0.00    -0.002 C 
ATOM     14  C   UNL     1      32.358 -10.816 -22.260  0.00  0.00    +0.015 C 
ATOM     15  C   UNL     1      31.770 -11.963 -21.724  0.00  0.00    +0.001 C 
BRANCH  12  17
ATOM     16  O   UNL     1      33.222  -8.244 -22.054  0.00  0.00    -0.275 OA
ATOM     17  N   UNL     1      34.040  -9.779 -23.649  0.00  0.00    -0.257 N 
ATOM     18  C   UNL     1      34.916  -9.921 -24.852  0.00  0.00    +0.120 C 
ATOM     19  C   UNL     1      33.915  -8.480 -23.048  0.00  0.00    +0.230 C 
ATOM     20  C   UNL     1      34.706  -7.338 -23.643  0.00  0.00    +0.095 C 
ENDBRANCH  12  17
ENDBRANCH   4  10
BRANCH   6  22
ATOM     21  O   UNL     1      37.180 -18.871 -21.744  0.00  0.00    -0.290 OA
ATOM     22  C   UNL     1      36.048 -18.615 -21.290  0.00  0.00    +0.191 C 
BRANCH  22  24
ATOM     23  S   UNL     1      36.153 -20.759 -19.634  0.00  0.00    -0.084 S 
ATOM     24  C   UNL     1      35.282 -19.669 -20.581  0.00  0.00    +0.065 C 
ATOM     25  C   UNL     1      33.952 -19.858 -20.606  0.00  0.00    +0.010 C 
ATOM     26  C   UNL     1      33.599 -20.975 -19.796  0.00  0.00    +0.008 C 
ATOM     27  C   UNL     1      34.699 -21.558 -19.208  0.00  0.00    +0.036 C 
ENDBRANCH  22  24
ENDBRANCH   6  22
TORSDOF 4
ENDMDL
MODEL 6
REMARK VINA RESULT:     -10.4      3.673      9.726
REMARK  Name = 6450813
REMARK  4 active torsions:
REMARK  status: ('A' for Active; 'I' for Inactive)
REMARK    1  A    between atoms: C_4  and  C_10
REMARK    2  A    between atoms: C_6  and  C_22
REMARK    3  A    between atoms: C_12  and  N_17
REMARK    4  A    between atoms: C_22  and  C_24
REMARK                            x       y       z     vdW  Elec       q    Type
REMARK                         _______ _______ _______ _____ _____    ______ ____
ROOT
ATOM      1  N   UNL     1      33.645 -13.222 -23.566  0.00  0.00    -0.191 N 
ATOM      2  N   UNL     1      33.876 -13.492 -22.251  0.00  0.00    -0.179 NA
ATOM      3  N   UNL     1      33.762 -14.315 -25.713  0.00  0.00    -0.231 NA
ATOM      4  C   UNL     1      33.210 -12.014 -24.138  0.00  0.00    +0.143 C 
ATOM      5  C   UNL     1      33.912 -14.342 -24.359  0.00  0.00    +0.141 C 
ATOM      6  C   UNL     1      34.313 -15.343 -23.502  0.00  0.00    +0.161 C 
ATOM      7  C   UNL     1      33.049 -11.944 -25.470  0.00  0.00    +0.020 C 
ATOM      8  C   UNL     1      34.272 -14.763 -22.229  0.00  0.00    +0.106 C 
ATOM      9  C   UNL     1      33.361 -13.189 -26.215  0.00  0.00    +0.097 C 
ENDROOT
BRANCH   4  10
ATOM     10  C   UNL     1      32.912 -10.829 -23.314  0.00  0.00    +0.003 C 
ATOM     11  C   UNL     1      33.368  -9.570 -23.709  0.00  0.00    +0.013 C 
ATOM     12  C   UNL     1      33.086  -8.449 -22.930  0.00  0.00    +0.054 C 
ATOM     13  C   UNL     1      32.174 -10.964 -22.138  0.00  0.00    -0.002 C 
ATOM     14  C   UNL     1      32.348  -8.585 -21.754  0.00  0.00    +0.015 C 
ATOM     15  C   UNL     1      31.891  -9.843 -21.358  0.00  0.00    +0.001 C 
BRANCH  12  17
ATOM     16  O   UNL     1      31.512  -6.395 -24.229  0.00  0.00    -0.275 OA
ATOM     17  N   UNL     1      33.542  -7.190 -23.324  0.00  0.00    -0.257 N 
ATOM     18  C   UNL     1      34.957  -6.817 -23.017  0.00  0.00    +0.120 C 
ATOM     19  C   UNL     1      32.694  -6.201 -23.932  0.00  0.00    +0.230 C 
ATOM     20  C   UNL     1      33.270  -4.828 -24.191  0.00  0.00    +0.095 C 
ENDBRANCH  12  17
ENDBRANCH   4  10
BRANCH   6  22
ATOM     21  O   UNL     1      34.757 -17.028 -25.070  0.00  0.00    -0.290 OA
ATOM     22  C   UNL     1      34.687 -16.673 -23.877  0.00  0.00    +0.191 C 
BRANCH  22  24
ATOM     23  S   UNL     1      34.437 -19.220 -22.986  0.00  0.00    -0.084 S 
ATOM     24  C   UNL     1      34.999 -17.641 -22.799  0.00  0.00    +0.065 C 
ATOM     25  C   UNL     1      35.689 -17.403 -21.671  0.00  0.00    +0.010 C 
ATOM     26  C   UNL     1      35.777 -18.588 -20.887  0.00  0.00    +0.008 C 
ATOM     27  C   UNL     1      35.139 -19.652 -21.484  0.00  0.00    +0.036 C 
ENDBRANCH  22  24
ENDBRANCH   6  22
TORSDOF 4
ENDMDL
MODEL 7
REMARK VINA RESULT:     -10.4      4.497     10.655
REMARK  Name = 6450813
REMARK  4 active torsions:
REMARK  status: ('A' for Active; 'I' for Inactive)
REMARK    1  A    between atoms: C_4  and  C_10
REMARK    2  A    between atoms: C_6  and  C_22
REMARK    3  A    between atoms: C_12  and  N_17
REMARK    4  A    between atoms: C_22  and  C_24
REMARK                            x       y       z     vdW  Elec       q    Type
REMARK                         _______ _______ _______ _____ _____    ______ ____
ROOT
ATOM      1  N   UNL     1      32.755 -10.560 -22.617  0.00  0.00    -0.191 N 
ATOM      2  N   UNL     1      33.565 -10.071 -23.598  0.00  0.00    -0.179 NA
ATOM      3  N   UNL     1      31.832 -12.661 -21.875  0.00  0.00    -0.231 NA
ATOM      4  C   UNL     1      32.111  -9.846 -21.592  0.00  0.00    +0.143 C 
ATOM      5  C   UNL     1      32.604 -11.944 -22.739  0.00  0.00    +0.141 C 
ATOM      6  C   UNL     1      33.354 -12.326 -23.828  0.00  0.00    +0.161 C 
ATOM      7  C   UNL     1      31.338 -10.513 -20.718  0.00  0.00    +0.020 C 
ATOM      8  C   UNL     1      33.916 -11.140 -24.311  0.00  0.00    +0.106 C 
ATOM      9  C   UNL     1      31.247 -11.978 -20.940  0.00  0.00    +0.097 C 
ENDROOT
BRANCH   4  10
ATOM     10  C   UNL     1      32.271  -8.388 -21.443  0.00  0.00    +0.003 C 
ATOM     11  C   UNL     1      32.414  -7.581 -22.573  0.00  0.00    +0.013 C 
ATOM     12  C   UNL     1      32.565  -6.203 -22.433  0.00  0.00    +0.054 C 
ATOM     13  C   UNL     1      32.279  -7.814 -20.173  0.00  0.00    -0.002 C 
ATOM     14  C   UNL     1      32.573  -5.628 -21.161  0.00  0.00    +0.015 C 
ATOM     15  C   UNL     1      32.430  -6.434 -20.031  0.00  0.00    +0.001 C 
BRANCH  12  17
ATOM     16  O   UNL     1      34.972  -5.891 -24.010  0.00  0.00    -0.275 OA
ATOM     17  N   UNL     1      32.709  -5.395 -23.562  0.00  0.00    -0.257 N 
ATOM     18  C   UNL     1      31.514  -4.647 -24.059  0.00  0.00    +0.120 C 
ATOM     19  C   UNL     1      33.926  -5.317 -24.322  0.00  0.00    +0.230 C 
ATOM     20  C   UNL     1      33.918  -4.513 -25.602  0.00  0.00    +0.095 C 
ENDBRANCH  12  17
ENDBRANCH   4  10
BRANCH   6  22
ATOM     21  O   UNL     1      33.119 -13.983 -25.470  0.00  0.00    -0.290 OA
ATOM     22  C   UNL     1      33.497 -13.661 -24.326  0.00  0.00    +0.191 C 
BRANCH  22  24
ATOM     23  S   UNL     1      34.591 -16.133 -24.142  0.00  0.00    -0.084 S 
ATOM     24  C   UNL     1      34.118 -14.675 -23.441  0.00  0.00    +0.065 C 
ATOM     25  C   UNL     1      34.352 -14.564 -22.122  0.00  0.00    +0.010 C 
ATOM     26  C   UNL     1      34.964 -15.751 -21.629  0.00  0.00    +0.008 C 
ATOM     27  C   UNL     1      35.152 -16.688 -22.621  0.00  0.00    +0.036 C 
ENDBRANCH  22  24
ENDBRANCH   6  22
TORSDOF 4
ENDMDL
MODEL 8
REMARK VINA RESULT:     -10.4      5.752      9.190
REMARK  Name = 6450813
REMARK  4 active torsions:
REMARK  status: ('A' for Active; 'I' for Inactive)
REMARK    1  A    between atoms: C_4  and  C_10
REMARK    2  A    between atoms: C_6  and  C_22
REMARK    3  A    between atoms: C_12  and  N_17
REMARK    4  A    between atoms: C_22  and  C_24
REMARK                            x       y       z     vdW  Elec       q    Type
REMARK                         _______ _______ _______ _____ _____    ______ ____
ROOT
ATOM      1  N   UNL     1      34.264 -22.889 -16.564  0.00  0.00    -0.191 N 
ATOM      2  N   UNL     1      35.579 -22.664 -16.841  0.00  0.00    -0.179 NA
ATOM      3  N   UNL     1      32.088 -22.457 -17.510  0.00  0.00    -0.231 NA
ATOM      4  C   UNL     1      33.715 -23.540 -15.447  0.00  0.00    +0.143 C 
ATOM      5  C   UNL     1      33.446 -22.362 -17.568  0.00  0.00    +0.141 C 
ATOM      6  C   UNL     1      34.285 -21.800 -18.503  0.00  0.00    +0.161 C 
ATOM      7  C   UNL     1      32.380 -23.655 -15.349  0.00  0.00    +0.020 C 
ATOM      8  C   UNL     1      35.575 -22.015 -18.004  0.00  0.00    +0.106 C 
ATOM      9  C   UNL     1      31.607 -23.061 -16.468  0.00  0.00    +0.097 C 
ENDROOT
BRANCH   4  10
ATOM     10  C   UNL     1      34.565 -24.113 -14.387  0.00  0.00    +0.003 C 
ATOM     11  C   UNL     1      35.805 -24.668 -14.708  0.00  0.00    +0.013 C 
ATOM     12  C   UNL     1      36.609 -25.208 -13.706  0.00  0.00    +0.054 C 
ATOM     13  C   UNL     1      34.132 -24.099 -13.061  0.00  0.00    -0.002 C 
ATOM     14  C   UNL     1      36.175 -25.195 -12.381  0.00  0.00    +0.015 C 
ATOM     15  C   UNL     1      34.936 -24.640 -12.058  0.00  0.00    +0.001 C 
BRANCH  12  17
ATOM     16  O   UNL     1      39.170 -24.409 -12.618  0.00  0.00    -0.275 OA
ATOM     17  N   UNL     1      37.848 -25.764 -14.027  0.00  0.00    -0.257 N 
ATOM     18  C   UNL     1      37.887 -26.915 -14.981  0.00  0.00    +0.120 C 
ATOM     19  C   UNL     1      39.081 -25.343 -13.419  0.00  0.00    +0.230 C 
ATOM     20  C   UNL     1      40.339 -26.113 -13.748  0.00  0.00    +0.095 C 
ENDBRANCH  12  17
ENDBRANCH   4  10
BRANCH   6  22
ATOM     21  O   UNL     1      32.737 -21.276 -20.184  0.00  0.00    -0.290 OA
ATOM     22  C   UNL     1      33.882 -21.143 -19.710  0.00  0.00    +0.191 C 
BRANCH  22  24
ATOM     23  S   UNL     1      34.389 -19.543 -21.838  0.00  0.00    -0.084 S 
ATOM     24  C   UNL     1      34.870 -20.279 -20.399  0.00  0.00    +0.065 C 
ATOM     25  C   UNL     1      36.126 -20.010 -20.003  0.00  0.00    +0.010 C 
ATOM     26  C   UNL     1      36.759 -19.138 -20.934  0.00  0.00    +0.008 C 
ATOM     27  C   UNL     1      35.928 -18.805 -21.980  0.00  0.00    +0.036 C 
ENDBRANCH  22  24
ENDBRANCH   6  22
TORSDOF 4
ENDMDL
MODEL 9
REMARK VINA RESULT:     -10.3      3.461      8.844
REMARK  Name = 6450813
REMARK  4 active torsions:
REMARK  status: ('A' for Active; 'I' for Inactive)
REMARK    1  A    between atoms: C_4  and  C_10
REMARK    2  A    between atoms: C_6  and  C_22
REMARK    3  A    between atoms: C_12  and  N_17
REMARK    4  A    between atoms: C_22  and  C_24
REMARK                            x       y       z     vdW  Elec       q    Type
REMARK                         _______ _______ _______ _____ _____    ______ ____
ROOT
ATOM      1  N   UNL     1      34.770 -20.342 -20.221  0.00  0.00    -0.191 N 
ATOM      2  N   UNL     1      33.438 -20.585 -20.369  0.00  0.00    -0.179 NA
ATOM      3  N   UNL     1      36.596 -20.942 -18.764  0.00  0.00    -0.231 NA
ATOM      4  C   UNL     1      35.591 -19.519 -21.010  0.00  0.00    +0.143 C 
ATOM      5  C   UNL     1      35.284 -21.033 -19.120  0.00  0.00    +0.141 C 
ATOM      6  C   UNL     1      34.234 -21.736 -18.573  0.00  0.00    +0.161 C 
ATOM      7  C   UNL     1      36.892 -19.400 -20.694  0.00  0.00    +0.020 C 
ATOM      8  C   UNL     1      33.134 -21.422 -19.378  0.00  0.00    +0.106 C 
ATOM      9  C   UNL     1      37.332 -20.175 -19.507  0.00  0.00    +0.097 C 
ENDROOT
BRANCH   4  10
ATOM     10  C   UNL     1      35.067 -18.794 -22.181  0.00  0.00    +0.003 C 
ATOM     11  C   UNL     1      34.920 -17.407 -22.137  0.00  0.00    +0.013 C 
ATOM     12  C   UNL     1      34.424 -16.721 -23.245  0.00  0.00    +0.054 C 
ATOM     13  C   UNL     1      34.717 -19.494 -23.336  0.00  0.00    -0.002 C 
ATOM     14  C   UNL     1      34.074 -17.422 -24.399  0.00  0.00    +0.015 C 
ATOM     15  C   UNL     1      34.221 -18.809 -24.445  0.00  0.00    +0.001 C 
BRANCH  12  17
ATOM     16  O   UNL     1      33.610 -15.023 -25.444  0.00  0.00    -0.275 OA
ATOM     17  N   UNL     1      34.276 -15.334 -23.201  0.00  0.00    -0.257 N 
ATOM     18  C   UNL     1      34.503 -14.635 -21.900  0.00  0.00    +0.120 C 
ATOM     19  C   UNL     1      33.830 -14.555 -24.324  0.00  0.00    +0.230 C 
ATOM     20  C   UNL     1      33.579 -13.079 -24.114  0.00  0.00    +0.095 C 
ENDBRANCH  12  17
ENDBRANCH   4  10
BRANCH   6  22
ATOM     21  O   UNL     1      35.370 -23.100 -17.040  0.00  0.00    -0.290 OA
ATOM     22  C   UNL     1      34.299 -22.589 -17.425  0.00  0.00    +0.191 C 
BRANCH  22  24
ATOM     23  S   UNL     1      33.183 -23.509 -15.133  0.00  0.00    -0.084 S 
ATOM     24  C   UNL     1      33.045 -22.858 -16.682  0.00  0.00    +0.065 C 
ATOM     25  C   UNL     1      31.789 -22.639 -17.108  0.00  0.00    +0.010 C 
ATOM     26  C   UNL     1      30.855 -23.027 -16.106  0.00  0.00    +0.008 C 
ATOM     27  C   UNL     1      31.477 -23.517 -14.979  0.00  0.00    +0.036 C 
ENDBRANCH  22  24
ENDBRANCH   6  22
TORSDOF 4
ENDMDL
