MODEL 1
REMARK VINA RESULT:     -12.3      0.000      0.000
REMARK  Name = 11634458
REMARK  5 active torsions:
REMARK  status: ('A' for Active; 'I' for Inactive)
REMARK    1  A    between atoms: N_3  and  C_11
REMARK    2  A    between atoms: C_4  and  C_19
REMARK    3  A    between atoms: C_5  and  O_35
REMARK    4  A    between atoms: N_18  and  C_22
REMARK    5  A    between atoms: C_25  and  N_29
REMARK                            x       y       z     vdW  Elec       q    Type
REMARK                         _______ _______ _______ _____ _____    ______ ____
ROOT
ATOM      1  O   UNL     1      32.174 -23.618 -12.488  0.00  0.00    -0.252 OA
ATOM      2  N   UNL     1      34.040 -24.076 -13.746  0.00  0.00    -0.255 N 
ATOM      3  N   UNL     1      31.992 -23.654 -14.811  0.00  0.00    -0.268 N 
ATOM      4  C   UNL     1      34.752 -24.441 -14.970  0.00  0.00    +0.156 C 
ATOM      5  C   UNL     1      36.298 -24.450 -13.123  0.00  0.00    +0.137 C 
ATOM      6  C   UNL     1      36.053 -25.085 -14.490  0.00  0.00    +0.061 C 
ATOM      7  C   UNL     1      34.898 -24.224 -12.573  0.00  0.00    +0.125 C 
ATOM      8  C   UNL     1      32.678 -23.770 -13.602  0.00  0.00    +0.308 C 
ATOM      9  H   UNL     1      32.525 -23.801 -15.626  0.00  0.00    +0.156 HD
ENDROOT
BRANCH   3  11
ATOM     10 CL   UNL     1      26.267 -22.381 -15.638  0.00  0.00    -0.082 Cl
ATOM     11  C   UNL     1      30.623 -23.350 -15.009  0.00  0.00    +0.052 C 
ATOM     12  C   UNL     1      29.894 -24.033 -15.979  0.00  0.00    +0.016 C 
ATOM     13  C   UNL     1      30.012 -22.368 -14.233  0.00  0.00    +0.016 C 
ATOM     14  C   UNL     1      28.545 -23.734 -16.174  0.00  0.00    +0.013 C 
ATOM     15  C   UNL     1      28.664 -22.068 -14.428  0.00  0.00    +0.013 C 
ATOM     16  C   UNL     1      27.931 -22.751 -15.398  0.00  0.00    +0.058 C 
ENDBRANCH   3  11
BRANCH   4  19
ATOM     17  O   UNL     1      35.568 -22.226 -15.226  0.00  0.00    -0.273 OA
ATOM     18  N   UNL     1      34.588 -23.317 -17.065  0.00  0.00    -0.281 N 
ATOM     19  C   UNL     1      35.026 -23.192 -15.753  0.00  0.00    +0.244 C 
ATOM     20  H   UNL     1      34.170 -24.176 -17.304  0.00  0.00    +0.155 HD
BRANCH  18  22
ATOM     21  F   UNL     1      32.304 -22.191 -18.172  0.00  0.00    -0.203 F 
ATOM     22  C   UNL     1      34.672 -22.354 -18.098  0.00  0.00    +0.078 C 
ATOM     23  C   UNL     1      33.510 -21.816 -18.623  0.00  0.00    +0.155 C 
ATOM     24  C   UNL     1      35.920 -21.970 -18.562  0.00  0.00    +0.018 C 
ATOM     25  C   UNL     1      34.844 -20.470 -20.121  0.00  0.00    +0.061 C 
ATOM     26  C   UNL     1      33.596 -20.867 -19.642  0.00  0.00    +0.046 C 
ATOM     27  C   UNL     1      36.006 -21.021 -19.581  0.00  0.00    +0.017 C 
BRANCH  25  29
ATOM     28  O   UNL     1      36.232 -17.939 -19.936  0.00  0.00    -0.269 OA
ATOM     29  N   UNL     1      34.934 -19.483 -21.181  0.00  0.00    -0.233 N 
ATOM     30  C   UNL     1      35.681 -18.294 -20.978  0.00  0.00    +0.257 C 
ATOM     31  C   UNL     1      34.271 -19.684 -22.393  0.00  0.00    +0.072 C 
ATOM     32  C   UNL     1      35.761 -17.354 -22.138  0.00  0.00    +0.059 C 
ATOM     33  C   UNL     1      34.331 -18.811 -23.403  0.00  0.00    +0.017 C 
ATOM     34  C   UNL     1      35.106 -17.614 -23.271  0.00  0.00    +0.006 C 
ENDBRANCH  25  29
ENDBRANCH  18  22
ENDBRANCH   4  19
BRANCH   5  35
ATOM     35  O   UNL     1      36.972 -23.207 -13.285  0.00  0.00    -0.352 OA
ATOM     36  C   UNL     1      37.531 -22.755 -12.060  0.00  0.00    +0.174 C 
ENDBRANCH   5  35
TORSDOF 5
ENDMDL
MODEL 2
REMARK VINA RESULT:     -11.0      0.882      1.155
REMARK  Name = 11634458
REMARK  5 active torsions:
REMARK  status: ('A' for Active; 'I' for Inactive)
REMARK    1  A    between atoms: N_3  and  C_11
REMARK    2  A    between atoms: C_4  and  C_19
REMARK    3  A    between atoms: C_5  and  O_35
REMARK    4  A    between atoms: N_18  and  C_22
REMARK    5  A    between atoms: C_25  and  N_29
REMARK                            x       y       z     vdW  Elec       q    Type
REMARK                         _______ _______ _______ _____ _____    ______ ____
ROOT
ATOM      1  O   UNL     1      32.081 -23.709 -12.292  0.00  0.00    -0.252 OA
ATOM      2  N   UNL     1      34.019 -24.209 -13.417  0.00  0.00    -0.255 N 
ATOM      3  N   UNL     1      32.051 -23.784 -14.621  0.00  0.00    -0.268 N 
ATOM      4  C   UNL     1      34.806 -24.603 -14.584  0.00  0.00    +0.156 C 
ATOM      5  C   UNL     1      36.227 -24.597 -12.640  0.00  0.00    +0.137 C 
ATOM      6  C   UNL     1      36.065 -25.252 -14.010  0.00  0.00    +0.061 C 
ATOM      7  C   UNL     1      34.797 -24.346 -12.187  0.00  0.00    +0.125 C 
ATOM      8  C   UNL     1      32.655 -23.886 -13.368  0.00  0.00    +0.308 C 
ATOM      9  H   UNL     1      32.634 -23.951 -15.397  0.00  0.00    +0.156 HD
ENDROOT
BRANCH   3  11
ATOM     10 CL   UNL     1      26.408 -22.463 -15.844  0.00  0.00    -0.082 Cl
ATOM     11  C   UNL     1      30.702 -23.468 -14.914  0.00  0.00    +0.052 C 
ATOM     12  C   UNL     1      30.001 -24.222 -15.851  0.00  0.00    +0.016 C 
ATOM     13  C   UNL     1      30.082 -22.404 -14.263  0.00  0.00    +0.016 C 
ATOM     14  C   UNL     1      28.672 -23.911 -16.140  0.00  0.00    +0.013 C 
ATOM     15  C   UNL     1      28.754 -22.093 -14.551  0.00  0.00    +0.013 C 
ATOM     16  C   UNL     1      28.048 -22.847 -15.489  0.00  0.00    +0.058 C 
ENDBRANCH   3  11
BRANCH   4  19
ATOM     17  O   UNL     1      35.695 -22.414 -14.830  0.00  0.00    -0.273 OA
ATOM     18  N   UNL     1      34.756 -23.498 -16.696  0.00  0.00    -0.281 N 
ATOM     19  C   UNL     1      35.146 -23.370 -15.369  0.00  0.00    +0.244 C 
ATOM     20  H   UNL     1      34.323 -24.347 -16.943  0.00  0.00    +0.155 HD
BRANCH  18  22
ATOM     21  F   UNL     1      32.554 -22.470 -18.039  0.00  0.00    -0.203 F 
ATOM     22  C   UNL     1      34.907 -22.548 -17.734  0.00  0.00    +0.078 C 
ATOM     23  C   UNL     1      33.784 -22.060 -18.378  0.00  0.00    +0.155 C 
ATOM     24  C   UNL     1      36.181 -22.128 -18.083  0.00  0.00    +0.018 C 
ATOM     25  C   UNL     1      35.212 -20.692 -19.766  0.00  0.00    +0.061 C 
ATOM     26  C   UNL     1      33.937 -21.125 -19.402  0.00  0.00    +0.046 C 
ATOM     27  C   UNL     1      36.334 -21.194 -19.106  0.00  0.00    +0.017 C 
BRANCH  25  29
ATOM     28  O   UNL     1      33.215 -20.052 -21.758  0.00  0.00    -0.269 OA
ATOM     29  N   UNL     1      35.371 -19.720 -20.831  0.00  0.00    -0.233 N 
ATOM     30  C   UNL     1      34.298 -19.467 -21.724  0.00  0.00    +0.257 C 
ATOM     31  C   UNL     1      36.582 -19.045 -21.000  0.00  0.00    +0.072 C 
ATOM     32  C   UNL     1      34.529 -18.416 -22.762  0.00  0.00    +0.059 C 
ATOM     33  C   UNL     1      36.774 -18.133 -21.958  0.00  0.00    +0.017 C 
ATOM     34  C   UNL     1      35.712 -17.806 -22.860  0.00  0.00    +0.006 C 
ENDBRANCH  25  29
ENDBRANCH  18  22
ENDBRANCH   4  19
BRANCH   5  35
ATOM     35  O   UNL     1      36.925 -23.364 -12.778  0.00  0.00    -0.352 OA
ATOM     36  C   UNL     1      37.495 -22.948 -11.545  0.00  0.00    +0.174 C 
ENDBRANCH   5  35
TORSDOF 5
ENDMDL
MODEL 3
REMARK VINA RESULT:     -11.0      2.018      2.799
REMARK  Name = 11634458
REMARK  5 active torsions:
REMARK  status: ('A' for Active; 'I' for Inactive)
REMARK    1  A    between atoms: N_3  and  C_11
REMARK    2  A    between atoms: C_4  and  C_19
REMARK    3  A    between atoms: C_5  and  O_35
REMARK    4  A    between atoms: N_18  and  C_22
REMARK    5  A    between atoms: C_25  and  N_29
REMARK                            x       y       z     vdW  Elec       q    Type
REMARK                         _______ _______ _______ _____ _____    ______ ____
ROOT
ATOM      1  O   UNL     1      33.507 -23.521 -11.630  0.00  0.00    -0.252 OA
ATOM      2  N   UNL     1      35.307 -24.739 -12.372  0.00  0.00    -0.255 N 
ATOM      3  N   UNL     1      33.326 -24.708 -13.629  0.00  0.00    -0.268 N 
ATOM      4  C   UNL     1      35.974 -25.742 -13.201  0.00  0.00    +0.156 C 
ATOM      5  C   UNL     1      37.503 -24.974 -11.508  0.00  0.00    +0.137 C 
ATOM      6  C   UNL     1      37.188 -26.183 -12.385  0.00  0.00    +0.061 C 
ATOM      7  C   UNL     1      36.139 -24.360 -11.233  0.00  0.00    +0.125 C 
ATOM      8  C   UNL     1      33.991 -24.265 -12.485  0.00  0.00    +0.308 C 
ATOM      9  H   UNL     1      33.839 -25.299 -14.226  0.00  0.00    +0.156 HD
ENDROOT
BRANCH   3  11
ATOM     10 CL   UNL     1      27.793 -23.454 -15.332  0.00  0.00    -0.082 Cl
ATOM     11  C   UNL     1      32.003 -24.408 -14.036  0.00  0.00    +0.052 C 
ATOM     12  C   UNL     1      30.985 -25.332 -13.819  0.00  0.00    +0.016 C 
ATOM     13  C   UNL     1      31.727 -23.190 -14.653  0.00  0.00    +0.016 C 
ATOM     14  C   UNL     1      29.681 -25.037 -14.220  0.00  0.00    +0.013 C 
ATOM     15  C   UNL     1      30.424 -22.895 -15.054  0.00  0.00    +0.013 C 
ATOM     16  C   UNL     1      29.401 -23.819 -14.837  0.00  0.00    +0.058 C 
ENDBRANCH   3  11
BRANCH   4  19
ATOM     17  O   UNL     1      37.379 -25.497 -15.100  0.00  0.00    -0.273 OA
ATOM     18  N   UNL     1      35.546 -24.049 -14.823  0.00  0.00    -0.281 N 
ATOM     19  C   UNL     1      36.395 -25.094 -14.487  0.00  0.00    +0.244 C 
ATOM     20  H   UNL     1      34.804 -23.872 -14.200  0.00  0.00    +0.155 HD
BRANCH  18  22
ATOM     21  F   UNL     1      37.780 -22.469 -15.296  0.00  0.00    -0.203 F 
ATOM     22  C   UNL     1      35.622 -23.207 -15.958  0.00  0.00    +0.078 C 
ATOM     23  C   UNL     1      36.753 -22.435 -16.158  0.00  0.00    +0.155 C 
ATOM     24  C   UNL     1      34.558 -23.173 -16.846  0.00  0.00    +0.018 C 
ATOM     25  C   UNL     1      35.763 -21.560 -18.180  0.00  0.00    +0.061 C 
ATOM     26  C   UNL     1      36.825 -21.606 -17.277  0.00  0.00    +0.046 C 
ATOM     27  C   UNL     1      34.630 -22.344 -17.964  0.00  0.00    +0.017 C 
BRANCH  25  29
ATOM     28  O   UNL     1      33.551 -20.917 -19.930  0.00  0.00    -0.269 OA
ATOM     29  N   UNL     1      35.837 -20.697 -19.344  0.00  0.00    -0.233 N 
ATOM     30  C   UNL     1      34.667 -20.427 -20.100  0.00  0.00    +0.257 C 
ATOM     31  C   UNL     1      37.057 -20.145 -19.740  0.00  0.00    +0.072 C 
ATOM     32  C   UNL     1      34.823 -19.490 -21.255  0.00  0.00    +0.059 C 
ATOM     33  C   UNL     1      37.176 -19.336 -20.798  0.00  0.00    +0.017 C 
ATOM     34  C   UNL     1      36.021 -18.995 -21.572  0.00  0.00    +0.006 C 
ENDBRANCH  25  29
ENDBRANCH  18  22
ENDBRANCH   4  19
BRANCH   5  35
ATOM     35  O   UNL     1      38.321 -24.059 -12.230  0.00  0.00    -0.352 OA
ATOM     36  C   UNL     1      38.026 -22.712 -11.884  0.00  0.00    +0.174 C 
ENDBRANCH   5  35
TORSDOF 5
ENDMDL
MODEL 4
REMARK VINA RESULT:      -9.9     11.067     16.809
REMARK  Name = 11634458
REMARK  5 active torsions:
REMARK  status: ('A' for Active; 'I' for Inactive)
REMARK    1  A    between atoms: N_3  and  C_11
REMARK    2  A    between atoms: C_4  and  C_19
REMARK    3  A    between atoms: C_5  and  O_35
REMARK    4  A    between atoms: N_18  and  C_22
REMARK    5  A    between atoms: C_25  and  N_29
REMARK                            x       y       z     vdW  Elec       q    Type
REMARK                         _______ _______ _______ _____ _____    ______ ____
ROOT
ATOM      1  O   UNL     1      33.614  -3.910 -23.497  0.00  0.00    -0.252 OA
ATOM      2  N   UNL     1      32.417  -5.757 -22.842  0.00  0.00    -0.255 N 
ATOM      3  N   UNL     1      33.087  -5.538 -25.080  0.00  0.00    -0.268 N 
ATOM      4  C   UNL     1      31.610  -6.956 -23.063  0.00  0.00    +0.156 C 
ATOM      5  C   UNL     1      31.636  -6.444 -20.710  0.00  0.00    +0.137 C 
ATOM      6  C   UNL     1      30.785  -7.116 -21.785  0.00  0.00    +0.061 C 
ATOM      7  C   UNL     1      32.333  -5.314 -21.453  0.00  0.00    +0.125 C 
ATOM      8  C   UNL     1      33.085  -4.980 -23.801  0.00  0.00    +0.308 C 
ATOM      9  H   UNL     1      32.624  -6.401 -25.176  0.00  0.00    +0.156 HD
ENDROOT
BRANCH   3  11
ATOM     10 CL   UNL     1      35.547  -3.341 -30.000  0.00  0.00    -0.082 Cl
ATOM     11  C   UNL     1      33.676  -5.012 -26.257  0.00  0.00    +0.052 C 
ATOM     12  C   UNL     1      32.866  -4.505 -27.269  0.00  0.00    +0.016 C 
ATOM     13  C   UNL     1      35.061  -5.007 -26.395  0.00  0.00    +0.016 C 
ATOM     14  C   UNL     1      33.445  -3.987 -28.429  0.00  0.00    +0.013 C 
ATOM     15  C   UNL     1      35.640  -4.489 -27.554  0.00  0.00    +0.013 C 
ATOM     16  C   UNL     1      34.832  -3.980 -28.571  0.00  0.00    +0.058 C 
ENDBRANCH   3  11
BRANCH   4  19
ATOM     17  O   UNL     1      33.678  -7.956 -23.662  0.00  0.00    -0.273 OA
ATOM     18  N   UNL     1      31.902  -9.318 -22.937  0.00  0.00    -0.281 N 
ATOM     19  C   UNL     1      32.531  -8.123 -23.260  0.00  0.00    +0.244 C 
ATOM     20  H   UNL     1      30.968  -9.250 -22.631  0.00  0.00    +0.155 HD
BRANCH  18  22
ATOM     21  F   UNL     1      31.140 -11.279 -21.125  0.00  0.00    -0.203 F 
ATOM     22  C   UNL     1      32.447 -10.622 -22.995  0.00  0.00    +0.078 C 
ATOM     23  C   UNL     1      32.041 -11.572 -22.074  0.00  0.00    +0.155 C 
ATOM     24  C   UNL     1      33.379 -10.920 -23.977  0.00  0.00    +0.018 C 
ATOM     25  C   UNL     1      33.520 -13.173 -23.116  0.00  0.00    +0.061 C 
ATOM     26  C   UNL     1      32.581 -12.856 -22.134  0.00  0.00    +0.046 C 
ATOM     27  C   UNL     1      33.919 -12.205 -24.037  0.00  0.00    +0.017 C 
BRANCH  25  29
ATOM     28  O   UNL     1      33.480 -14.897 -25.438  0.00  0.00    -0.269 OA
ATOM     29  N   UNL     1      34.082 -14.509 -23.178  0.00  0.00    -0.233 N 
ATOM     30  C   UNL     1      34.033 -15.240 -24.393  0.00  0.00    +0.257 C 
ATOM     31  C   UNL     1      34.652 -15.091 -22.044  0.00  0.00    +0.072 C 
ATOM     32  C   UNL     1      34.677 -16.589 -24.383  0.00  0.00    +0.059 C 
ATOM     33  C   UNL     1      35.191 -16.314 -22.053  0.00  0.00    +0.017 C 
ATOM     34  C   UNL     1      35.210 -17.080 -23.262  0.00  0.00    +0.006 C 
ENDBRANCH  25  29
ENDBRANCH  18  22
ENDBRANCH   4  19
BRANCH   5  35
ATOM     35  O   UNL     1      32.594  -7.370 -20.209  0.00  0.00    -0.352 OA
ATOM     36  C   UNL     1      31.967  -8.459 -19.546  0.00  0.00    +0.174 C 
ENDBRANCH   5  35
TORSDOF 5
ENDMDL
