MODEL 1
REMARK VINA RESULT:     -12.2      0.000      0.000
REMARK  Name = 24882195
REMARK  2 active torsions:
REMARK  status: ('A' for Active; 'I' for Inactive)
REMARK    1  A    between atoms: C_5  and  N_15
REMARK    2  A    between atoms: N_15  and  C_21
REMARK                            x       y       z     vdW  Elec       q    Type
REMARK                         _______ _______ _______ _____ _____    ______ ____
ROOT
ATOM      1  C   UNL     1      35.202 -22.428 -17.321  0.00  0.00    +0.001 C 
ATOM      2  C   UNL     1      33.823 -22.449 -17.625  0.00  0.00    +0.000 C 
ATOM      3  C   UNL     1      35.609 -20.992 -19.263  0.00  0.00    +0.000 C 
ATOM      4  C   UNL     1      34.230 -21.013 -19.569  0.00  0.00    +0.000 C 
ATOM      5  C   UNL     1      34.787 -23.855 -15.393  0.00  0.00    +0.049 C 
ATOM      6  C   UNL     1      36.077 -21.700 -18.144  0.00  0.00    +0.000 C 
ATOM      7  C   UNL     1      35.668 -23.137 -16.202  0.00  0.00    +0.015 C 
ATOM      8  C   UNL     1      33.355 -21.741 -18.745  0.00  0.00    +0.000 C 
ATOM      9  C   UNL     1      32.948 -23.177 -16.802  0.00  0.00    +0.001 C 
ATOM     10  C   UNL     1      33.428 -23.876 -15.693  0.00  0.00    +0.015 C 
ATOM     11  C   UNL     1      36.483 -20.265 -20.087  0.00  0.00    +0.000 C 
ATOM     12  C   UNL     1      33.763 -20.305 -20.688  0.00  0.00    +0.000 C 
ATOM     13  C   UNL     1      36.004 -19.566 -21.196  0.00  0.00    +0.000 C 
ATOM     14  C   UNL     1      34.645 -19.586 -21.495  0.00  0.00    +0.000 C 
ENDROOT
BRANCH   5  15
ATOM     15  N   UNL     1      35.273 -24.561 -14.272  0.00  0.00    -0.299 N 
ATOM     16  H   UNL     1      34.588 -24.965 -13.692  0.00  0.00    +0.153 HD
BRANCH  15  21
ATOM     17  N   UNL     1      36.992 -24.091 -12.735  0.00  0.00    -0.106 N 
ATOM     18  N   UNL     1      39.207 -25.013 -12.893  0.00  0.00    -0.340 NA
ATOM     19  N   UNL     1      36.301 -23.255 -11.916  0.00  0.00    -0.139 NA
ATOM     20  N   UNL     1      38.436 -23.497 -11.163  0.00  0.00    -0.145 NA
ATOM     21  C   UNL     1      36.553 -24.755 -13.888  0.00  0.00    +0.138 C 
ATOM     22  C   UNL     1      37.425 -25.539 -14.541  0.00  0.00    +0.061 C 
ATOM     23  C   UNL     1      38.297 -24.225 -12.253  0.00  0.00    +0.174 C 
ATOM     24  C   UNL     1      38.800 -25.629 -13.963  0.00  0.00    +0.125 C 
ATOM     25  C   UNL     1      39.789 -26.505 -14.687  0.00  0.00    +0.068 C 
ATOM     26  C   UNL     1      37.212 -22.936 -11.002  0.00  0.00    +0.230 C 
ENDBRANCH  15  21
ENDBRANCH   5  15
TORSDOF 2
ENDMDL
MODEL 2
REMARK VINA RESULT:     -12.0      1.045      2.321
REMARK  Name = 24882195
REMARK  2 active torsions:
REMARK  status: ('A' for Active; 'I' for Inactive)
REMARK    1  A    between atoms: C_5  and  N_15
REMARK    2  A    between atoms: N_15  and  C_21
REMARK                            x       y       z     vdW  Elec       q    Type
REMARK                         _______ _______ _______ _____ _____    ______ ____
ROOT
ATOM      1  C   UNL     1      34.946 -22.264 -17.607  0.00  0.00    +0.001 C 
ATOM      2  C   UNL     1      33.610 -22.154 -18.049  0.00  0.00    +0.000 C 
ATOM      3  C   UNL     1      35.675 -20.824 -19.450  0.00  0.00    +0.000 C 
ATOM      4  C   UNL     1      34.339 -20.713 -19.893  0.00  0.00    +0.000 C 
ATOM      5  C   UNL     1      34.212 -23.694 -15.779  0.00  0.00    +0.049 C 
ATOM      6  C   UNL     1      35.961 -21.598 -18.313  0.00  0.00    +0.000 C 
ATOM      7  C   UNL     1      35.231 -23.039 -16.471  0.00  0.00    +0.015 C 
ATOM      8  C   UNL     1      33.323 -21.380 -19.186  0.00  0.00    +0.000 C 
ATOM      9  C   UNL     1      32.595 -22.820 -17.342  0.00  0.00    +0.001 C 
ATOM     10  C   UNL     1      32.895 -23.585 -16.215  0.00  0.00    +0.015 C 
ATOM     11  C   UNL     1      36.689 -20.158 -20.157  0.00  0.00    +0.000 C 
ATOM     12  C   UNL     1      34.052 -19.939 -21.029  0.00  0.00    +0.000 C 
ATOM     13  C   UNL     1      36.389 -19.393 -21.284  0.00  0.00    +0.000 C 
ATOM     14  C   UNL     1      35.073 -19.284 -21.719  0.00  0.00    +0.000 C 
ENDROOT
BRANCH   5  15
ATOM     15  N   UNL     1      34.516 -24.468 -14.639  0.00  0.00    -0.299 N 
ATOM     16  H   UNL     1      33.813 -25.090 -14.345  0.00  0.00    +0.153 HD
BRANCH  15  21
ATOM     17  N   UNL     1      36.613 -25.436 -14.187  0.00  0.00    -0.106 N 
ATOM     18  N   UNL     1      38.097 -24.654 -12.465  0.00  0.00    -0.340 NA
ATOM     19  N   UNL     1      36.589 -26.410 -15.135  0.00  0.00    -0.139 NA
ATOM     20  N   UNL     1      38.535 -26.515 -13.957  0.00  0.00    -0.145 NA
ATOM     21  C   UNL     1      35.645 -24.466 -13.897  0.00  0.00    +0.138 C 
ATOM     22  C   UNL     1      35.892 -23.598 -12.904  0.00  0.00    +0.061 C 
ATOM     23  C   UNL     1      37.816 -25.520 -13.479  0.00  0.00    +0.174 C 
ATOM     24  C   UNL     1      37.198 -23.754 -12.196  0.00  0.00    +0.125 C 
ATOM     25  C   UNL     1      37.489 -22.786 -11.077  0.00  0.00    +0.068 C 
ATOM     26  C   UNL     1      37.757 -27.017 -14.949  0.00  0.00    +0.230 C 
ENDBRANCH  15  21
ENDBRANCH   5  15
TORSDOF 2
ENDMDL
MODEL 3
REMARK VINA RESULT:     -11.8      3.157      5.168
REMARK  Name = 24882195
REMARK  2 active torsions:
REMARK  status: ('A' for Active; 'I' for Inactive)
REMARK    1  A    between atoms: C_5  and  N_15
REMARK    2  A    between atoms: N_15  and  C_21
REMARK                            x       y       z     vdW  Elec       q    Type
REMARK                         _______ _______ _______ _____ _____    ______ ____
ROOT
ATOM      1  C   UNL     1      34.287 -21.408 -19.339  0.00  0.00    +0.001 C 
ATOM      2  C   UNL     1      35.600 -21.270 -18.840  0.00  0.00    +0.000 C 
ATOM      3  C   UNL     1      34.799 -19.810 -21.124  0.00  0.00    +0.000 C 
ATOM      4  C   UNL     1      36.113 -19.672 -20.625  0.00  0.00    +0.000 C 
ATOM      5  C   UNL     1      33.788 -22.994 -17.562  0.00  0.00    +0.049 C 
ATOM      6  C   UNL     1      33.903 -20.675 -20.475  0.00  0.00    +0.000 C 
ATOM      7  C   UNL     1      33.392 -22.273 -18.689  0.00  0.00    +0.015 C 
ATOM      8  C   UNL     1      36.497 -20.404 -19.489  0.00  0.00    +0.000 C 
ATOM      9  C   UNL     1      35.984 -22.003 -17.704  0.00  0.00    +0.001 C 
ATOM     10  C   UNL     1      35.083 -22.859 -17.069  0.00  0.00    +0.015 C 
ATOM     11  C   UNL     1      34.416 -19.077 -22.260  0.00  0.00    +0.000 C 
ATOM     12  C   UNL     1      37.008 -18.807 -21.275  0.00  0.00    +0.000 C 
ATOM     13  C   UNL     1      35.317 -18.221 -22.894  0.00  0.00    +0.000 C 
ATOM     14  C   UNL     1      36.611 -18.087 -22.402  0.00  0.00    +0.000 C 
ENDROOT
BRANCH   5  15
ATOM     15  N   UNL     1      32.876 -23.859 -16.921  0.00  0.00    -0.299 N 
ATOM     16  H   UNL     1      32.879 -24.792 -17.236  0.00  0.00    +0.153 HD
BRANCH  15  21
ATOM     17  N   UNL     1      32.442 -23.717 -14.613  0.00  0.00    -0.106 N 
ATOM     18  N   UNL     1      30.325 -23.039 -13.696  0.00  0.00    -0.340 NA
ATOM     19  N   UNL     1      33.662 -24.105 -14.157  0.00  0.00    -0.139 NA
ATOM     20  N   UNL     1      32.281 -23.661 -12.403  0.00  0.00    -0.145 NA
ATOM     21  C   UNL     1      31.998 -23.577 -15.934  0.00  0.00    +0.138 C 
ATOM     22  C   UNL     1      30.735 -23.174 -16.142  0.00  0.00    +0.061 C 
ATOM     23  C   UNL     1      31.613 -23.449 -13.519  0.00  0.00    +0.174 C 
ATOM     24  C   UNL     1      29.914 -22.909 -14.922  0.00  0.00    +0.125 C 
ATOM     25  C   UNL     1      28.492 -22.456 -15.141  0.00  0.00    +0.068 C 
ATOM     26  C   UNL     1      33.504 -24.052 -12.839  0.00  0.00    +0.230 C 
ENDBRANCH  15  21
ENDBRANCH   5  15
TORSDOF 2
ENDMDL
MODEL 4
REMARK VINA RESULT:     -11.6      1.959      3.622
REMARK  Name = 24882195
REMARK  2 active torsions:
REMARK  status: ('A' for Active; 'I' for Inactive)
REMARK    1  A    between atoms: C_5  and  N_15
REMARK    2  A    between atoms: N_15  and  C_21
REMARK                            x       y       z     vdW  Elec       q    Type
REMARK                         _______ _______ _______ _____ _____    ______ ____
ROOT
ATOM      1  C   UNL     1      35.373 -21.397 -18.763  0.00  0.00    +0.001 C 
ATOM      2  C   UNL     1      34.067 -21.290 -19.288  0.00  0.00    +0.000 C 
ATOM      3  C   UNL     1      36.194 -19.871 -20.495  0.00  0.00    +0.000 C 
ATOM      4  C   UNL     1      34.888 -19.763 -21.020  0.00  0.00    +0.000 C 
ATOM      5  C   UNL     1      34.548 -22.913 -17.047  0.00  0.00    +0.049 C 
ATOM      6  C   UNL     1      36.420 -20.687 -19.374  0.00  0.00    +0.000 C 
ATOM      7  C   UNL     1      35.598 -22.214 -17.643  0.00  0.00    +0.015 C 
ATOM      8  C   UNL     1      33.840 -20.474 -20.410  0.00  0.00    +0.000 C 
ATOM      9  C   UNL     1      33.020 -22.000 -18.677  0.00  0.00    +0.001 C 
ATOM     10  C   UNL     1      33.260 -22.807 -17.564  0.00  0.00    +0.015 C 
ATOM     11  C   UNL     1      37.240 -19.161 -21.106  0.00  0.00    +0.000 C 
ATOM     12  C   UNL     1      34.662 -18.947 -22.141  0.00  0.00    +0.000 C 
ATOM     13  C   UNL     1      37.000 -18.354 -22.219  0.00  0.00    +0.000 C 
ATOM     14  C   UNL     1      35.713 -18.248 -22.735  0.00  0.00    +0.000 C 
ENDROOT
BRANCH   5  15
ATOM     15  N   UNL     1      34.791 -23.728 -15.921  0.00  0.00    -0.299 N 
ATOM     16  H   UNL     1      35.618 -24.262 -15.951  0.00  0.00    +0.153 HD
BRANCH  15  21
ATOM     17  N   UNL     1      34.692 -24.263 -13.632  0.00  0.00    -0.106 N 
ATOM     18  N   UNL     1      32.660 -24.244 -12.347  0.00  0.00    -0.340 NA
ATOM     19  N   UNL     1      36.011 -24.523 -13.432  0.00  0.00    -0.139 NA
ATOM     20  N   UNL     1      34.858 -24.805 -11.489  0.00  0.00    -0.145 NA
ATOM     21  C   UNL     1      34.039 -23.874 -14.809  0.00  0.00    +0.138 C 
ATOM     22  C   UNL     1      32.714 -23.671 -14.764  0.00  0.00    +0.061 C 
ATOM     23  C   UNL     1      34.006 -24.441 -12.427  0.00  0.00    +0.174 C 
ATOM     24  C   UNL     1      32.054 -23.883 -13.440  0.00  0.00    +0.125 C 
ATOM     25  C   UNL     1      30.565 -23.659 -13.375  0.00  0.00    +0.068 C 
ATOM     26  C   UNL     1      36.047 -24.839 -12.142  0.00  0.00    +0.230 C 
ENDBRANCH  15  21
ENDBRANCH   5  15
TORSDOF 2
ENDMDL
MODEL 5
REMARK VINA RESULT:     -11.5      6.122     10.278
REMARK  Name = 24882195
REMARK  2 active torsions:
REMARK  status: ('A' for Active; 'I' for Inactive)
REMARK    1  A    between atoms: C_5  and  N_15
REMARK    2  A    between atoms: N_15  and  C_21
REMARK                            x       y       z     vdW  Elec       q    Type
REMARK                         _______ _______ _______ _____ _____    ______ ____
ROOT
ATOM      1  C   UNL     1      34.760 -19.887 -20.639  0.00  0.00    +0.001 C 
ATOM      2  C   UNL     1      36.057 -20.115 -20.130  0.00  0.00    +0.000 C 
ATOM      3  C   UNL     1      33.836 -21.440 -18.984  0.00  0.00    +0.000 C 
ATOM      4  C   UNL     1      35.133 -21.669 -18.474  0.00  0.00    +0.000 C 
ATOM      5  C   UNL     1      35.687 -18.346 -22.279  0.00  0.00    +0.049 C 
ATOM      6  C   UNL     1      33.667 -20.553 -20.060  0.00  0.00    +0.000 C 
ATOM      7  C   UNL     1      34.591 -19.000 -21.715  0.00  0.00    +0.015 C 
ATOM      8  C   UNL     1      36.227 -21.003 -19.054  0.00  0.00    +0.000 C 
ATOM      9  C   UNL     1      37.150 -19.450 -20.709  0.00  0.00    +0.001 C 
ATOM     10  C   UNL     1      36.965 -18.571 -21.777  0.00  0.00    +0.015 C 
ATOM     11  C   UNL     1      32.744 -22.106 -18.405  0.00  0.00    +0.000 C 
ATOM     12  C   UNL     1      35.303 -22.556 -17.399  0.00  0.00    +0.000 C 
ATOM     13  C   UNL     1      32.929 -22.984 -17.337  0.00  0.00    +0.000 C 
ATOM     14  C   UNL     1      34.206 -23.209 -16.835  0.00  0.00    +0.000 C 
ENDROOT
BRANCH   5  15
ATOM     15  N   UNL     1      35.499 -17.458 -23.359  0.00  0.00    -0.299 N 
ATOM     16  H   UNL     1      35.894 -17.738 -24.216  0.00  0.00    +0.153 HD
BRANCH  15  21
ATOM     17  N   UNL     1      34.658 -15.626 -22.145  0.00  0.00    -0.106 N 
ATOM     18  N   UNL     1      33.512 -13.770 -23.159  0.00  0.00    -0.340 NA
ATOM     19  N   UNL     1      35.037 -16.021 -20.902  0.00  0.00    -0.139 NA
ATOM     20  N   UNL     1      33.959 -14.019 -20.788  0.00  0.00    -0.145 NA
ATOM     21  C   UNL     1      34.850 -16.273 -23.373  0.00  0.00    +0.138 C 
ATOM     22  C   UNL     1      34.383 -15.683 -24.483  0.00  0.00    +0.061 C 
ATOM     23  C   UNL     1      34.000 -14.395 -22.050  0.00  0.00    +0.174 C 
ATOM     24  C   UNL     1      33.692 -14.371 -24.298  0.00  0.00    +0.125 C 
ATOM     25  C   UNL     1      33.160 -13.698 -25.538  0.00  0.00    +0.068 C 
ATOM     26  C   UNL     1      34.595 -15.026 -20.139  0.00  0.00    +0.230 C 
ENDBRANCH  15  21
ENDBRANCH   5  15
TORSDOF 2
ENDMDL
MODEL 6
REMARK VINA RESULT:     -11.5      3.156      4.743
REMARK  Name = 24882195
REMARK  2 active torsions:
REMARK  status: ('A' for Active; 'I' for Inactive)
REMARK    1  A    between atoms: C_5  and  N_15
REMARK    2  A    between atoms: N_15  and  C_21
REMARK                            x       y       z     vdW  Elec       q    Type
REMARK                         _______ _______ _______ _____ _____    ______ ____
ROOT
ATOM      1  C   UNL     1      34.216 -21.337 -19.138  0.00  0.00    +0.001 C 
ATOM      2  C   UNL     1      35.564 -21.370 -18.718  0.00  0.00    +0.000 C 
ATOM      3  C   UNL     1      34.824 -19.833 -20.973  0.00  0.00    +0.000 C 
ATOM      4  C   UNL     1      36.173 -19.865 -20.554  0.00  0.00    +0.000 C 
ATOM      5  C   UNL     1      33.622 -22.832 -17.311  0.00  0.00    +0.049 C 
ATOM      6  C   UNL     1      33.864 -20.568 -20.259  0.00  0.00    +0.000 C 
ATOM      7  C   UNL     1      33.257 -22.073 -18.423  0.00  0.00    +0.015 C 
ATOM      8  C   UNL     1      36.525 -20.633 -19.431  0.00  0.00    +0.000 C 
ATOM      9  C   UNL     1      35.916 -22.139 -17.596  0.00  0.00    +0.001 C 
ATOM     10  C   UNL     1      34.951 -22.865 -16.897  0.00  0.00    +0.015 C 
ATOM     11  C   UNL     1      34.473 -19.063 -22.094  0.00  0.00    +0.000 C 
ATOM     12  C   UNL     1      37.133 -19.129 -21.267  0.00  0.00    +0.000 C 
ATOM     13  C   UNL     1      35.438 -18.337 -22.792  0.00  0.00    +0.000 C 
ATOM     14  C   UNL     1      36.766 -18.370 -22.380  0.00  0.00    +0.000 C 
ENDROOT
BRANCH   5  15
ATOM     15  N   UNL     1      32.646 -23.566 -16.606  0.00  0.00    -0.299 N 
ATOM     16  H   UNL     1      31.865 -23.855 -17.132  0.00  0.00    +0.153 HD
BRANCH  15  21
ATOM     17  N   UNL     1      31.431 -24.389 -14.765  0.00  0.00    -0.106 N 
ATOM     18  N   UNL     1      32.387 -24.733 -12.586  0.00  0.00    -0.340 NA
ATOM     19  N   UNL     1      30.227 -24.541 -15.375  0.00  0.00    -0.139 NA
ATOM     20  N   UNL     1      30.081 -25.175 -13.193  0.00  0.00    -0.145 NA
ATOM     21  C   UNL     1      32.638 -23.924 -15.303  0.00  0.00    +0.138 C 
ATOM     22  C   UNL     1      33.711 -23.861 -14.499  0.00  0.00    +0.061 C 
ATOM     23  C   UNL     1      31.318 -24.785 -13.429  0.00  0.00    +0.174 C 
ATOM     24  C   UNL     1      33.507 -24.301 -13.085  0.00  0.00    +0.125 C 
ATOM     25  C   UNL     1      34.704 -24.234 -12.170  0.00  0.00    +0.068 C 
ATOM     26  C   UNL     1      29.467 -25.011 -14.392  0.00  0.00    +0.230 C 
ENDBRANCH  15  21
ENDBRANCH   5  15
TORSDOF 2
ENDMDL
MODEL 7
REMARK VINA RESULT:     -11.4      1.513      3.083
REMARK  Name = 24882195
REMARK  2 active torsions:
REMARK  status: ('A' for Active; 'I' for Inactive)
REMARK    1  A    between atoms: C_5  and  N_15
REMARK    2  A    between atoms: N_15  and  C_21
REMARK                            x       y       z     vdW  Elec       q    Type
REMARK                         _______ _______ _______ _____ _____    ______ ____
ROOT
ATOM      1  C   UNL     1      35.013 -22.050 -17.840  0.00  0.00    +0.001 C 
ATOM      2  C   UNL     1      36.357 -21.622 -17.781  0.00  0.00    +0.000 C 
ATOM      3  C   UNL     1      34.694 -20.765 -19.902  0.00  0.00    +0.000 C 
ATOM      4  C   UNL     1      36.039 -20.336 -19.843  0.00  0.00    +0.000 C 
ATOM      5  C   UNL     1      35.339 -23.323 -15.792  0.00  0.00    +0.049 C 
ATOM      6  C   UNL     1      34.199 -21.615 -18.900  0.00  0.00    +0.000 C 
ATOM      7  C   UNL     1      34.519 -22.900 -16.838  0.00  0.00    +0.015 C 
ATOM      8  C   UNL     1      36.854 -20.771 -18.784  0.00  0.00    +0.000 C 
ATOM      9  C   UNL     1      37.171 -22.057 -16.722  0.00  0.00    +0.001 C 
ATOM     10  C   UNL     1      36.665 -22.902 -15.734  0.00  0.00    +0.015 C 
ATOM     11  C   UNL     1      33.882 -20.329 -20.961  0.00  0.00    +0.000 C 
ATOM     12  C   UNL     1      36.534 -19.486 -20.846  0.00  0.00    +0.000 C 
ATOM     13  C   UNL     1      34.388 -19.485 -21.949  0.00  0.00    +0.000 C 
ATOM     14  C   UNL     1      35.712 -19.064 -21.891  0.00  0.00    +0.000 C 
ENDROOT
BRANCH   5  15
ATOM     15  N   UNL     1      34.827 -24.178 -14.793  0.00  0.00    -0.299 N 
ATOM     16  H   UNL     1      33.895 -24.469 -14.918  0.00  0.00    +0.153 HD
BRANCH  15  21
ATOM     17  N   UNL     1      36.470 -25.584 -13.867  0.00  0.00    -0.106 N 
ATOM     18  N   UNL     1      36.884 -25.773 -11.506  0.00  0.00    -0.340 NA
ATOM     19  N   UNL     1      36.955 -26.110 -15.023  0.00  0.00    -0.139 NA
ATOM     20  N   UNL     1      38.075 -26.979 -13.242  0.00  0.00    -0.145 NA
ATOM     21  C   UNL     1      35.444 -24.647 -13.688  0.00  0.00    +0.138 C 
ATOM     22  C   UNL     1      35.137 -24.273 -12.437  0.00  0.00    +0.061 C 
ATOM     23  C   UNL     1      37.173 -26.131 -12.789  0.00  0.00    +0.174 C 
ATOM     24  C   UNL     1      35.932 -24.904 -11.340  0.00  0.00    +0.125 C 
ATOM     25  C   UNL     1      35.596 -24.493  -9.929  0.00  0.00    +0.068 C 
ATOM     26  C   UNL     1      37.905 -26.930 -14.587  0.00  0.00    +0.230 C 
ENDBRANCH  15  21
ENDBRANCH   5  15
TORSDOF 2
ENDMDL
MODEL 8
REMARK VINA RESULT:     -11.3      2.322      4.363
REMARK  Name = 24882195
REMARK  2 active torsions:
REMARK  status: ('A' for Active; 'I' for Inactive)
REMARK    1  A    between atoms: C_5  and  N_15
REMARK    2  A    between atoms: N_15  and  C_21
REMARK                            x       y       z     vdW  Elec       q    Type
REMARK                         _______ _______ _______ _____ _____    ______ ____
ROOT
ATOM      1  C   UNL     1      34.793 -21.450 -19.154  0.00  0.00    +0.001 C 
ATOM      2  C   UNL     1      36.101 -21.041 -18.813  0.00  0.00    +0.000 C 
ATOM      3  C   UNL     1      34.820 -19.932 -21.077  0.00  0.00    +0.000 C 
ATOM      4  C   UNL     1      36.128 -19.523 -20.737  0.00  0.00    +0.000 C 
ATOM      5  C   UNL     1      34.776 -22.954 -17.241  0.00  0.00    +0.049 C 
ATOM      6  C   UNL     1      34.170 -20.890 -20.281  0.00  0.00    +0.000 C 
ATOM      7  C   UNL     1      34.143 -22.407 -18.357  0.00  0.00    +0.015 C 
ATOM      8  C   UNL     1      36.752 -20.083 -19.609  0.00  0.00    +0.000 C 
ATOM      9  C   UNL     1      36.724 -21.601 -17.686  0.00  0.00    +0.001 C 
ATOM     10  C   UNL     1      36.065 -22.552 -16.905  0.00  0.00    +0.015 C 
ATOM     11  C   UNL     1      34.198 -19.371 -22.204  0.00  0.00    +0.000 C 
ATOM     12  C   UNL     1      36.778 -18.565 -21.532  0.00  0.00    +0.000 C 
ATOM     13  C   UNL     1      34.856 -18.421 -22.985  0.00  0.00    +0.000 C 
ATOM     14  C   UNL     1      36.145 -18.019 -22.649  0.00  0.00    +0.000 C 
ENDROOT
BRANCH   5  15
ATOM     15  N   UNL     1      34.109 -23.915 -16.452  0.00  0.00    -0.299 N 
ATOM     16  H   UNL     1      34.200 -24.849 -16.749  0.00  0.00    +0.153 HD
BRANCH  15  21
ATOM     17  N   UNL     1      33.962 -23.973 -14.104  0.00  0.00    -0.106 N 
ATOM     18  N   UNL     1      31.978 -23.387 -12.880  0.00  0.00    -0.340 NA
ATOM     19  N   UNL     1      35.227 -24.393 -13.837  0.00  0.00    -0.139 NA
ATOM     20  N   UNL     1      34.074 -24.108 -11.895  0.00  0.00    -0.145 NA
ATOM     21  C   UNL     1      33.360 -23.723 -15.344  0.00  0.00    +0.138 C 
ATOM     22  C   UNL     1      32.084 -23.311 -15.360  0.00  0.00    +0.061 C 
ATOM     23  C   UNL     1      33.275 -23.805 -12.898  0.00  0.00    +0.174 C 
ATOM     24  C   UNL     1      31.419 -23.155 -14.031  0.00  0.00    +0.125 C 
ATOM     25  C   UNL     1      29.984 -22.693 -14.034  0.00  0.00    +0.068 C 
ATOM     26  C   UNL     1      35.233 -24.454 -12.510  0.00  0.00    +0.230 C 
ENDBRANCH  15  21
ENDBRANCH   5  15
TORSDOF 2
ENDMDL
MODEL 9
REMARK VINA RESULT:     -11.1      1.574      2.812
REMARK  Name = 24882195
REMARK  2 active torsions:
REMARK  status: ('A' for Active; 'I' for Inactive)
REMARK    1  A    between atoms: C_5  and  N_15
REMARK    2  A    between atoms: N_15  and  C_21
REMARK                            x       y       z     vdW  Elec       q    Type
REMARK                         _______ _______ _______ _____ _____    ______ ____
ROOT
ATOM      1  C   UNL     1      36.502 -20.970 -18.579  0.00  0.00    +0.001 C 
ATOM      2  C   UNL     1      35.191 -21.478 -18.713  0.00  0.00    +0.000 C 
ATOM      3  C   UNL     1      36.207 -19.668 -20.633  0.00  0.00    +0.000 C 
ATOM      4  C   UNL     1      34.896 -20.176 -20.768  0.00  0.00    +0.000 C 
ATOM      5  C   UNL     1      36.785 -22.268 -16.540  0.00  0.00    +0.049 C 
ATOM      6  C   UNL     1      36.992 -20.072 -19.542  0.00  0.00    +0.000 C 
ATOM      7  C   UNL     1      37.287 -21.375 -17.487  0.00  0.00    +0.015 C 
ATOM      8  C   UNL     1      34.404 -21.075 -19.805  0.00  0.00    +0.000 C 
ATOM      9  C   UNL     1      34.701 -22.376 -17.751  0.00  0.00    +0.001 C 
ATOM     10  C   UNL     1      35.493 -22.768 -16.671  0.00  0.00    +0.015 C 
ATOM     11  C   UNL     1      36.696 -18.770 -21.596  0.00  0.00    +0.000 C 
ATOM     12  C   UNL     1      34.110 -19.771 -21.860  0.00  0.00    +0.000 C 
ATOM     13  C   UNL     1      35.904 -18.378 -22.675  0.00  0.00    +0.000 C 
ATOM     14  C   UNL     1      34.612 -18.878 -22.806  0.00  0.00    +0.000 C 
ENDROOT
BRANCH   5  15
ATOM     15  N   UNL     1      37.587 -22.663 -15.449  0.00  0.00    -0.299 N 
ATOM     16  H   UNL     1      38.485 -22.262 -15.411  0.00  0.00    +0.153 HD
BRANCH  15  21
ATOM     17  N   UNL     1      38.231 -24.508 -14.137  0.00  0.00    -0.106 N 
ATOM     18  N   UNL     1      36.870 -25.436 -12.385  0.00  0.00    -0.340 NA
ATOM     19  N   UNL     1      39.444 -24.740 -14.704  0.00  0.00    -0.139 NA
ATOM     20  N   UNL     1      39.060 -26.248 -13.042  0.00  0.00    -0.145 NA
ATOM     21  C   UNL     1      37.287 -23.522 -14.450  0.00  0.00    +0.138 C 
ATOM     22  C   UNL     1      36.146 -23.486 -13.744  0.00  0.00    +0.061 C 
ATOM     23  C   UNL     1      38.018 -25.444 -13.120  0.00  0.00    +0.174 C 
ATOM     24  C   UNL     1      35.994 -24.520 -12.676  0.00  0.00    +0.125 C 
ATOM     25  C   UNL     1      34.717 -24.493 -11.876  0.00  0.00    +0.068 C 
ATOM     26  C   UNL     1      39.887 -25.784 -14.012  0.00  0.00    +0.230 C 
ENDBRANCH  15  21
ENDBRANCH   5  15
TORSDOF 2
ENDMDL
