MODEL 1
REMARK VINA RESULT:     -13.1      0.000      0.000
REMARK  Name = 11840906
REMARK  7 active torsions:
REMARK  status: ('A' for Active; 'I' for Inactive)
REMARK    1  A    between atoms: O_1  and  C_3
REMARK    2  A    between atoms: O_1  and  C_18
REMARK    3  A    between atoms: C_5  and  C_9
REMARK    4  A    between atoms: C_18  and  C_19
REMARK    5  A    between atoms: C_19  and  N_20
REMARK    6  A    between atoms: C_19  and  C_24
REMARK    7  A    between atoms: C_24  and  C_26
REMARK                            x       y       z     vdW  Elec       q    Type
REMARK                         _______ _______ _______ _____ _____    ______ ____
ROOT
ATOM      1  O   UNL     1      35.245 -15.057 -23.176  0.00  0.00    -0.476 OA
ENDROOT
BRANCH   1   3
ATOM      2  N   UNL     1      34.124 -18.240 -24.554  0.00  0.00    -0.239 NA
ATOM      3  C   UNL     1      34.957 -16.396 -23.255  0.00  0.00    +0.158 C 
ATOM      4  C   UNL     1      35.191 -17.229 -22.176  0.00  0.00    +0.040 C 
ATOM      5  C   UNL     1      34.889 -18.582 -22.286  0.00  0.00    +0.022 C 
ATOM      6  C   UNL     1      34.431 -16.932 -24.410  0.00  0.00    +0.136 C 
ATOM      7  C   UNL     1      34.362 -19.033 -23.485  0.00  0.00    +0.099 C 
BRANCH   5   9
ATOM      8  N   UNL     1      34.721 -22.825 -17.396  0.00  0.00    -0.242 NA
ATOM      9  C   UNL     1      35.117 -19.487 -21.184  0.00  0.00    +0.002 C 
ATOM     10  C   UNL     1      34.252 -21.067 -19.546  0.00  0.00    +0.003 C 
ATOM     11  C   UNL     1      34.046 -20.185 -20.619  0.00  0.00    +0.000 C 
ATOM     12  C   UNL     1      35.557 -21.243 -19.042  0.00  0.00    +0.019 C 
ATOM     13  C   UNL     1      36.405 -19.664 -20.682  0.00  0.00    +0.000 C 
ATOM     14  C   UNL     1      36.628 -20.537 -19.616  0.00  0.00    +0.002 C 
ATOM     15  C   UNL     1      33.199 -21.780 -18.960  0.00  0.00    +0.021 C 
ATOM     16  C   UNL     1      35.724 -22.128 -17.976  0.00  0.00    +0.099 C 
ATOM     17  C   UNL     1      33.484 -22.632 -17.905  0.00  0.00    +0.099 C 
ENDBRANCH   5   9
ENDBRANCH   1   3
BRANCH   1  18
ATOM     18  C   UNL     1      34.219 -14.210 -22.677  0.00  0.00    +0.184 C 
BRANCH  18  19
ATOM     19  C   UNL     1      33.836 -13.176 -23.741  0.00  0.00    -0.021 C 
BRANCH  19  20
ATOM     20  N   UNL     1      32.861 -13.779 -24.650  0.00  0.00    +0.384 N 
ATOM     21  H   UNL     1      31.940 -13.782 -24.209  0.00  0.00    -0.089 HD
ATOM     22  H   UNL     1      33.139 -14.738 -24.860  0.00  0.00    -0.089 HD
ATOM     23  H   UNL     1      32.822 -13.239 -25.514  0.00  0.00    -0.089 HD
ENDBRANCH  19  20
BRANCH  19  24
ATOM     24  C   UNL     1      33.273 -11.889 -23.100  0.00  0.00    -0.012 C 
BRANCH  24  26
ATOM     25  N   UNL     1      35.286  -9.559 -24.671  0.00  0.00    -0.270 NA
ATOM     26  C   UNL     1      33.279 -10.688 -24.027  0.00  0.00    +0.046 C 
ATOM     27  C   UNL     1      33.395  -9.376 -23.321  0.00  0.00    -0.007 C 
ATOM     28  C   UNL     1      34.570 -10.630 -24.836  0.00  0.00    +0.130 C 
ATOM     29  C   UNL     1      34.583  -8.768 -23.744  0.00  0.00    +0.071 C 
ATOM     30  C   UNL     1      32.551  -8.765 -22.413  0.00  0.00    -0.024 C 
ATOM     31  C   UNL     1      34.957  -7.527 -23.256  0.00  0.00    +0.014 C 
ATOM     32  C   UNL     1      32.922  -7.514 -21.916  0.00  0.00    +0.052 C 
ATOM     33  C   UNL     1      34.115  -6.900 -22.334  0.00  0.00    -0.020 C 
ENDBRANCH  24  26
ENDBRANCH  19  24
ENDBRANCH  18  19
ENDBRANCH   1  18
TORSDOF 7
ENDMDL
MODEL 2
REMARK VINA RESULT:     -12.3      1.498      2.179
REMARK  Name = 11840906
REMARK  7 active torsions:
REMARK  status: ('A' for Active; 'I' for Inactive)
REMARK    1  A    between atoms: O_1  and  C_3
REMARK    2  A    between atoms: O_1  and  C_18
REMARK    3  A    between atoms: C_5  and  C_9
REMARK    4  A    between atoms: C_18  and  C_19
REMARK    5  A    between atoms: C_19  and  N_20
REMARK    6  A    between atoms: C_19  and  C_24
REMARK    7  A    between atoms: C_24  and  C_26
REMARK                            x       y       z     vdW  Elec       q    Type
REMARK                         _______ _______ _______ _____ _____    ______ ____
ROOT
ATOM      1  O   UNL     1      34.544 -13.650 -22.938  0.00  0.00    -0.476 OA
ENDROOT
BRANCH   1   3
ATOM      2  N   UNL     1      34.140 -16.678 -24.926  0.00  0.00    -0.239 NA
ATOM      3  C   UNL     1      34.548 -14.979 -23.273  0.00  0.00    +0.158 C 
ATOM      4  C   UNL     1      34.944 -15.934 -22.354  0.00  0.00    +0.040 C 
ATOM      5  C   UNL     1      34.938 -17.274 -22.723  0.00  0.00    +0.022 C 
ATOM      6  C   UNL     1      34.160 -15.385 -24.531  0.00  0.00    +0.136 C 
ATOM      7  C   UNL     1      34.532 -17.591 -24.009  0.00  0.00    +0.099 C 
BRANCH   5   9
ATOM      8  N   UNL     1      35.578 -22.150 -18.509  0.00  0.00    -0.242 NA
ATOM      9  C   UNL     1      35.343 -18.304 -21.795  0.00  0.00    +0.002 C 
ATOM     10  C   UNL     1      34.765 -20.152 -20.318  0.00  0.00    +0.003 C 
ATOM     11  C   UNL     1      34.386 -19.147 -21.224  0.00  0.00    +0.000 C 
ATOM     12  C   UNL     1      36.127 -20.301 -19.990  0.00  0.00    +0.019 C 
ATOM     13  C   UNL     1      36.689 -18.455 -21.465  0.00  0.00    +0.000 C 
ATOM     14  C   UNL     1      37.082 -19.448 -20.567  0.00  0.00    +0.002 C 
ATOM     15  C   UNL     1      33.828 -21.012 -19.732  0.00  0.00    +0.021 C 
ATOM     16  C   UNL     1      36.466 -21.310 -19.086  0.00  0.00    +0.099 C 
ATOM     17  C   UNL     1      34.282 -21.979 -18.849  0.00  0.00    +0.099 C 
ENDBRANCH   5   9
ENDBRANCH   1   3
BRANCH   1  18
ATOM     18  C   UNL     1      33.412 -12.891 -23.344  0.00  0.00    +0.184 C 
BRANCH  18  19
ATOM     19  C   UNL     1      33.833 -11.448 -23.639  0.00  0.00    -0.021 C 
BRANCH  19  20
ATOM     20  N   UNL     1      34.215 -11.350 -25.048  0.00  0.00    +0.384 N 
ATOM     21  H   UNL     1      35.205 -11.112 -25.116  0.00  0.00    -0.089 HD
ATOM     22  H   UNL     1      33.659 -10.625 -25.502  0.00  0.00    -0.089 HD
ATOM     23  H   UNL     1      34.048 -12.244 -25.509  0.00  0.00    -0.089 HD
ENDBRANCH  19  20
BRANCH  19  24
ATOM     24  C   UNL     1      32.704 -10.451 -23.300  0.00  0.00    -0.012 C 
BRANCH  24  26
ATOM     25  N   UNL     1      31.662  -7.577 -21.687  0.00  0.00    -0.270 NA
ATOM     26  C   UNL     1      33.112  -9.372 -22.315  0.00  0.00    +0.046 C 
ATOM     27  C   UNL     1      33.546  -8.094 -22.958  0.00  0.00    -0.007 C 
ATOM     28  C   UNL     1      31.902  -8.846 -21.550  0.00  0.00    +0.130 C 
ATOM     29  C   UNL     1      32.662  -7.089 -22.547  0.00  0.00    +0.071 C 
ATOM     30  C   UNL     1      34.605  -7.827 -23.804  0.00  0.00    -0.024 C 
ATOM     31  C   UNL     1      32.819  -5.785 -22.984  0.00  0.00    +0.014 C 
ATOM     32  C   UNL     1      34.770  -6.514 -24.249  0.00  0.00    +0.052 C 
ATOM     33  C   UNL     1      33.885  -5.502 -23.844  0.00  0.00    -0.020 C 
ENDBRANCH  24  26
ENDBRANCH  19  24
ENDBRANCH  18  19
ENDBRANCH   1  18
TORSDOF 7
ENDMDL
MODEL 3
REMARK VINA RESULT:     -12.2      1.493      1.900
REMARK  Name = 11840906
REMARK  7 active torsions:
REMARK  status: ('A' for Active; 'I' for Inactive)
REMARK    1  A    between atoms: O_1  and  C_3
REMARK    2  A    between atoms: O_1  and  C_18
REMARK    3  A    between atoms: C_5  and  C_9
REMARK    4  A    between atoms: C_18  and  C_19
REMARK    5  A    between atoms: C_19  and  N_20
REMARK    6  A    between atoms: C_19  and  C_24
REMARK    7  A    between atoms: C_24  and  C_26
REMARK                            x       y       z     vdW  Elec       q    Type
REMARK                         _______ _______ _______ _____ _____    ______ ____
ROOT
ATOM      1  O   UNL     1      34.839 -14.943 -23.137  0.00  0.00    -0.476 OA
ENDROOT
BRANCH   1   3
ATOM      2  N   UNL     1      34.263 -18.212 -24.642  0.00  0.00    -0.239 NA
ATOM      3  C   UNL     1      34.744 -16.305 -23.257  0.00  0.00    +0.158 C 
ATOM      4  C   UNL     1      35.018 -17.126 -22.178  0.00  0.00    +0.040 C 
ATOM      5  C   UNL     1      34.913 -18.505 -22.331  0.00  0.00    +0.022 C 
ATOM      6  C   UNL     1      34.376 -16.878 -24.455  0.00  0.00    +0.136 C 
ATOM      7  C   UNL     1      34.535 -18.992 -23.571  0.00  0.00    +0.099 C 
BRANCH   5   9
ATOM      8  N   UNL     1      34.964 -22.741 -17.433  0.00  0.00    -0.242 NA
ATOM      9  C   UNL     1      35.188 -19.398 -21.230  0.00  0.00    +0.002 C 
ATOM     10  C   UNL     1      34.404 -21.007 -19.579  0.00  0.00    +0.003 C 
ATOM     11  C   UNL     1      34.151 -20.135 -20.651  0.00  0.00    +0.000 C 
ATOM     12  C   UNL     1      35.720 -21.132 -19.092  0.00  0.00    +0.019 C 
ATOM     13  C   UNL     1      36.488 -19.525 -20.743  0.00  0.00    +0.000 C 
ATOM     14  C   UNL     1      36.756 -20.387 -19.679  0.00  0.00    +0.002 C 
ATOM     15  C   UNL     1      33.385 -21.758 -18.979  0.00  0.00    +0.021 C 
ATOM     16  C   UNL     1      35.933 -22.008 -18.026  0.00  0.00    +0.099 C 
ATOM     17  C   UNL     1      33.715 -22.596 -17.927  0.00  0.00    +0.099 C 
ENDBRANCH   5   9
ENDBRANCH   1   3
BRANCH   1  18
ATOM     18  C   UNL     1      33.831 -14.172 -23.777  0.00  0.00    +0.184 C 
BRANCH  18  19
ATOM     19  C   UNL     1      33.132 -13.275 -22.749  0.00  0.00    -0.021 C 
BRANCH  19  20
ATOM     20  N   UNL     1      33.428 -13.782 -21.409  0.00  0.00    +0.384 N 
ATOM     21  H   UNL     1      33.343 -14.799 -21.403  0.00  0.00    -0.089 HD
ATOM     22  H   UNL     1      32.768 -13.382 -20.741  0.00  0.00    -0.089 HD
ATOM     23  H   UNL     1      34.378 -13.519 -21.147  0.00  0.00    -0.089 HD
ENDBRANCH  19  20
BRANCH  19  24
ATOM     24  C   UNL     1      33.572 -11.803 -22.895  0.00  0.00    -0.012 C 
BRANCH  24  26
ATOM     25  N   UNL     1      32.757  -8.444 -22.839  0.00  0.00    -0.270 NA
ATOM     26  C   UNL     1      32.424 -10.812 -22.853  0.00  0.00    +0.046 C 
ATOM     27  C   UNL     1      32.154 -10.250 -21.495  0.00  0.00    -0.007 C 
ATOM     28  C   UNL     1      32.795  -9.517 -23.569  0.00  0.00    +0.130 C 
ATOM     29  C   UNL     1      32.362  -8.867 -21.557  0.00  0.00    +0.071 C 
ATOM     30  C   UNL     1      31.757 -10.872 -20.328  0.00  0.00    -0.024 C 
ATOM     31  C   UNL     1      32.182  -8.072 -20.437  0.00  0.00    +0.014 C 
ATOM     32  C   UNL     1      31.573 -10.078 -19.194  0.00  0.00    +0.052 C 
ATOM     33  C   UNL     1      31.784  -8.690 -19.248  0.00  0.00    -0.020 C 
ENDBRANCH  24  26
ENDBRANCH  19  24
ENDBRANCH  18  19
ENDBRANCH   1  18
TORSDOF 7
ENDMDL
MODEL 4
REMARK VINA RESULT:     -12.2      1.788     10.913
REMARK  Name = 11840906
REMARK  7 active torsions:
REMARK  status: ('A' for Active; 'I' for Inactive)
REMARK    1  A    between atoms: O_1  and  C_3
REMARK    2  A    between atoms: O_1  and  C_18
REMARK    3  A    between atoms: C_5  and  C_9
REMARK    4  A    between atoms: C_18  and  C_19
REMARK    5  A    between atoms: C_19  and  N_20
REMARK    6  A    between atoms: C_19  and  C_24
REMARK    7  A    between atoms: C_24  and  C_26
REMARK                            x       y       z     vdW  Elec       q    Type
REMARK                         _______ _______ _______ _____ _____    ______ ____
ROOT
ATOM      1  O   UNL     1      35.601 -17.291 -22.052  0.00  0.00    -0.476 OA
ENDROOT
BRANCH   1   3
ATOM      2  N   UNL     1      34.114 -16.033 -25.133  0.00  0.00    -0.239 NA
ATOM      3  C   UNL     1      34.939 -16.454 -22.913  0.00  0.00    +0.158 C 
ATOM      4  C   UNL     1      34.445 -15.241 -22.472  0.00  0.00    +0.040 C 
ATOM      5  C   UNL     1      33.778 -14.414 -23.369  0.00  0.00    +0.022 C 
ATOM      6  C   UNL     1      34.756 -16.810 -24.232  0.00  0.00    +0.136 C 
ATOM      7  C   UNL     1      33.640 -14.852 -24.676  0.00  0.00    +0.099 C 
BRANCH   5   9
ATOM      8  N   UNL     1      32.099  -8.241 -22.361  0.00  0.00    -0.242 NA
ATOM      9  C   UNL     1      33.246 -13.138 -22.951  0.00  0.00    +0.002 C 
ATOM     10  C   UNL     1      33.148 -10.717 -23.196  0.00  0.00    +0.003 C 
ATOM     11  C   UNL     1      33.655 -11.965 -23.593  0.00  0.00    +0.000 C 
ATOM     12  C   UNL     1      32.217 -10.659 -22.139  0.00  0.00    +0.019 C 
ATOM     13  C   UNL     1      32.326 -13.074 -21.906  0.00  0.00    +0.000 C 
ATOM     14  C   UNL     1      31.812 -11.842 -21.499  0.00  0.00    +0.002 C 
ATOM     15  C   UNL     1      33.539  -9.526 -23.820  0.00  0.00    +0.021 C 
ATOM     16  C   UNL     1      31.734  -9.402 -21.772  0.00  0.00    +0.099 C 
ATOM     17  C   UNL     1      32.991  -8.334 -23.371  0.00  0.00    +0.099 C 
ENDBRANCH   5   9
ENDBRANCH   1   3
BRANCH   1  18
ATOM     18  C   UNL     1      35.443 -18.687 -22.268  0.00  0.00    +0.184 C 
BRANCH  18  19
ATOM     19  C   UNL     1      35.874 -19.459 -21.016  0.00  0.00    -0.021 C 
BRANCH  19  20
ATOM     20  N   UNL     1      36.754 -18.603 -20.219  0.00  0.00    +0.384 N 
ATOM     21  H   UNL     1      37.622 -19.101 -20.019  0.00  0.00    -0.089 HD
ATOM     22  H   UNL     1      36.291 -18.361 -19.343  0.00  0.00    -0.089 HD
ATOM     23  H   UNL     1      36.963 -17.751 -20.740  0.00  0.00    -0.089 HD
ENDBRANCH  19  20
BRANCH  19  24
ATOM     24  C   UNL     1      34.654 -19.921 -20.190  0.00  0.00    -0.012 C 
BRANCH  24  26
ATOM     25  N   UNL     1      33.043 -22.426 -18.436  0.00  0.00    -0.270 NA
ATOM     26  C   UNL     1      34.638 -21.410 -19.900  0.00  0.00    +0.046 C 
ATOM     27  C   UNL     1      35.278 -21.784 -18.602  0.00  0.00    -0.007 C 
ATOM     28  C   UNL     1      33.221 -21.892 -19.607  0.00  0.00    +0.130 C 
ATOM     29  C   UNL     1      34.295 -22.374 -17.797  0.00  0.00    +0.071 C 
ATOM     30  C   UNL     1      36.580 -21.637 -18.167  0.00  0.00    -0.024 C 
ATOM     31  C   UNL     1      34.600 -22.828 -16.525  0.00  0.00    +0.014 C 
ATOM     32  C   UNL     1      36.895 -22.093 -16.885  0.00  0.00    +0.052 C 
ATOM     33  C   UNL     1      35.914 -22.682 -16.071  0.00  0.00    -0.020 C 
ENDBRANCH  24  26
ENDBRANCH  19  24
ENDBRANCH  18  19
ENDBRANCH   1  18
TORSDOF 7
ENDMDL
MODEL 5
REMARK VINA RESULT:     -12.2      1.491     10.771
REMARK  Name = 11840906
REMARK  7 active torsions:
REMARK  status: ('A' for Active; 'I' for Inactive)
REMARK    1  A    between atoms: O_1  and  C_3
REMARK    2  A    between atoms: O_1  and  C_18
REMARK    3  A    between atoms: C_5  and  C_9
REMARK    4  A    between atoms: C_18  and  C_19
REMARK    5  A    between atoms: C_19  and  N_20
REMARK    6  A    between atoms: C_19  and  C_24
REMARK    7  A    between atoms: C_24  and  C_26
REMARK                            x       y       z     vdW  Elec       q    Type
REMARK                         _______ _______ _______ _____ _____    ______ ____
ROOT
ATOM      1  O   UNL     1      34.423 -15.595 -22.658  0.00  0.00    -0.476 OA
ENDROOT
BRANCH   1   3
ATOM      2  N   UNL     1      33.308 -13.992 -25.736  0.00  0.00    -0.239 NA
ATOM      3  C   UNL     1      34.071 -14.605 -23.539  0.00  0.00    +0.158 C 
ATOM      4  C   UNL     1      34.112 -13.277 -23.156  0.00  0.00    +0.040 C 
ATOM      5  C   UNL     1      33.749 -12.295 -24.072  0.00  0.00    +0.022 C 
ATOM      6  C   UNL     1      33.668 -14.918 -24.820  0.00  0.00    +0.136 C 
ATOM      7  C   UNL     1      33.358 -12.701 -25.337  0.00  0.00    +0.099 C 
BRANCH   5   9
ATOM      8  N   UNL     1      32.889  -6.279 -21.835  0.00  0.00    -0.242 NA
ATOM      9  C   UNL     1      33.778 -10.896 -23.714  0.00  0.00    +0.002 C 
ATOM     10  C   UNL     1      32.811  -9.009 -22.517  0.00  0.00    +0.003 C 
ATOM     11  C   UNL     1      32.796 -10.368 -22.872  0.00  0.00    +0.000 C 
ATOM     12  C   UNL     1      33.834  -8.180 -23.020  0.00  0.00    +0.019 C 
ATOM     13  C   UNL     1      34.787 -10.071 -24.210  0.00  0.00    +0.000 C 
ATOM     14  C   UNL     1      34.817  -8.719 -23.866  0.00  0.00    +0.002 C 
ATOM     15  C   UNL     1      31.841  -8.453 -21.675  0.00  0.00    +0.021 C 
ATOM     16  C   UNL     1      33.817  -6.835 -22.645  0.00  0.00    +0.099 C 
ATOM     17  C   UNL     1      31.926  -7.103 -21.370  0.00  0.00    +0.099 C 
ENDBRANCH   5   9
ENDBRANCH   1   3
BRANCH   1  18
ATOM     18  C   UNL     1      35.242 -16.641 -23.166  0.00  0.00    +0.184 C 
BRANCH  18  19
ATOM     19  C   UNL     1      34.483 -17.970 -23.104  0.00  0.00    -0.021 C 
BRANCH  19  20
ATOM     20  N   UNL     1      34.070 -18.336 -24.459  0.00  0.00    +0.384 N 
ATOM     21  H   UNL     1      33.173 -17.898 -24.671  0.00  0.00    -0.089 HD
ATOM     22  H   UNL     1      33.976 -19.350 -24.524  0.00  0.00    -0.089 HD
ATOM     23  H   UNL     1      34.771 -18.016 -25.127  0.00  0.00    -0.089 HD
ENDBRANCH  19  20
BRANCH  19  24
ATOM     24  C   UNL     1      35.344 -19.082 -22.468  0.00  0.00    -0.012 C 
BRANCH  24  26
ATOM     25  N   UNL     1      36.988 -20.299 -19.681  0.00  0.00    -0.270 NA
ATOM     26  C   UNL     1      35.441 -18.996 -20.956  0.00  0.00    +0.046 C 
ATOM     27  C   UNL     1      34.733 -20.099 -20.237  0.00  0.00    -0.007 C 
ATOM     28  C   UNL     1      36.862 -19.286 -20.483  0.00  0.00    +0.130 C 
ATOM     29  C   UNL     1      35.691 -20.817 -19.511  0.00  0.00    +0.071 C 
ATOM     30  C   UNL     1      33.395 -20.439 -20.207  0.00  0.00    -0.024 C 
ATOM     31  C   UNL     1      35.324 -21.904 -18.736  0.00  0.00    +0.014 C 
ATOM     32  C   UNL     1      33.017 -21.535 -19.429  0.00  0.00    +0.052 C 
ATOM     33  C   UNL     1      33.973 -22.262 -18.700  0.00  0.00    -0.020 C 
ENDBRANCH  24  26
ENDBRANCH  19  24
ENDBRANCH  18  19
ENDBRANCH   1  18
TORSDOF 7
ENDMDL
MODEL 6
REMARK VINA RESULT:     -11.8      3.358     11.808
REMARK  Name = 11840906
REMARK  7 active torsions:
REMARK  status: ('A' for Active; 'I' for Inactive)
REMARK    1  A    between atoms: O_1  and  C_3
REMARK    2  A    between atoms: O_1  and  C_18
REMARK    3  A    between atoms: C_5  and  C_9
REMARK    4  A    between atoms: C_18  and  C_19
REMARK    5  A    between atoms: C_19  and  N_20
REMARK    6  A    between atoms: C_19  and  C_24
REMARK    7  A    between atoms: C_24  and  C_26
REMARK                            x       y       z     vdW  Elec       q    Type
REMARK                         _______ _______ _______ _____ _____    ______ ____
ROOT
ATOM      1  O   UNL     1      31.567 -11.983 -21.542  0.00  0.00    -0.476 OA
ENDROOT
BRANCH   1   3
ATOM      2  N   UNL     1      31.991  -9.306 -19.104  0.00  0.00    -0.239 NA
ATOM      3  C   UNL     1      31.766 -10.725 -21.034  0.00  0.00    +0.158 C 
ATOM      4  C   UNL     1      31.939  -9.645 -21.879  0.00  0.00    +0.040 C 
ATOM      5  C   UNL     1      32.139  -8.381 -21.334  0.00  0.00    +0.022 C 
ATOM      6  C   UNL     1      31.799 -10.518 -19.671  0.00  0.00    +0.136 C 
ATOM      7  C   UNL     1      32.157  -8.266 -19.953  0.00  0.00    +0.099 C 
BRANCH   5   9
ATOM      8  N   UNL     1      33.959  -3.768 -25.499  0.00  0.00    -0.242 NA
ATOM      9  C   UNL     1      32.323  -7.226 -22.180  0.00  0.00    +0.002 C 
ATOM     10  C   UNL     1      33.621  -6.032 -23.858  0.00  0.00    +0.003 C 
ATOM     11  C   UNL     1      33.429  -7.150 -23.031  0.00  0.00    +0.000 C 
ATOM     12  C   UNL     1      32.681  -4.982 -23.823  0.00  0.00    +0.019 C 
ATOM     13  C   UNL     1      31.397  -6.184 -22.149  0.00  0.00    +0.000 C 
ATOM     14  C   UNL     1      31.573  -5.066 -22.965  0.00  0.00    +0.002 C 
ATOM     15  C   UNL     1      34.720  -5.928 -24.721  0.00  0.00    +0.021 C 
ATOM     16  C   UNL     1      32.905  -3.887 -24.660  0.00  0.00    +0.099 C 
ATOM     17  C   UNL     1      34.838  -4.793 -25.507  0.00  0.00    +0.099 C 
ENDBRANCH   5   9
ENDBRANCH   1   3
BRANCH   1  18
ATOM     18  C   UNL     1      32.488 -12.989 -21.140  0.00  0.00    +0.184 C 
BRANCH  18  19
ATOM     19  C   UNL     1      33.286 -13.476 -22.354  0.00  0.00    -0.021 C 
BRANCH  19  20
ATOM     20  N   UNL     1      34.092 -12.365 -22.861  0.00  0.00    +0.384 N 
ATOM     21  H   UNL     1      33.543 -11.505 -22.831  0.00  0.00    -0.089 HD
ATOM     22  H   UNL     1      34.369 -12.557 -23.824  0.00  0.00    -0.089 HD
ATOM     23  H   UNL     1      34.925 -12.257 -22.283  0.00  0.00    -0.089 HD
ENDBRANCH  19  20
BRANCH  19  24
ATOM     24  C   UNL     1      34.175 -14.686 -21.996  0.00  0.00    -0.012 C 
BRANCH  24  26
ATOM     25  N   UNL     1      33.598 -16.392 -24.947  0.00  0.00    -0.270 NA
ATOM     26  C   UNL     1      34.838 -15.339 -23.194  0.00  0.00    +0.046 C 
ATOM     27  C   UNL     1      34.945 -16.826 -23.095  0.00  0.00    -0.007 C 
ATOM     28  C   UNL     1      33.943 -15.253 -24.426  0.00  0.00    +0.130 C 
ATOM     29  C   UNL     1      34.204 -17.377 -24.148  0.00  0.00    +0.071 C 
ATOM     30  C   UNL     1      35.625 -17.620 -22.193  0.00  0.00    -0.024 C 
ATOM     31  C   UNL     1      34.123 -18.750 -24.314  0.00  0.00    +0.014 C 
ATOM     32  C   UNL     1      35.548 -19.005 -22.354  0.00  0.00    +0.052 C 
ATOM     33  C   UNL     1      34.803 -19.565 -23.405  0.00  0.00    -0.020 C 
ENDBRANCH  24  26
ENDBRANCH  19  24
ENDBRANCH  18  19
ENDBRANCH   1  18
TORSDOF 7
ENDMDL
MODEL 7
REMARK VINA RESULT:     -11.8      3.156     11.758
REMARK  Name = 11840906
REMARK  7 active torsions:
REMARK  status: ('A' for Active; 'I' for Inactive)
REMARK    1  A    between atoms: O_1  and  C_3
REMARK    2  A    between atoms: O_1  and  C_18
REMARK    3  A    between atoms: C_5  and  C_9
REMARK    4  A    between atoms: C_18  and  C_19
REMARK    5  A    between atoms: C_19  and  N_20
REMARK    6  A    between atoms: C_19  and  C_24
REMARK    7  A    between atoms: C_24  and  C_26
REMARK                            x       y       z     vdW  Elec       q    Type
REMARK                         _______ _______ _______ _____ _____    ______ ____
ROOT
ATOM      1  O   UNL     1      34.985 -21.771 -19.813  0.00  0.00    -0.476 OA
ENDROOT
BRANCH   1   3
ATOM      2  N   UNL     1      37.555 -19.187 -19.875  0.00  0.00    -0.239 NA
ATOM      3  C   UNL     1      35.635 -20.610 -20.145  0.00  0.00    +0.158 C 
ATOM      4  C   UNL     1      35.070 -19.720 -21.040  0.00  0.00    +0.040 C 
ATOM      5  C   UNL     1      35.753 -18.551 -21.357  0.00  0.00    +0.022 C 
ATOM      6  C   UNL     1      36.862 -20.312 -19.592  0.00  0.00    +0.136 C 
ATOM      7  C   UNL     1      36.980 -18.334 -20.753  0.00  0.00    +0.099 C 
BRANCH   5   9
ATOM      8  N   UNL     1      33.420 -13.471 -24.625  0.00  0.00    -0.242 NA
ATOM      9  C   UNL     1      35.199 -17.594 -22.286  0.00  0.00    +0.002 C 
ATOM     10  C   UNL     1      34.504 -15.318 -22.797  0.00  0.00    +0.003 C 
ATOM     11  C   UNL     1      35.042 -16.259 -21.905  0.00  0.00    +0.000 C 
ATOM     12  C   UNL     1      34.122 -15.736 -24.088  0.00  0.00    +0.019 C 
ATOM     13  C   UNL     1      34.819 -18.003 -23.564  0.00  0.00    +0.000 C 
ATOM     14  C   UNL     1      34.283 -17.080 -24.463  0.00  0.00    +0.002 C 
ATOM     15  C   UNL     1      34.335 -13.973 -22.443  0.00  0.00    +0.021 C 
ATOM     16  C   UNL     1      33.591 -14.773 -24.948  0.00  0.00    +0.099 C 
ATOM     17  C   UNL     1      33.798 -13.106 -23.381  0.00  0.00    +0.099 C 
ENDBRANCH   5   9
ENDBRANCH   1   3
BRANCH   1  18
ATOM     18  C   UNL     1      34.994 -22.140 -18.440  0.00  0.00    +0.184 C 
BRANCH  18  19
ATOM     19  C   UNL     1      33.556 -22.259 -17.924  0.00  0.00    -0.021 C 
BRANCH  19  20
ATOM     20  N   UNL     1      32.657 -22.385 -19.071  0.00  0.00    +0.384 N 
ATOM     21  H   UNL     1      32.998 -21.802 -19.836  0.00  0.00    -0.089 HD
ATOM     22  H   UNL     1      31.720 -22.082 -18.804  0.00  0.00    -0.089 HD
ATOM     23  H   UNL     1      32.626 -23.359 -19.374  0.00  0.00    -0.089 HD
ENDBRANCH  19  20
BRANCH  19  24
ATOM     24  C   UNL     1      33.399 -23.456 -16.963  0.00  0.00    -0.012 C 
BRANCH  24  26
ATOM     25  N   UNL     1      32.740 -24.624 -13.777  0.00  0.00    -0.270 NA
ATOM     26  C   UNL     1      32.841 -23.083 -15.602  0.00  0.00    +0.046 C 
ATOM     27  C   UNL     1      31.436 -23.539 -15.375  0.00  0.00    -0.007 C 
ATOM     28  C   UNL     1      33.525 -23.879 -14.495  0.00  0.00    +0.130 C 
ATOM     29  C   UNL     1      31.447 -24.431 -14.296  0.00  0.00    +0.071 C 
ATOM     30  C   UNL     1      30.266 -23.207 -16.030  0.00  0.00    -0.024 C 
ATOM     31  C   UNL     1      30.275 -25.019 -13.851  0.00  0.00    +0.014 C 
ATOM     32  C   UNL     1      29.080 -23.796 -15.587  0.00  0.00    +0.052 C 
ATOM     33  C   UNL     1      29.085 -24.695 -14.507  0.00  0.00    -0.020 C 
ENDBRANCH  24  26
ENDBRANCH  19  24
ENDBRANCH  18  19
ENDBRANCH   1  18
TORSDOF 7
ENDMDL
MODEL 8
REMARK VINA RESULT:     -11.5      1.371      2.292
REMARK  Name = 11840906
REMARK  7 active torsions:
REMARK  status: ('A' for Active; 'I' for Inactive)
REMARK    1  A    between atoms: O_1  and  C_3
REMARK    2  A    between atoms: O_1  and  C_18
REMARK    3  A    between atoms: C_5  and  C_9
REMARK    4  A    between atoms: C_18  and  C_19
REMARK    5  A    between atoms: C_19  and  N_20
REMARK    6  A    between atoms: C_19  and  C_24
REMARK    7  A    between atoms: C_24  and  C_26
REMARK                            x       y       z     vdW  Elec       q    Type
REMARK                         _______ _______ _______ _____ _____    ______ ____
ROOT
ATOM      1  O   UNL     1      35.342 -15.447 -22.900  0.00  0.00    -0.476 OA
ENDROOT
BRANCH   1   3
ATOM      2  N   UNL     1      34.335 -18.569 -24.490  0.00  0.00    -0.239 NA
ATOM      3  C   UNL     1      34.991 -16.765 -23.040  0.00  0.00    +0.158 C 
ATOM      4  C   UNL     1      34.936 -17.598 -21.938  0.00  0.00    +0.040 C 
ATOM      5  C   UNL     1      34.577 -18.930 -22.112  0.00  0.00    +0.022 C 
ATOM      6  C   UNL     1      34.688 -17.281 -24.282  0.00  0.00    +0.136 C 
ATOM      7  C   UNL     1      34.289 -19.362 -23.396  0.00  0.00    +0.099 C 
BRANCH   5   9
ATOM      8  N   UNL     1      35.448 -22.800 -16.993  0.00  0.00    -0.242 NA
ATOM      9  C   UNL     1      34.506 -19.834 -20.988  0.00  0.00    +0.002 C 
ATOM     10  C   UNL     1      35.610 -21.034 -19.179  0.00  0.00    +0.003 C 
ATOM     11  C   UNL     1      35.664 -20.155 -20.274  0.00  0.00    +0.000 C 
ATOM     12  C   UNL     1      34.371 -21.591 -18.806  0.00  0.00    +0.019 C 
ATOM     13  C   UNL     1      33.283 -20.389 -20.615  0.00  0.00    +0.000 C 
ATOM     14  C   UNL     1      33.212 -21.263 -19.530  0.00  0.00    +0.002 C 
ATOM     15  C   UNL     1      36.754 -21.374 -18.446  0.00  0.00    +0.021 C 
ATOM     16  C   UNL     1      34.356 -22.459 -17.714  0.00  0.00    +0.099 C 
ATOM     17  C   UNL     1      36.618 -22.247 -17.378  0.00  0.00    +0.099 C 
ENDBRANCH   5   9
ENDBRANCH   1   3
BRANCH   1  18
ATOM     18  C   UNL     1      34.290 -14.530 -22.627  0.00  0.00    +0.184 C 
BRANCH  18  19
ATOM     19  C   UNL     1      34.032 -13.654 -23.857  0.00  0.00    -0.021 C 
BRANCH  19  20
ATOM     20  N   UNL     1      32.698 -13.958 -24.376  0.00  0.00    +0.384 N 
ATOM     21  H   UNL     1      32.464 -13.299 -25.119  0.00  0.00    -0.089 HD
ATOM     22  H   UNL     1      32.014 -13.879 -23.624  0.00  0.00    -0.089 HD
ATOM     23  H   UNL     1      32.686 -14.908 -24.748  0.00  0.00    -0.089 HD
ENDBRANCH  19  20
BRANCH  19  24
ATOM     24  C   UNL     1      34.166 -12.154 -23.519  0.00  0.00    -0.012 C 
BRANCH  24  26
ATOM     25  N   UNL     1      32.695  -9.041 -23.210  0.00  0.00    -0.270 NA
ATOM     26  C   UNL     1      32.843 -11.412 -23.479  0.00  0.00    +0.046 C 
ATOM     27  C   UNL     1      32.381 -11.066 -22.101  0.00  0.00    -0.007 C 
ATOM     28  C   UNL     1      32.992 -10.000 -24.034  0.00  0.00    +0.130 C 
ATOM     29  C   UNL     1      32.312  -9.670 -22.012  0.00  0.00    +0.071 C 
ATOM     30  C   UNL     1      32.044 -11.878 -21.035  0.00  0.00    -0.024 C 
ATOM     31  C   UNL     1      31.907  -9.054 -20.841  0.00  0.00    +0.014 C 
ATOM     32  C   UNL     1      31.634 -11.263 -19.850  0.00  0.00    +0.052 C 
ATOM     33  C   UNL     1      31.566  -9.863 -19.753  0.00  0.00    -0.020 C 
ENDBRANCH  24  26
ENDBRANCH  19  24
ENDBRANCH  18  19
ENDBRANCH   1  18
TORSDOF 7
ENDMDL
MODEL 9
REMARK VINA RESULT:     -11.4      3.280      6.569
REMARK  Name = 11840906
REMARK  7 active torsions:
REMARK  status: ('A' for Active; 'I' for Inactive)
REMARK    1  A    between atoms: O_1  and  C_3
REMARK    2  A    between atoms: O_1  and  C_18
REMARK    3  A    between atoms: C_5  and  C_9
REMARK    4  A    between atoms: C_18  and  C_19
REMARK    5  A    between atoms: C_19  and  N_20
REMARK    6  A    between atoms: C_19  and  C_24
REMARK    7  A    between atoms: C_24  and  C_26
REMARK                            x       y       z     vdW  Elec       q    Type
REMARK                         _______ _______ _______ _____ _____    ______ ____
ROOT
ATOM      1  O   UNL     1      35.704 -20.601 -20.365  0.00  0.00    -0.476 OA
ENDROOT
BRANCH   1   3
ATOM      2  N   UNL     1      32.977 -22.319 -18.663  0.00  0.00    -0.239 NA
ATOM      3  C   UNL     1      35.029 -21.304 -19.401  0.00  0.00    +0.158 C 
ATOM      4  C   UNL     1      35.671 -21.701 -18.242  0.00  0.00    +0.040 C 
ATOM      5  C   UNL     1      34.959 -22.413 -17.283  0.00  0.00    +0.022 C 
ATOM      6  C   UNL     1      33.700 -21.629 -19.573  0.00  0.00    +0.136 C 
ATOM      7  C   UNL     1      33.628 -22.694 -17.539  0.00  0.00    +0.099 C 
BRANCH   5   9
ATOM      8  N   UNL     1      36.665 -24.592 -11.427  0.00  0.00    -0.242 NA
ATOM      9  C   UNL     1      35.590 -22.846 -16.058  0.00  0.00    +0.002 C 
ATOM     10  C   UNL     1      35.412 -23.757 -13.807  0.00  0.00    +0.003 C 
ATOM     11  C   UNL     1      34.812 -23.334 -15.005  0.00  0.00    +0.000 C 
ATOM     12  C   UNL     1      36.814 -23.683 -13.678  0.00  0.00    +0.019 C 
ATOM     13  C   UNL     1      36.976 -22.774 -15.924  0.00  0.00    +0.000 C 
ATOM     14  C   UNL     1      37.588 -23.190 -14.741  0.00  0.00    +0.002 C 
ATOM     15  C   UNL     1      34.658 -24.251 -12.735  0.00  0.00    +0.021 C 
ATOM     16  C   UNL     1      37.375 -24.112 -12.474  0.00  0.00    +0.099 C 
ATOM     17  C   UNL     1      35.325 -24.649 -11.587  0.00  0.00    +0.099 C 
ENDBRANCH   5   9
ENDBRANCH   1   3
BRANCH   1  18
ATOM     18  C   UNL     1      35.139 -19.359 -20.765  0.00  0.00    +0.184 C 
BRANCH  18  19
ATOM     19  C   UNL     1      36.256 -18.363 -21.093  0.00  0.00    -0.021 C 
BRANCH  19  20
ATOM     20  N   UNL     1      37.545 -19.037 -20.938  0.00  0.00    +0.384 N 
ATOM     21  H   UNL     1      38.300 -18.359 -21.055  0.00  0.00    -0.089 HD
ATOM     22  H   UNL     1      37.634 -19.769 -21.643  0.00  0.00    -0.089 HD
ATOM     23  H   UNL     1      37.603 -19.452 -20.008  0.00  0.00    -0.089 HD
ENDBRANCH  19  20
BRANCH  19  24
ATOM     24  C   UNL     1      36.099 -17.789 -22.518  0.00  0.00    -0.012 C 
BRANCH  24  26
ATOM     25  N   UNL     1      34.023 -16.755 -25.081  0.00  0.00    -0.270 NA
ATOM     26  C   UNL     1      34.672 -17.419 -22.877  0.00  0.00    +0.046 C 
ATOM     27  C   UNL     1      34.420 -15.947 -22.931  0.00  0.00    -0.007 C 
ATOM     28  C   UNL     1      34.371 -17.759 -24.333  0.00  0.00    +0.130 C 
ATOM     29  C   UNL     1      34.042 -15.627 -24.241  0.00  0.00    +0.071 C 
ATOM     30  C   UNL     1      34.500 -14.984 -21.944  0.00  0.00    -0.024 C 
ATOM     31  C   UNL     1      33.739 -14.323 -24.593  0.00  0.00    +0.014 C 
ATOM     32  C   UNL     1      34.197 -13.666 -22.291  0.00  0.00    +0.052 C 
ATOM     33  C   UNL     1      33.820 -13.338 -23.604  0.00  0.00    -0.020 C 
ENDBRANCH  24  26
ENDBRANCH  19  24
ENDBRANCH  18  19
ENDBRANCH   1  18
TORSDOF 7
ENDMDL
