MODEL 1
REMARK VINA RESULT:     -12.8      0.000      0.000
REMARK  Name = 115237
REMARK  5 active torsions:
REMARK  status: ('A' for Active; 'I' for Inactive)
REMARK    1  A    between atoms: N_1  and  C_18
REMARK    2  A    between atoms: C_2  and  C_11
REMARK    3  A    between atoms: C_18  and  C_19
REMARK    4  A    between atoms: C_19  and  C_23
REMARK    5  A    between atoms: C_25  and  O_32
REMARK                            x       y       z     vdW  Elec       q    Type
REMARK                         _______ _______ _______ _____ _____    ______ ____
ROOT
ATOM      1  N   UNL     1      35.839 -19.691 -20.067  0.00  0.00    +0.387 N 
ATOM      2  C   UNL     1      35.284 -18.445 -22.664  0.00  0.00    +0.039 C 
ATOM      3  C   UNL     1      34.207 -19.190 -21.859  0.00  0.00    -0.017 C 
ATOM      4  C   UNL     1      36.379 -17.927 -21.716  0.00  0.00    -0.017 C 
ATOM      5  C   UNL     1      34.827 -20.266 -20.965  0.00  0.00    -0.077 C 
ATOM      6  C   UNL     1      36.920 -19.048 -20.827  0.00  0.00    -0.077 C 
ATOM      7  H   UNL     1      35.385 -18.976 -19.499  0.00  0.00    -0.080 HD
ENDROOT
BRANCH   2  11
ATOM      8  F   UNL     1      33.371 -12.048 -23.463  0.00  0.00    -0.204 F 
ATOM      9  O   UNL     1      33.884 -16.455 -25.320  0.00  0.00    -0.354 OA
ATOM     10  N   UNL     1      34.366 -17.648 -24.796  0.00  0.00    -0.081 NA
ATOM     11  C   UNL     1      34.709 -17.358 -23.543  0.00  0.00    +0.100 A 
ATOM     12  C   UNL     1      34.476 -16.017 -23.205  0.00  0.00    +0.054 A 
ATOM     13  C   UNL     1      33.950 -15.483 -24.369  0.00  0.00    +0.179 A 
ATOM     14  C   UNL     1      34.636 -15.186 -22.086  0.00  0.00    +0.007 C 
ATOM     15  C   UNL     1      33.561 -14.155 -24.517  0.00  0.00    +0.070 C 
ATOM     16  C   UNL     1      34.252 -13.842 -22.200  0.00  0.00    +0.030 C 
ATOM     17  C   UNL     1      33.725 -13.339 -23.394  0.00  0.00    +0.143 C 
ENDBRANCH   2  11
BRANCH   1  18
ATOM     18  C   UNL     1      36.380 -20.722 -19.180  0.00  0.00    -0.076 C 
BRANCH  18  19
ATOM     19  C   UNL     1      35.550 -21.993 -19.297  0.00  0.00    -0.007 C 
BRANCH  19  23
ATOM     20  O   UNL     1      32.815 -22.320 -18.899  0.00  0.00    -0.274 OA
ATOM     21  N   UNL     1      33.003 -23.026 -16.686  0.00  0.00    -0.235 N 
ATOM     22  N   UNL     1      35.128 -23.006 -15.644  0.00  0.00    -0.397 NA
ATOM     23  C   UNL     1      34.986 -22.388 -17.963  0.00  0.00    +0.123 C 
ATOM     24  C   UNL     1      31.550 -23.181 -16.583  0.00  0.00    +0.100 C 
ATOM     25  C   UNL     1      33.257 -23.695 -14.284  0.00  0.00    +0.177 C 
ATOM     26  C   UNL     1      31.093 -24.051 -15.428  0.00  0.00    +0.025 C 
ATOM     27  C   UNL     1      31.752 -23.555 -14.159  0.00  0.00    +0.040 C 
ATOM     28  C   UNL     1      33.845 -23.193 -15.599  0.00  0.00    +0.192 C 
ATOM     29  C   UNL     1      33.503 -22.575 -17.911  0.00  0.00    +0.237 C 
ATOM     30  C   UNL     1      35.686 -22.604 -16.832  0.00  0.00    +0.097 C 
ATOM     31  C   UNL     1      37.176 -22.406 -16.740  0.00  0.00    +0.062 C 
BRANCH  25  32
ATOM     32  O   UNL     1      33.873 -22.985 -13.220  0.00  0.00    -0.376 OA
ATOM     33  H   UNL     1      34.530 -22.370 -13.579  0.00  0.00    +0.211 HD
ENDBRANCH  25  32
ENDBRANCH  19  23
ENDBRANCH  18  19
ENDBRANCH   1  18
TORSDOF 5
ENDMDL
MODEL 2
REMARK VINA RESULT:     -12.3      3.372     10.266
REMARK  Name = 115237
REMARK  5 active torsions:
REMARK  status: ('A' for Active; 'I' for Inactive)
REMARK    1  A    between atoms: N_1  and  C_18
REMARK    2  A    between atoms: C_2  and  C_11
REMARK    3  A    between atoms: C_18  and  C_19
REMARK    4  A    between atoms: C_19  and  C_23
REMARK    5  A    between atoms: C_25  and  O_32
REMARK                            x       y       z     vdW  Elec       q    Type
REMARK                         _______ _______ _______ _____ _____    ______ ____
ROOT
ATOM      1  N   UNL     1      34.513 -20.511 -20.004  0.00  0.00    +0.387 N 
ATOM      2  C   UNL     1      34.192 -22.627 -17.998  0.00  0.00    +0.039 C 
ATOM      3  C   UNL     1      35.548 -21.962 -18.286  0.00  0.00    -0.017 C 
ATOM      4  C   UNL     1      33.050 -21.671 -18.380  0.00  0.00    -0.017 C 
ATOM      5  C   UNL     1      35.616 -21.441 -19.723  0.00  0.00    -0.077 C 
ATOM      6  C   UNL     1      33.209 -21.161 -19.814  0.00  0.00    -0.077 C 
ATOM      7  H   UNL     1      34.579 -19.737 -19.342  0.00  0.00    -0.080 HD
ENDROOT
BRANCH   2  11
ATOM      8  F   UNL     1      30.361 -24.315 -12.735  0.00  0.00    -0.204 F 
ATOM      9  O   UNL     1      34.746 -23.867 -14.661  0.00  0.00    -0.354 OA
ATOM     10  N   UNL     1      35.188 -23.441 -15.907  0.00  0.00    -0.081 NA
ATOM     11  C   UNL     1      34.080 -23.134 -16.578  0.00  0.00    +0.100 A 
ATOM     12  C   UNL     1      32.911 -23.337 -15.830  0.00  0.00    +0.054 A 
ATOM     13  C   UNL     1      33.387 -23.804 -14.617  0.00  0.00    +0.179 A 
ATOM     14  C   UNL     1      31.527 -23.193 -16.010  0.00  0.00    +0.007 C 
ATOM     15  C   UNL     1      32.578 -24.150 -13.539  0.00  0.00    +0.070 C 
ATOM     16  C   UNL     1      30.683 -23.532 -14.942  0.00  0.00    +0.030 C 
ATOM     17  C   UNL     1      31.202 -24.002 -13.731  0.00  0.00    +0.143 C 
ENDBRANCH   2  11
BRANCH   1  18
ATOM     18  C   UNL     1      34.627 -19.979 -21.362  0.00  0.00    -0.076 C 
BRANCH  18  19
ATOM     19  C   UNL     1      35.652 -18.854 -21.393  0.00  0.00    -0.007 C 
BRANCH  19  23
ATOM     20  O   UNL     1      35.138 -16.428 -20.128  0.00  0.00    -0.274 OA
ATOM     21  N   UNL     1      34.526 -15.298 -22.072  0.00  0.00    -0.235 N 
ATOM     22  N   UNL     1      34.368 -16.498 -24.105  0.00  0.00    -0.397 NA
ATOM     23  C   UNL     1      35.120 -17.667 -22.143  0.00  0.00    +0.123 C 
ATOM     24  C   UNL     1      34.299 -14.064 -21.316  0.00  0.00    +0.100 C 
ATOM     25  C   UNL     1      33.793 -14.155 -24.179  0.00  0.00    +0.177 C 
ATOM     26  C   UNL     1      34.271 -12.806 -22.162  0.00  0.00    +0.025 C 
ATOM     27  C   UNL     1      33.304 -13.015 -23.308  0.00  0.00    +0.040 C 
ATOM     28  C   UNL     1      34.233 -15.404 -23.421  0.00  0.00    +0.192 C 
ATOM     29  C   UNL     1      34.940 -16.416 -21.343  0.00  0.00    +0.237 C 
ATOM     30  C   UNL     1      34.812 -17.622 -23.454  0.00  0.00    +0.097 C 
ATOM     31  C   UNL     1      34.906 -18.823 -24.359  0.00  0.00    +0.062 C 
BRANCH  25  32
ATOM     32  O   UNL     1      32.757 -14.521 -25.079  0.00  0.00    -0.376 OA
ATOM     33  H   UNL     1      32.681 -13.850 -25.774  0.00  0.00    +0.211 HD
ENDBRANCH  25  32
ENDBRANCH  19  23
ENDBRANCH  18  19
ENDBRANCH   1  18
TORSDOF 5
ENDMDL
MODEL 3
REMARK VINA RESULT:     -12.0      7.283     14.055
REMARK  Name = 115237
REMARK  5 active torsions:
REMARK  status: ('A' for Active; 'I' for Inactive)
REMARK    1  A    between atoms: N_1  and  C_18
REMARK    2  A    between atoms: C_2  and  C_11
REMARK    3  A    between atoms: C_18  and  C_19
REMARK    4  A    between atoms: C_19  and  C_23
REMARK    5  A    between atoms: C_25  and  O_32
REMARK                            x       y       z     vdW  Elec       q    Type
REMARK                         _______ _______ _______ _____ _____    ______ ____
ROOT
ATOM      1  N   UNL     1      32.086 -10.323 -22.512  0.00  0.00    +0.387 N 
ATOM      2  C   UNL     1      33.576 -12.788 -23.066  0.00  0.00    +0.039 C 
ATOM      3  C   UNL     1      32.305 -12.768 -22.202  0.00  0.00    -0.017 C 
ATOM      4  C   UNL     1      33.567 -11.593 -24.034  0.00  0.00    -0.017 C 
ATOM      5  C   UNL     1      32.116 -11.410 -21.523  0.00  0.00    -0.077 C 
ATOM      6  C   UNL     1      33.332 -10.277 -23.289  0.00  0.00    -0.077 C 
ATOM      7  H   UNL     1      31.319 -10.507 -23.159  0.00  0.00    -0.080 HD
ENDROOT
BRANCH   2  11
ATOM      8  F   UNL     1      35.708 -19.164 -22.913  0.00  0.00    -0.204 F 
ATOM      9  O   UNL     1      33.733 -15.541 -25.385  0.00  0.00    -0.354 OA
ATOM     10  N   UNL     1      33.414 -14.232 -25.044  0.00  0.00    -0.081 NA
ATOM     11  C   UNL     1      33.783 -14.109 -23.771  0.00  0.00    +0.100 A 
ATOM     12  C   UNL     1      34.337 -15.285 -23.244  0.00  0.00    +0.054 A 
ATOM     13  C   UNL     1      34.284 -16.167 -24.308  0.00  0.00    +0.179 A 
ATOM     14  C   UNL     1      34.871 -15.722 -22.022  0.00  0.00    +0.007 C 
ATOM     15  C   UNL     1      34.729 -17.485 -24.258  0.00  0.00    +0.070 C 
ATOM     16  C   UNL     1      35.331 -17.044 -21.937  0.00  0.00    +0.030 C 
ATOM     17  C   UNL     1      35.259 -17.907 -23.036  0.00  0.00    +0.143 C 
ENDBRANCH   2  11
BRANCH   1  18
ATOM     18  C   UNL     1      31.847  -9.039 -21.853  0.00  0.00    -0.076 C 
BRANCH  18  19
ATOM     19  C   UNL     1      33.097  -8.174 -21.934  0.00  0.00    -0.007 C 
BRANCH  19  23
ATOM     20  O   UNL     1      33.551  -6.962 -24.398  0.00  0.00    -0.274 OA
ATOM     21  N   UNL     1      32.578  -4.926 -23.818  0.00  0.00    -0.235 N 
ATOM     22  N   UNL     1      31.853  -4.585 -21.592  0.00  0.00    -0.397 NA
ATOM     23  C   UNL     1      32.740  -6.738 -22.188  0.00  0.00    +0.123 C 
ATOM     24  C   UNL     1      32.848  -4.385 -25.152  0.00  0.00    +0.100 C 
ATOM     25  C   UNL     1      31.599  -2.729 -23.114  0.00  0.00    +0.177 C 
ATOM     26  C   UNL     1      32.029  -3.160 -25.511  0.00  0.00    +0.025 C 
ATOM     27  C   UNL     1      32.163  -2.146 -24.395  0.00  0.00    +0.040 C 
ATOM     28  C   UNL     1      32.049  -4.152 -22.798  0.00  0.00    +0.192 C 
ATOM     29  C   UNL     1      32.995  -6.237 -23.574  0.00  0.00    +0.237 C 
ATOM     30  C   UNL     1      32.202  -5.880 -21.299  0.00  0.00    +0.097 C 
ATOM     31  C   UNL     1      31.939  -6.246 -19.862  0.00  0.00    +0.062 C 
BRANCH  25  32
ATOM     32  O   UNL     1      31.972  -1.893 -22.028  0.00  0.00    -0.376 OA
ATOM     33  H   UNL     1      32.027  -0.974 -22.332  0.00  0.00    +0.211 HD
ENDBRANCH  25  32
ENDBRANCH  19  23
ENDBRANCH  18  19
ENDBRANCH   1  18
TORSDOF 5
ENDMDL
MODEL 4
REMARK VINA RESULT:     -11.9      6.047     12.697
REMARK  Name = 115237
REMARK  5 active torsions:
REMARK  status: ('A' for Active; 'I' for Inactive)
REMARK    1  A    between atoms: N_1  and  C_18
REMARK    2  A    between atoms: C_2  and  C_11
REMARK    3  A    between atoms: C_18  and  C_19
REMARK    4  A    between atoms: C_19  and  C_23
REMARK    5  A    between atoms: C_25  and  O_32
REMARK                            x       y       z     vdW  Elec       q    Type
REMARK                         _______ _______ _______ _____ _____    ______ ____
ROOT
ATOM      1  N   UNL     1      33.185 -12.121 -24.263  0.00  0.00    +0.387 N 
ATOM      2  C   UNL     1      34.380 -14.801 -24.262  0.00  0.00    +0.039 C 
ATOM      3  C   UNL     1      34.037 -14.049 -22.966  0.00  0.00    -0.017 C 
ATOM      4  C   UNL     1      33.490 -14.293 -25.410  0.00  0.00    -0.017 C 
ATOM      5  C   UNL     1      34.082 -12.534 -23.174  0.00  0.00    -0.077 C 
ATOM      6  C   UNL     1      33.555 -12.769 -25.529  0.00  0.00    -0.077 C 
ATOM      7  H   UNL     1      32.240 -12.419 -24.022  0.00  0.00    -0.080 HD
ENDROOT
BRANCH   2  11
ATOM      8  F   UNL     1      35.730 -20.289 -20.618  0.00  0.00    -0.204 F 
ATOM      9  O   UNL     1      33.870 -18.350 -24.608  0.00  0.00    -0.354 OA
ATOM     10  N   UNL     1      33.762 -17.040 -25.056  0.00  0.00    -0.081 NA
ATOM     11  C   UNL     1      34.323 -16.303 -24.100  0.00  0.00    +0.100 A 
ATOM     12  C   UNL     1      34.802 -17.067 -23.026  0.00  0.00    +0.054 A 
ATOM     13  C   UNL     1      34.490 -18.364 -23.396  0.00  0.00    +0.179 A 
ATOM     14  C   UNL     1      35.450 -16.845 -21.802  0.00  0.00    +0.007 C 
ATOM     15  C   UNL     1      34.776 -19.489 -22.628  0.00  0.00    +0.070 C 
ATOM     16  C   UNL     1      35.755 -17.956 -21.003  0.00  0.00    +0.030 C 
ATOM     17  C   UNL     1      35.422 -19.252 -21.411  0.00  0.00    +0.143 C 
ENDBRANCH   2  11
BRANCH   1  18
ATOM     18  C   UNL     1      33.196 -10.666 -24.410  0.00  0.00    -0.076 C 
BRANCH  18  19
ATOM     19  C   UNL     1      33.877 -10.029 -23.208  0.00  0.00    -0.007 C 
BRANCH  19  23
ATOM     20  O   UNL     1      34.565  -7.559 -24.292  0.00  0.00    -0.274 OA
ATOM     21  N   UNL     1      32.899  -6.366 -23.183  0.00  0.00    -0.235 N 
ATOM     22  N   UNL     1      31.550  -7.477 -21.588  0.00  0.00    -0.397 NA
ATOM     23  C   UNL     1      33.177  -8.764 -22.804  0.00  0.00    +0.123 C 
ATOM     24  C   UNL     1      33.330  -5.119 -23.820  0.00  0.00    +0.100 C 
ATOM     25  C   UNL     1      31.147  -5.118 -21.897  0.00  0.00    +0.177 C 
ATOM     26  C   UNL     1      32.298  -4.008 -23.784  0.00  0.00    +0.025 C 
ATOM     27  C   UNL     1      31.819  -3.839 -22.358  0.00  0.00    +0.040 C 
ATOM     28  C   UNL     1      31.912  -6.400 -22.212  0.00  0.00    +0.192 C 
ATOM     29  C   UNL     1      33.619  -7.520 -23.507  0.00  0.00    +0.237 C 
ATOM     30  C   UNL     1      32.190  -8.653 -21.893  0.00  0.00    +0.097 C 
ATOM     31  C   UNL     1      31.686  -9.819 -21.085  0.00  0.00    +0.062 C 
BRANCH  25  32
ATOM     32  O   UNL     1      30.949  -5.050 -20.492  0.00  0.00    -0.376 OA
ATOM     33  H   UNL     1      31.177  -4.162 -20.176  0.00  0.00    +0.211 HD
ENDBRANCH  25  32
ENDBRANCH  19  23
ENDBRANCH  18  19
ENDBRANCH   1  18
TORSDOF 5
ENDMDL
MODEL 5
REMARK VINA RESULT:     -11.8      1.270      1.996
REMARK  Name = 115237
REMARK  5 active torsions:
REMARK  status: ('A' for Active; 'I' for Inactive)
REMARK    1  A    between atoms: N_1  and  C_18
REMARK    2  A    between atoms: C_2  and  C_11
REMARK    3  A    between atoms: C_18  and  C_19
REMARK    4  A    between atoms: C_19  and  C_23
REMARK    5  A    between atoms: C_25  and  O_32
REMARK                            x       y       z     vdW  Elec       q    Type
REMARK                         _______ _______ _______ _____ _____    ______ ____
ROOT
ATOM      1  N   UNL     1      35.620 -19.613 -20.062  0.00  0.00    +0.387 N 
ATOM      2  C   UNL     1      35.404 -18.157 -22.599  0.00  0.00    +0.039 C 
ATOM      3  C   UNL     1      34.433 -19.282 -22.208  0.00  0.00    -0.017 C 
ATOM      4  C   UNL     1      36.009 -17.526 -21.333  0.00  0.00    -0.017 C 
ATOM      5  C   UNL     1      35.096 -20.284 -21.261  0.00  0.00    -0.077 C 
ATOM      6  C   UNL     1      36.615 -18.591 -20.418  0.00  0.00    -0.077 C 
ATOM      7  H   UNL     1      34.842 -19.146 -19.597  0.00  0.00    -0.080 HD
ENDROOT
BRANCH   2  11
ATOM      8  F   UNL     1      33.140 -11.909 -23.630  0.00  0.00    -0.204 F 
ATOM      9  O   UNL     1      33.913 -16.341 -25.330  0.00  0.00    -0.354 OA
ATOM     10  N   UNL     1      34.458 -17.486 -24.763  0.00  0.00    -0.081 NA
ATOM     11  C   UNL     1      34.775 -17.134 -23.518  0.00  0.00    +0.100 A 
ATOM     12  C   UNL     1      34.465 -15.798 -23.229  0.00  0.00    +0.054 A 
ATOM     13  C   UNL     1      33.918 -15.335 -24.413  0.00  0.00    +0.179 A 
ATOM     14  C   UNL     1      34.570 -14.921 -22.138  0.00  0.00    +0.007 C 
ATOM     15  C   UNL     1      33.455 -14.037 -24.609  0.00  0.00    +0.070 C 
ATOM     16  C   UNL     1      34.112 -13.606 -22.301  0.00  0.00    +0.030 C 
ATOM     17  C   UNL     1      33.566 -13.175 -23.514  0.00  0.00    +0.143 C 
ENDBRANCH   2  11
BRANCH   1  18
ATOM     18  C   UNL     1      36.199 -20.592 -19.142  0.00  0.00    -0.076 C 
BRANCH  18  19
ATOM     19  C   UNL     1      35.598 -21.966 -19.401  0.00  0.00    -0.007 C 
BRANCH  19  23
ATOM     20  O   UNL     1      36.103 -23.083 -16.902  0.00  0.00    -0.274 OA
ATOM     21  N   UNL     1      33.890 -23.000 -16.178  0.00  0.00    -0.235 N 
ATOM     22  N   UNL     1      32.206 -22.303 -17.687  0.00  0.00    -0.397 NA
ATOM     23  C   UNL     1      34.493 -22.260 -18.427  0.00  0.00    +0.123 C 
ATOM     24  C   UNL     1      34.262 -23.579 -14.885  0.00  0.00    +0.100 C 
ATOM     25  C   UNL     1      31.482 -22.969 -15.484  0.00  0.00    +0.177 C 
ATOM     26  C   UNL     1      33.235 -23.376 -13.788  0.00  0.00    +0.025 C 
ATOM     27  C   UNL     1      31.885 -23.827 -14.301  0.00  0.00    +0.040 C 
ATOM     28  C   UNL     1      32.572 -22.759 -16.530  0.00  0.00    +0.192 C 
ATOM     29  C   UNL     1      34.920 -22.813 -17.105  0.00  0.00    +0.237 C 
ATOM     30  C   UNL     1      33.176 -22.057 -18.627  0.00  0.00    +0.097 C 
ATOM     31  C   UNL     1      32.614 -21.548 -19.928  0.00  0.00    +0.062 C 
BRANCH  25  32
ATOM     32  O   UNL     1      30.361 -23.566 -16.121  0.00  0.00    -0.376 OA
ATOM     33  H   UNL     1      30.217 -23.144 -16.982  0.00  0.00    +0.211 HD
ENDBRANCH  25  32
ENDBRANCH  19  23
ENDBRANCH  18  19
ENDBRANCH   1  18
TORSDOF 5
ENDMDL
MODEL 6
REMARK VINA RESULT:     -11.8      1.516      2.417
REMARK  Name = 115237
REMARK  5 active torsions:
REMARK  status: ('A' for Active; 'I' for Inactive)
REMARK    1  A    between atoms: N_1  and  C_18
REMARK    2  A    between atoms: C_2  and  C_11
REMARK    3  A    between atoms: C_18  and  C_19
REMARK    4  A    between atoms: C_19  and  C_23
REMARK    5  A    between atoms: C_25  and  O_32
REMARK                            x       y       z     vdW  Elec       q    Type
REMARK                         _______ _______ _______ _____ _____    ______ ____
ROOT
ATOM      1  N   UNL     1      35.978 -19.741 -19.816  0.00  0.00    +0.387 N 
ATOM      2  C   UNL     1      35.353 -18.639 -22.462  0.00  0.00    +0.039 C 
ATOM      3  C   UNL     1      34.279 -19.248 -21.547  0.00  0.00    -0.017 C 
ATOM      4  C   UNL     1      36.535 -18.137 -21.617  0.00  0.00    -0.017 C 
ATOM      5  C   UNL     1      34.877 -20.302 -20.613  0.00  0.00    -0.077 C 
ATOM      6  C   UNL     1      37.052 -19.231 -20.680  0.00  0.00    -0.077 C 
ATOM      7  H   UNL     1      35.609 -18.957 -19.278  0.00  0.00    -0.080 HD
ENDROOT
BRANCH   2  11
ATOM      8  F   UNL     1      33.459 -12.268 -23.482  0.00  0.00    -0.204 F 
ATOM      9  O   UNL     1      34.022 -16.722 -25.207  0.00  0.00    -0.354 OA
ATOM     10  N   UNL     1      34.491 -17.900 -24.639  0.00  0.00    -0.081 NA
ATOM     11  C   UNL     1      34.801 -17.576 -23.385  0.00  0.00    +0.100 A 
ATOM     12  C   UNL     1      34.558 -16.227 -23.090  0.00  0.00    +0.054 A 
ATOM     13  C   UNL     1      34.063 -15.725 -24.281  0.00  0.00    +0.179 A 
ATOM     14  C   UNL     1      34.688 -15.366 -21.989  0.00  0.00    +0.007 C 
ATOM     15  C   UNL     1      33.677 -14.402 -24.474  0.00  0.00    +0.070 C 
ATOM     16  C   UNL     1      34.307 -14.027 -22.149  0.00  0.00    +0.030 C 
ATOM     17  C   UNL     1      33.812 -13.556 -23.370  0.00  0.00    +0.143 C 
ENDBRANCH   2  11
BRANCH   1  18
ATOM     18  C   UNL     1      36.500 -20.744 -18.889  0.00  0.00    -0.076 C 
BRANCH  18  19
ATOM     19  C   UNL     1      35.623 -21.988 -18.923  0.00  0.00    -0.007 C 
BRANCH  19  23
ATOM     20  O   UNL     1      37.626 -22.300 -17.016  0.00  0.00    -0.274 OA
ATOM     21  N   UNL     1      36.186 -22.909 -15.289  0.00  0.00    -0.235 N 
ATOM     22  N   UNL     1      33.887 -23.217 -15.756  0.00  0.00    -0.397 NA
ATOM     23  C   UNL     1      35.324 -22.470 -17.532  0.00  0.00    +0.123 C 
ATOM     24  C   UNL     1      37.309 -23.031 -14.357  0.00  0.00    +0.100 C 
ATOM     25  C   UNL     1      34.601 -23.644 -13.491  0.00  0.00    +0.177 C 
ATOM     26  C   UNL     1      36.915 -23.009 -12.892  0.00  0.00    +0.025 C 
ATOM     27  C   UNL     1      35.818 -24.029 -12.673  0.00  0.00    +0.040 C 
ATOM     28  C   UNL     1      34.892 -23.258 -14.938  0.00  0.00    +0.192 C 
ATOM     29  C   UNL     1      36.493 -22.542 -16.601  0.00  0.00    +0.237 C 
ATOM     30  C   UNL     1      34.116 -22.822 -17.051  0.00  0.00    +0.097 C 
ATOM     31  C   UNL     1      32.870 -22.837 -17.896  0.00  0.00    +0.062 C 
BRANCH  25  32
ATOM     32  O   UNL     1      33.690 -24.734 -13.495  0.00  0.00    -0.376 OA
ATOM     33  H   UNL     1      33.508 -25.007 -12.583  0.00  0.00    +0.211 HD
ENDBRANCH  25  32
ENDBRANCH  19  23
ENDBRANCH  18  19
ENDBRANCH   1  18
TORSDOF 5
ENDMDL
MODEL 7
REMARK VINA RESULT:     -11.7      1.790      2.366
REMARK  Name = 115237
REMARK  5 active torsions:
REMARK  status: ('A' for Active; 'I' for Inactive)
REMARK    1  A    between atoms: N_1  and  C_18
REMARK    2  A    between atoms: C_2  and  C_11
REMARK    3  A    between atoms: C_18  and  C_19
REMARK    4  A    between atoms: C_19  and  C_23
REMARK    5  A    between atoms: C_25  and  O_32
REMARK                            x       y       z     vdW  Elec       q    Type
REMARK                         _______ _______ _______ _____ _____    ______ ____
ROOT
ATOM      1  N   UNL     1      36.071 -20.015 -19.940  0.00  0.00    +0.387 N 
ATOM      2  C   UNL     1      35.390 -18.815 -22.529  0.00  0.00    +0.039 C 
ATOM      3  C   UNL     1      34.336 -19.464 -21.617  0.00  0.00    -0.017 C 
ATOM      4  C   UNL     1      36.587 -18.340 -21.688  0.00  0.00    -0.017 C 
ATOM      5  C   UNL     1      34.957 -20.550 -20.736  0.00  0.00    -0.077 C 
ATOM      6  C   UNL     1      37.126 -19.467 -20.804  0.00  0.00    -0.077 C 
ATOM      7  H   UNL     1      35.710 -19.253 -19.365  0.00  0.00    -0.080 HD
ENDROOT
BRANCH   2  11
ATOM      8  F   UNL     1      33.518 -12.401 -23.289  0.00  0.00    -0.204 F 
ATOM      9  O   UNL     1      33.983 -16.805 -25.167  0.00  0.00    -0.354 OA
ATOM     10  N   UNL     1      34.461 -18.003 -24.651  0.00  0.00    -0.081 NA
ATOM     11  C   UNL     1      34.816 -17.720 -23.399  0.00  0.00    +0.100 A 
ATOM     12  C   UNL     1      34.596 -16.379 -23.055  0.00  0.00    +0.054 A 
ATOM     13  C   UNL     1      34.065 -15.837 -24.213  0.00  0.00    +0.179 A 
ATOM     14  C   UNL     1      34.771 -15.553 -21.934  0.00  0.00    +0.007 C 
ATOM     15  C   UNL     1      33.684 -14.506 -24.352  0.00  0.00    +0.070 C 
ATOM     16  C   UNL     1      34.396 -14.207 -22.040  0.00  0.00    +0.030 C 
ATOM     17  C   UNL     1      33.863 -13.695 -23.228  0.00  0.00    +0.143 C 
ENDBRANCH   2  11
BRANCH   1  18
ATOM     18  C   UNL     1      36.616 -21.050 -19.062  0.00  0.00    -0.076 C 
BRANCH  18  19
ATOM     19  C   UNL     1      35.503 -21.643 -18.209  0.00  0.00    -0.007 C 
BRANCH  19  23
ATOM     20  O   UNL     1      34.261 -23.713 -16.823  0.00  0.00    -0.274 OA
ATOM     21  N   UNL     1      35.865 -23.836 -15.138  0.00  0.00    -0.235 N 
ATOM     22  N   UNL     1      37.612 -22.240 -15.087  0.00  0.00    -0.397 NA
ATOM     23  C   UNL     1      36.044 -22.161 -16.908  0.00  0.00    +0.123 C 
ATOM     24  C   UNL     1      35.143 -24.935 -14.492  0.00  0.00    +0.100 C 
ATOM     25  C   UNL     1      37.573 -23.865 -13.303  0.00  0.00    +0.177 C 
ATOM     26  C   UNL     1      35.973 -25.740 -13.511  0.00  0.00    +0.025 C 
ATOM     27  C   UNL     1      36.638 -24.785 -12.543  0.00  0.00    +0.040 C 
ATOM     28  C   UNL     1      36.986 -23.252 -14.571  0.00  0.00    +0.192 C 
ATOM     29  C   UNL     1      35.300 -23.309 -16.303  0.00  0.00    +0.237 C 
ATOM     30  C   UNL     1      37.131 -21.704 -16.256  0.00  0.00    +0.097 C 
ATOM     31  C   UNL     1      37.939 -20.528 -16.735  0.00  0.00    +0.062 C 
BRANCH  25  32
ATOM     32  O   UNL     1      37.976 -22.810 -12.442  0.00  0.00    -0.376 OA
ATOM     33  H   UNL     1      37.706 -23.013 -11.534  0.00  0.00    +0.211 HD
ENDBRANCH  25  32
ENDBRANCH  19  23
ENDBRANCH  18  19
ENDBRANCH   1  18
TORSDOF 5
ENDMDL
MODEL 8
REMARK VINA RESULT:     -11.7      3.398     10.409
REMARK  Name = 115237
REMARK  5 active torsions:
REMARK  status: ('A' for Active; 'I' for Inactive)
REMARK    1  A    between atoms: N_1  and  C_18
REMARK    2  A    between atoms: C_2  and  C_11
REMARK    3  A    between atoms: C_18  and  C_19
REMARK    4  A    between atoms: C_19  and  C_23
REMARK    5  A    between atoms: C_25  and  O_32
REMARK                            x       y       z     vdW  Elec       q    Type
REMARK                         _______ _______ _______ _____ _____    ______ ____
ROOT
ATOM      1  N   UNL     1      35.673 -18.312 -21.321  0.00  0.00    +0.387 N 
ATOM      2  C   UNL     1      35.855 -20.814 -19.800  0.00  0.00    +0.039 C 
ATOM      3  C   UNL     1      36.937 -19.724 -19.729  0.00  0.00    -0.017 C 
ATOM      4  C   UNL     1      34.509 -20.187 -20.201  0.00  0.00    -0.017 C 
ATOM      5  C   UNL     1      36.984 -18.904 -21.020  0.00  0.00    -0.077 C 
ATOM      6  C   UNL     1      34.644 -19.350 -21.475  0.00  0.00    -0.077 C 
ATOM      7  H   UNL     1      35.407 -17.720 -20.533  0.00  0.00    -0.080 HD
ENDROOT
BRANCH   2  11
ATOM      8  F   UNL     1      32.110 -24.080 -15.268  0.00  0.00    -0.204 F 
ATOM      9  O   UNL     1      36.458 -22.680 -16.778  0.00  0.00    -0.354 OA
ATOM     10  N   UNL     1      36.880 -21.939 -17.874  0.00  0.00    -0.081 NA
ATOM     11  C   UNL     1      35.764 -21.631 -18.531  0.00  0.00    +0.100 A 
ATOM     12  C   UNL     1      34.608 -22.136 -17.918  0.00  0.00    +0.054 A 
ATOM     13  C   UNL     1      35.101 -22.797 -16.806  0.00  0.00    +0.179 A 
ATOM     14  C   UNL     1      33.224 -22.129 -18.148  0.00  0.00    +0.007 C 
ATOM     15  C   UNL     1      34.311 -23.469 -15.879  0.00  0.00    +0.070 C 
ATOM     16  C   UNL     1      32.398 -22.795 -17.233  0.00  0.00    +0.030 C 
ATOM     17  C   UNL     1      32.934 -23.453 -16.120  0.00  0.00    +0.143 C 
ENDBRANCH   2  11
BRANCH   1  18
ATOM     18  C   UNL     1      35.750 -17.485 -22.525  0.00  0.00    -0.076 C 
BRANCH  18  19
ATOM     19  C   UNL     1      34.348 -17.118 -22.992  0.00  0.00    -0.007 C 
BRANCH  19  23
ATOM     20  O   UNL     1      33.968 -16.008 -25.516  0.00  0.00    -0.274 OA
ATOM     21  N   UNL     1      33.771 -13.814 -24.758  0.00  0.00    -0.235 N 
ATOM     22  N   UNL     1      34.132 -13.346 -22.466  0.00  0.00    -0.397 NA
ATOM     23  C   UNL     1      34.222 -15.636 -23.194  0.00  0.00    +0.123 C 
ATOM     24  C   UNL     1      33.563 -13.331 -26.125  0.00  0.00    +0.100 C 
ATOM     25  C   UNL     1      33.654 -11.463 -23.897  0.00  0.00    +0.177 C 
ATOM     26  C   UNL     1      32.942 -11.950 -26.215  0.00  0.00    +0.025 C 
ATOM     27  C   UNL     1      33.737 -11.005 -25.340  0.00  0.00    +0.040 C 
ATOM     28  C   UNL     1      33.890 -12.954 -23.678  0.00  0.00    +0.192 C 
ATOM     29  C   UNL     1      33.971 -15.188 -24.599  0.00  0.00    +0.237 C 
ATOM     30  C   UNL     1      34.296 -14.690 -22.237  0.00  0.00    +0.097 C 
ATOM     31  C   UNL     1      34.588 -15.005 -20.794  0.00  0.00    +0.062 C 
BRANCH  25  32
ATOM     32  O   UNL     1      34.611 -10.743 -23.133  0.00  0.00    -0.376 OA
ATOM     33  H   UNL     1      34.158 -10.238 -22.440  0.00  0.00    +0.211 HD
ENDBRANCH  25  32
ENDBRANCH  19  23
ENDBRANCH  18  19
ENDBRANCH   1  18
TORSDOF 5
ENDMDL
MODEL 9
REMARK VINA RESULT:     -11.7      2.678      4.592
REMARK  Name = 115237
REMARK  5 active torsions:
REMARK  status: ('A' for Active; 'I' for Inactive)
REMARK    1  A    between atoms: N_1  and  C_18
REMARK    2  A    between atoms: C_2  and  C_11
REMARK    3  A    between atoms: C_18  and  C_19
REMARK    4  A    between atoms: C_19  and  C_23
REMARK    5  A    between atoms: C_25  and  O_32
REMARK                            x       y       z     vdW  Elec       q    Type
REMARK                         _______ _______ _______ _____ _____    ______ ____
ROOT
ATOM      1  N   UNL     1      34.370 -22.318 -17.723  0.00  0.00    +0.387 N 
ATOM      2  C   UNL     1      35.107 -20.737 -20.082  0.00  0.00    +0.039 C 
ATOM      3  C   UNL     1      33.672 -20.777 -19.530  0.00  0.00    -0.017 C 
ATOM      4  C   UNL     1      36.107 -21.061 -18.959  0.00  0.00    -0.017 C 
ATOM      5  C   UNL     1      33.395 -22.093 -18.800  0.00  0.00    -0.077 C 
ATOM      6  C   UNL     1      35.741 -22.366 -18.250  0.00  0.00    -0.077 C 
ATOM      7  H   UNL     1      34.310 -21.532 -17.075  0.00  0.00    -0.080 HD
ENDROOT
BRANCH   2  11
ATOM      8  F   UNL     1      34.210 -16.636 -25.335  0.00  0.00    -0.204 F 
ATOM      9  O   UNL     1      36.347 -17.517 -21.117  0.00  0.00    -0.354 OA
ATOM     10  N   UNL     1      36.277 -18.585 -20.231  0.00  0.00    -0.081 NA
ATOM     11  C   UNL     1      35.424 -19.440 -20.791  0.00  0.00    +0.100 A 
ATOM     12  C   UNL     1      34.919 -18.988 -22.018  0.00  0.00    +0.054 A 
ATOM     13  C   UNL     1      35.535 -17.760 -22.183  0.00  0.00    +0.179 A 
ATOM     14  C   UNL     1      34.031 -19.443 -23.005  0.00  0.00    +0.007 C 
ATOM     15  C   UNL     1      35.337 -16.923 -23.277  0.00  0.00    +0.070 C 
ATOM     16  C   UNL     1      33.808 -18.625 -24.122  0.00  0.00    +0.030 C 
ATOM     17  C   UNL     1      34.450 -17.389 -24.252  0.00  0.00    +0.143 C 
ENDBRANCH   2  11
BRANCH   1  18
ATOM     18  C   UNL     1      34.057 -23.550 -16.999  0.00  0.00    -0.076 C 
BRANCH  18  19
ATOM     19  C   UNL     1      33.118 -23.245 -15.840  0.00  0.00    -0.007 C 
BRANCH  19  23
ATOM     20  O   UNL     1      35.792 -22.653 -15.343  0.00  0.00    -0.274 OA
ATOM     21  N   UNL     1      35.763 -23.374 -13.128  0.00  0.00    -0.235 N 
ATOM     22  N   UNL     1      33.814 -24.408 -12.274  0.00  0.00    -0.397 NA
ATOM     23  C   UNL     1      33.769 -23.566 -14.526  0.00  0.00    +0.123 C 
ATOM     24  C   UNL     1      37.174 -23.013 -12.963  0.00  0.00    +0.100 C 
ATOM     25  C   UNL     1      35.700 -24.244 -10.778  0.00  0.00    +0.177 C 
ATOM     26  C   UNL     1      37.621 -22.876 -11.520  0.00  0.00    +0.025 C 
ATOM     27  C   UNL     1      37.211 -24.122 -10.766  0.00  0.00    +0.040 C 
ATOM     28  C   UNL     1      35.045 -24.024 -12.138  0.00  0.00    +0.192 C 
ATOM     29  C   UNL     1      35.198 -23.145 -14.385  0.00  0.00    +0.237 C 
ATOM     30  C   UNL     1      33.187 -24.174 -13.473  0.00  0.00    +0.097 C 
ATOM     31  C   UNL     1      31.771 -24.685 -13.503  0.00  0.00    +0.062 C 
BRANCH  25  32
ATOM     32  O   UNL     1      35.342 -25.538 -10.314  0.00  0.00    -0.376 OA
ATOM     33  H   UNL     1      34.876 -26.016 -11.018  0.00  0.00    +0.211 HD
ENDBRANCH  25  32
ENDBRANCH  19  23
ENDBRANCH  18  19
ENDBRANCH   1  18
TORSDOF 5
ENDMDL
