MODEL 1
REMARK VINA RESULT:     -13.1      0.000      0.000
REMARK  Name = 5288641
REMARK  1 active torsions:
REMARK  status: ('A' for Active; 'I' for Inactive)
REMARK    1  A    between atoms: C_14  and  S_23
REMARK                            x       y       z     vdW  Elec       q    Type
REMARK                         _______ _______ _______ _____ _____    ______ ____
ROOT
ATOM      1  O   UNL     1      35.350 -24.367 -14.251  0.00  0.00    -0.270 OA
ATOM      2  O   UNL     1      31.850 -22.354 -17.635  0.00  0.00    -0.285 OA
ATOM      3  N   UNL     1      35.208 -22.792 -16.765  0.00  0.00    -0.310 N 
ATOM      4  N   UNL     1      33.171 -24.905 -13.510  0.00  0.00    -0.280 N 
ATOM      5  C   UNL     1      33.337 -23.686 -15.440  0.00  0.00    +0.071 C 
ATOM      6  C   UNL     1      31.922 -23.907 -15.162  0.00  0.00    +0.020 C 
ATOM      7  C   UNL     1      33.891 -23.027 -16.459  0.00  0.00    +0.092 C 
ATOM      8  C   UNL     1      31.879 -24.652 -13.980  0.00  0.00    +0.051 C 
ATOM      9  C   UNL     1      34.137 -24.343 -14.353  0.00  0.00    +0.251 C 
ATOM     10  C   UNL     1      34.033 -21.770 -18.454  0.00  0.00    +0.054 C 
ATOM     11  C   UNL     1      35.305 -22.053 -17.937  0.00  0.00    +0.051 C 
ATOM     12  C   UNL     1      33.058 -22.380 -17.533  0.00  0.00    +0.210 C 
ATOM     13  C   UNL     1      30.757 -23.540 -15.808  0.00  0.00    +0.020 C 
ATOM     14  C   UNL     1      29.541 -23.937 -15.240  0.00  0.00    +0.112 C 
ATOM     15  C   UNL     1      30.690 -25.054 -13.403  0.00  0.00    +0.016 C 
ATOM     16  C   UNL     1      29.508 -24.687 -14.050  0.00  0.00    +0.020 C 
ATOM     17  C   UNL     1      33.831 -21.048 -19.612  0.00  0.00    +0.004 C 
ATOM     18  C   UNL     1      36.432 -21.603 -18.592  0.00  0.00    +0.015 C 
ATOM     19  C   UNL     1      34.971 -20.593 -20.274  0.00  0.00    +0.000 C 
ATOM     20  C   UNL     1      36.259 -20.868 -19.770  0.00  0.00    +0.001 C 
ATOM     21  H   UNL     1      35.974 -23.101 -16.231  0.00  0.00    +0.152 HD
ATOM     22  H   UNL     1      33.377 -25.413 -12.691  0.00  0.00    +0.155 HD
ENDROOT
BRANCH  14  23
ATOM     23  S   UNL     1      28.040 -23.496 -16.020  0.00  0.00    +0.042 S 
ATOM     24  O   UNL     1      28.367 -22.112 -16.826  0.00  0.00    -0.065 OA
ATOM     25  O   UNL     1      27.739 -24.510 -17.018  0.00  0.00    -0.065 OA
ATOM     26  O   UNL     1      27.089 -23.189 -14.962  0.00  0.00    -0.065 OA
ENDBRANCH  14  23
TORSDOF 1
ENDMDL
MODEL 2
REMARK VINA RESULT:     -10.8      3.561      6.883
REMARK  Name = 5288641
REMARK  1 active torsions:
REMARK  status: ('A' for Active; 'I' for Inactive)
REMARK    1  A    between atoms: C_14  and  S_23
REMARK                            x       y       z     vdW  Elec       q    Type
REMARK                         _______ _______ _______ _____ _____    ______ ____
ROOT
ATOM      1  O   UNL     1      34.484 -22.100 -17.880  0.00  0.00    -0.270 OA
ATOM      2  O   UNL     1      32.911 -24.469 -13.445  0.00  0.00    -0.285 OA
ATOM      3  N   UNL     1      32.018 -22.991 -16.485  0.00  0.00    -0.310 N 
ATOM      4  N   UNL     1      36.384 -22.624 -16.576  0.00  0.00    -0.280 N 
ATOM      5  C   UNL     1      34.345 -23.210 -15.717  0.00  0.00    +0.071 C 
ATOM      6  C   UNL     1      35.373 -23.617 -14.765  0.00  0.00    +0.020 C 
ATOM      7  C   UNL     1      33.022 -23.354 -15.624  0.00  0.00    +0.092 C 
ATOM      8  C   UNL     1      36.591 -23.237 -15.337  0.00  0.00    +0.051 C 
ATOM      9  C   UNL     1      35.022 -22.563 -16.891  0.00  0.00    +0.251 C 
ATOM     10  C   UNL     1      30.931 -23.971 -14.714  0.00  0.00    +0.054 C 
ATOM     11  C   UNL     1      30.782 -23.348 -15.961  0.00  0.00    +0.051 C 
ATOM     12  C   UNL     1      32.377 -24.008 -14.431  0.00  0.00    +0.210 C 
ATOM     13  C   UNL     1      35.337 -24.246 -13.535  0.00  0.00    +0.020 C 
ATOM     14  C   UNL     1      36.553 -24.486 -12.886  0.00  0.00    +0.112 C 
ATOM     15  C   UNL     1      37.803 -23.465 -14.714  0.00  0.00    +0.016 C 
ATOM     16  C   UNL     1      37.773 -24.100 -13.470  0.00  0.00    +0.020 C 
ATOM     17  C   UNL     1      29.867 -24.430 -13.966  0.00  0.00    +0.004 C 
ATOM     18  C   UNL     1      29.524 -23.168 -16.497  0.00  0.00    +0.015 C 
ATOM     19  C   UNL     1      28.595 -24.247 -14.508  0.00  0.00    +0.000 C 
ATOM     20  C   UNL     1      28.424 -23.623 -15.760  0.00  0.00    +0.001 C 
ATOM     21  H   UNL     1      32.153 -22.540 -17.349  0.00  0.00    +0.152 HD
ATOM     22  H   UNL     1      37.104 -22.277 -17.153  0.00  0.00    +0.155 HD
ENDROOT
BRANCH  14  23
ATOM     23  S   UNL     1      36.557 -25.277 -11.327  0.00  0.00    +0.042 S 
ATOM     24  O   UNL     1      37.609 -24.422 -10.416  0.00  0.00    -0.065 OA
ATOM     25  O   UNL     1      35.240 -25.103 -10.734  0.00  0.00    -0.065 OA
ATOM     26  O   UNL     1      37.110 -26.607 -11.530  0.00  0.00    -0.065 OA
ENDBRANCH  14  23
TORSDOF 1
ENDMDL
MODEL 3
REMARK VINA RESULT:     -10.6      3.282      7.118
REMARK  Name = 5288641
REMARK  1 active torsions:
REMARK  status: ('A' for Active; 'I' for Inactive)
REMARK    1  A    between atoms: C_14  and  S_23
REMARK                            x       y       z     vdW  Elec       q    Type
REMARK                         _______ _______ _______ _____ _____    ______ ____
ROOT
ATOM      1  O   UNL     1      32.703 -21.705 -19.196  0.00  0.00    -0.270 OA
ATOM      2  O   UNL     1      33.364 -24.023 -14.512  0.00  0.00    -0.285 OA
ATOM      3  N   UNL     1      31.158 -23.039 -17.039  0.00  0.00    -0.310 N 
ATOM      4  N   UNL     1      34.999 -21.663 -18.639  0.00  0.00    -0.280 N 
ATOM      5  C   UNL     1      33.584 -22.643 -17.130  0.00  0.00    +0.071 C 
ATOM      6  C   UNL     1      34.941 -22.722 -16.598  0.00  0.00    +0.020 C 
ATOM      7  C   UNL     1      32.451 -23.087 -16.584  0.00  0.00    +0.092 C 
ATOM      8  C   UNL     1      35.759 -22.112 -17.554  0.00  0.00    +0.051 C 
ATOM      9  C   UNL     1      33.641 -21.950 -18.460  0.00  0.00    +0.251 C 
ATOM     10  C   UNL     1      31.014 -24.106 -15.009  0.00  0.00    +0.054 C 
ATOM     11  C   UNL     1      30.302 -23.635 -16.121  0.00  0.00    +0.051 C 
ATOM     12  C   UNL     1      32.431 -23.779 -15.247  0.00  0.00    +0.210 C 
ATOM     13  C   UNL     1      35.480 -23.243 -15.438  0.00  0.00    +0.020 C 
ATOM     14  C   UNL     1      36.863 -23.139 -15.254  0.00  0.00    +0.112 C 
ATOM     15  C   UNL     1      37.126 -21.999 -17.393  0.00  0.00    +0.016 C 
ATOM     16  C   UNL     1      37.678 -22.523 -16.222  0.00  0.00    +0.020 C 
ATOM     17  C   UNL     1      30.416 -24.742 -13.942  0.00  0.00    +0.004 C 
ATOM     18  C   UNL     1      28.934 -23.798 -16.185  0.00  0.00    +0.015 C 
ATOM     19  C   UNL     1      29.032 -24.907 -14.006  0.00  0.00    +0.000 C 
ATOM     20  C   UNL     1      28.298 -24.440 -15.116  0.00  0.00    +0.001 C 
ATOM     21  H   UNL     1      30.875 -22.639 -17.892  0.00  0.00    +0.152 HD
ATOM     22  H   UNL     1      35.371 -21.203 -19.427  0.00  0.00    +0.155 HD
ENDROOT
BRANCH  14  23
ATOM     23  S   UNL     1      37.591 -23.782 -13.800  0.00  0.00    +0.042 S 
ATOM     24  O   UNL     1      36.580 -24.965 -13.303  0.00  0.00    -0.065 OA
ATOM     25  O   UNL     1      38.844 -24.422 -14.173  0.00  0.00    -0.065 OA
ATOM     26  O   UNL     1      37.566 -22.718 -12.810  0.00  0.00    -0.065 OA
ENDBRANCH  14  23
TORSDOF 1
ENDMDL
MODEL 4
REMARK VINA RESULT:     -10.4      2.394      3.140
REMARK  Name = 5288641
REMARK  1 active torsions:
REMARK  status: ('A' for Active; 'I' for Inactive)
REMARK    1  A    between atoms: C_14  and  S_23
REMARK                            x       y       z     vdW  Elec       q    Type
REMARK                         _______ _______ _______ _____ _____    ______ ____
ROOT
ATOM      1  O   UNL     1      38.067 -22.576 -16.142  0.00  0.00    -0.270 OA
ATOM      2  O   UNL     1      32.905 -22.420 -17.181  0.00  0.00    -0.285 OA
ATOM      3  N   UNL     1      36.150 -21.600 -18.190  0.00  0.00    -0.310 N 
ATOM      4  N   UNL     1      36.900 -23.643 -14.386  0.00  0.00    -0.280 N 
ATOM      5  C   UNL     1      35.643 -22.796 -16.101  0.00  0.00    +0.071 C 
ATOM      6  C   UNL     1      34.738 -23.405 -15.131  0.00  0.00    +0.020 C 
ATOM      7  C   UNL     1      35.342 -22.186 -17.248  0.00  0.00    +0.092 C 
ATOM      8  C   UNL     1      35.554 -23.903 -14.111  0.00  0.00    +0.051 C 
ATOM      9  C   UNL     1      37.048 -22.960 -15.598  0.00  0.00    +0.251 C 
ATOM     10  C   UNL     1      34.020 -21.322 -19.006  0.00  0.00    +0.054 C 
ATOM     11  C   UNL     1      35.383 -21.087 -19.229  0.00  0.00    +0.051 C 
ATOM     12  C   UNL     1      33.921 -22.039 -17.722  0.00  0.00    +0.210 C 
ATOM     13  C   UNL     1      33.365 -23.551 -15.071  0.00  0.00    +0.020 C 
ATOM     14  C   UNL     1      32.825 -24.209 -13.960  0.00  0.00    +0.112 C 
ATOM     15  C   UNL     1      35.042 -24.556 -13.007  0.00  0.00    +0.016 C 
ATOM     16  C   UNL     1      33.655 -24.707 -12.939  0.00  0.00    +0.020 C 
ATOM     17  C   UNL     1      33.030 -20.920 -19.877  0.00  0.00    +0.004 C 
ATOM     18  C   UNL     1      35.792 -20.424 -20.367  0.00  0.00    +0.015 C 
ATOM     19  C   UNL     1      33.443 -20.249 -21.028  0.00  0.00    +0.000 C 
ATOM     20  C   UNL     1      34.810 -20.003 -21.271  0.00  0.00    +0.001 C 
ATOM     21  H   UNL     1      37.131 -21.548 -18.137  0.00  0.00    +0.152 HD
ATOM     22  H   UNL     1      37.649 -23.905 -13.801  0.00  0.00    +0.155 HD
ENDROOT
BRANCH  14  23
ATOM     23  S   UNL     1      31.093 -24.416 -13.839  0.00  0.00    +0.042 S 
ATOM     24  O   UNL     1      30.731 -24.086 -12.280  0.00  0.00    -0.065 OA
ATOM     25  O   UNL     1      30.462 -23.386 -14.650  0.00  0.00    -0.065 OA
ATOM     26  O   UNL     1      30.819 -25.823 -14.080  0.00  0.00    -0.065 OA
ENDBRANCH  14  23
TORSDOF 1
ENDMDL
