MODEL 1
REMARK VINA RESULT:     -12.2      0.000      0.000
REMARK  Name = 446399
REMARK  4 active torsions:
REMARK  status: ('A' for Active; 'I' for Inactive)
REMARK    1  A    between atoms: N_3  and  S_21
REMARK    2  A    between atoms: C_4  and  C_10
REMARK    3  A    between atoms: N_9  and  C_16
REMARK    4  A    between atoms: S_21  and  C_25
REMARK                            x       y       z     vdW  Elec       q    Type
REMARK                         _______ _______ _______ _____ _____    ______ ____
ROOT
ATOM      1  O   UNL     1      33.355 -14.016 -25.537  0.00  0.00    -0.275 OA
ATOM      2  N   UNL     1      33.814 -15.230 -23.610  0.00  0.00    -0.277 N 
ATOM      3  N   UNL     1      35.143 -17.518 -22.565  0.00  0.00    -0.152 NA
ATOM      4  C   UNL     1      33.607 -14.054 -24.329  0.00  0.00    +0.225 C 
ATOM      5  C   UNL     1      34.115 -15.310 -22.176  0.00  0.00    +0.113 C 
ATOM      6  C   UNL     1      33.668 -16.527 -24.271  0.00  0.00    +0.113 C 
ATOM      7  C   UNL     1      35.344 -16.181 -21.930  0.00  0.00    +0.117 C 
ATOM      8  C   UNL     1      34.895 -17.400 -24.035  0.00  0.00    +0.117 C 
ENDROOT
BRANCH   4  10
ATOM      9  N   UNL     1      32.712 -10.133 -22.906  0.00  0.00    -0.307 N 
ATOM     10  C   UNL     1      33.707 -12.764 -23.555  0.00  0.00    +0.080 C 
ATOM     11  C   UNL     1      32.445 -12.574 -22.717  0.00  0.00    +0.031 C 
ATOM     12  C   UNL     1      33.879 -11.588 -24.514  0.00  0.00    +0.031 C 
ATOM     13  C   UNL     1      32.461 -11.239 -21.974  0.00  0.00    +0.091 C 
ATOM     14  C   UNL     1      33.898 -10.258 -23.764  0.00  0.00    +0.091 C 
BRANCH   9  16
ATOM     15  N   UNL     1      31.457  -6.234 -21.886  0.00  0.00    -0.242 NA
ATOM     16  C   UNL     1      32.295  -8.840 -22.568  0.00  0.00    +0.051 C 
ATOM     17  C   UNL     1      31.685  -8.005 -23.516  0.00  0.00    +0.035 C 
ATOM     18  C   UNL     1      32.477  -8.338 -21.269  0.00  0.00    +0.035 C 
ATOM     19  C   UNL     1      31.291  -6.733 -23.131  0.00  0.00    +0.100 C 
ATOM     20  C   UNL     1      32.047  -7.052 -20.985  0.00  0.00    +0.100 C 
ENDBRANCH   9  16
ENDBRANCH   4  10
BRANCH   3  21
ATOM     21  S   UNL     1      36.270 -18.725 -22.108  0.00  0.00    +0.063 S 
ATOM     22  O   UNL     1      37.313 -18.118 -21.312  0.00  0.00    -0.153 OA
ATOM     23  O   UNL     1      36.588 -19.531 -23.267  0.00  0.00    -0.153 OA
BRANCH  21  25
ATOM     24 CL   UNL     1      32.485 -23.695 -16.393  0.00  0.00    -0.082 Cl
ATOM     25  C   UNL     1      35.262 -19.694 -21.031  0.00  0.00    +0.122 C 
ATOM     26  C   UNL     1      35.861 -20.434 -20.025  0.00  0.00    +0.020 C 
ATOM     27  C   UNL     1      33.891 -19.698 -21.210  0.00  0.00    +0.020 C 
ATOM     28  C   UNL     1      35.073 -21.210 -19.160  0.00  0.00    +0.001 C 
ATOM     29  C   UNL     1      33.668 -21.225 -19.329  0.00  0.00    +0.001 C 
ATOM     30  C   UNL     1      33.093 -20.463 -20.359  0.00  0.00    +0.001 C 
ATOM     31  C   UNL     1      35.649 -21.972 -18.130  0.00  0.00    +0.001 C 
ATOM     32  C   UNL     1      32.880 -22.000 -18.463  0.00  0.00    +0.011 C 
ATOM     33  C   UNL     1      34.850 -22.737 -17.279  0.00  0.00    +0.011 C 
ATOM     34  C   UNL     1      33.468 -22.752 -17.446  0.00  0.00    +0.058 C 
ENDBRANCH  21  25
ENDBRANCH   3  21
TORSDOF 4
ENDMDL
MODEL 2
REMARK VINA RESULT:     -11.3      4.528     11.549
REMARK  Name = 446399
REMARK  4 active torsions:
REMARK  status: ('A' for Active; 'I' for Inactive)
REMARK    1  A    between atoms: N_3  and  S_21
REMARK    2  A    between atoms: C_4  and  C_10
REMARK    3  A    between atoms: N_9  and  C_16
REMARK    4  A    between atoms: S_21  and  C_25
REMARK                            x       y       z     vdW  Elec       q    Type
REMARK                         _______ _______ _______ _____ _____    ______ ____
ROOT
ATOM      1  O   UNL     1      33.870 -16.354 -25.273  0.00  0.00    -0.275 OA
ATOM      2  N   UNL     1      34.143 -14.780 -23.587  0.00  0.00    -0.277 N 
ATOM      3  N   UNL     1      32.933 -12.591 -22.232  0.00  0.00    -0.152 NA
ATOM      4  C   UNL     1      34.291 -16.044 -24.155  0.00  0.00    +0.225 C 
ATOM      5  C   UNL     1      34.631 -14.379 -22.262  0.00  0.00    +0.113 C 
ATOM      6  C   UNL     1      33.514 -13.703 -24.352  0.00  0.00    +0.113 C 
ATOM      7  C   UNL     1      33.516 -13.723 -21.452  0.00  0.00    +0.117 C 
ATOM      8  C   UNL     1      32.396 -13.048 -23.550  0.00  0.00    +0.117 C 
ENDROOT
BRANCH   4  10
ATOM      9  N   UNL     1      35.002 -19.156 -21.325  0.00  0.00    -0.307 N 
ATOM     10  C   UNL     1      35.014 -17.076 -23.327  0.00  0.00    +0.080 C 
ATOM     11  C   UNL     1      34.435 -18.458 -23.618  0.00  0.00    +0.031 C 
ATOM     12  C   UNL     1      34.869 -16.751 -21.842  0.00  0.00    +0.031 C 
ATOM     13  C   UNL     1      35.080 -19.532 -22.741  0.00  0.00    +0.091 C 
ATOM     14  C   UNL     1      35.519 -17.826 -20.973  0.00  0.00    +0.091 C 
BRANCH   9  16
ATOM     15  N   UNL     1      35.199 -22.162 -18.368  0.00  0.00    -0.242 NA
ATOM     16  C   UNL     1      35.068 -20.153 -20.344  0.00  0.00    +0.051 C 
ATOM     17  C   UNL     1      36.298 -20.557 -19.804  0.00  0.00    +0.035 C 
ATOM     18  C   UNL     1      33.904 -20.780 -19.871  0.00  0.00    +0.035 C 
ATOM     19  C   UNL     1      36.309 -21.548 -18.835  0.00  0.00    +0.100 C 
ATOM     20  C   UNL     1      34.022 -21.761 -18.900  0.00  0.00    +0.100 C 
ENDBRANCH   9  16
ENDBRANCH   4  10
BRANCH   3  21
ATOM     21  S   UNL     1      31.907 -11.542 -21.347  0.00  0.00    +0.063 S 
ATOM     22  O   UNL     1      32.353 -11.494 -19.973  0.00  0.00    -0.153 OA
ATOM     23  O   UNL     1      30.531 -11.847 -21.675  0.00  0.00    -0.153 OA
BRANCH  21  25
ATOM     24 CL   UNL     1      32.907  -3.697 -24.371  0.00  0.00    -0.082 Cl
ATOM     25  C   UNL     1      32.317 -10.001 -22.104  0.00  0.00    +0.122 C 
ATOM     26  C   UNL     1      31.537  -8.888 -21.839  0.00  0.00    +0.020 C 
ATOM     27  C   UNL     1      33.411  -9.932 -22.946  0.00  0.00    +0.020 C 
ATOM     28  C   UNL     1      31.851  -7.653 -22.433  0.00  0.00    +0.001 C 
ATOM     29  C   UNL     1      32.967  -7.566 -23.298  0.00  0.00    +0.001 C 
ATOM     30  C   UNL     1      33.737  -8.714 -23.544  0.00  0.00    +0.001 C 
ATOM     31  C   UNL     1      31.081  -6.505 -22.186  0.00  0.00    +0.001 C 
ATOM     32  C   UNL     1      33.282  -6.332 -23.891  0.00  0.00    +0.011 C 
ATOM     33  C   UNL     1      31.407  -5.287 -22.785  0.00  0.00    +0.011 C 
ATOM     34  C   UNL     1      32.505  -5.201 -23.636  0.00  0.00    +0.058 C 
ENDBRANCH  21  25
ENDBRANCH   3  21
TORSDOF 4
ENDMDL
MODEL 3
REMARK VINA RESULT:     -10.3      1.655      2.244
REMARK  Name = 446399
REMARK  4 active torsions:
REMARK  status: ('A' for Active; 'I' for Inactive)
REMARK    1  A    between atoms: N_3  and  S_21
REMARK    2  A    between atoms: C_4  and  C_10
REMARK    3  A    between atoms: N_9  and  C_16
REMARK    4  A    between atoms: S_21  and  C_25
REMARK                            x       y       z     vdW  Elec       q    Type
REMARK                         _______ _______ _______ _____ _____    ______ ____
ROOT
ATOM      1  O   UNL     1      32.467 -13.795 -19.520  0.00  0.00    -0.275 OA
ATOM      2  N   UNL     1      34.052 -14.622 -21.003  0.00  0.00    -0.277 N 
ATOM      3  N   UNL     1      35.370 -16.968 -21.929  0.00  0.00    -0.152 NA
ATOM      4  C   UNL     1      33.018 -13.768 -20.624  0.00  0.00    +0.225 C 
ATOM      5  C   UNL     1      34.727 -14.616 -22.306  0.00  0.00    +0.113 C 
ATOM      6  C   UNL     1      34.597 -15.583 -20.044  0.00  0.00    +0.113 C 
ATOM      7  C   UNL     1      34.756 -16.019 -22.906  0.00  0.00    +0.117 C 
ATOM      8  C   UNL     1      34.622 -16.988 -20.635  0.00  0.00    +0.117 C 
ENDROOT
BRANCH   4  10
ATOM      9  N   UNL     1      32.533 -10.070 -22.695  0.00  0.00    -0.307 N 
ATOM     10  C   UNL     1      32.564 -12.761 -21.650  0.00  0.00    +0.080 C 
ATOM     11  C   UNL     1      33.783 -12.164 -22.350  0.00  0.00    +0.031 C 
ATOM     12  C   UNL     1      31.754 -11.655 -20.978  0.00  0.00    +0.031 C 
ATOM     13  C   UNL     1      33.380 -11.076 -23.345  0.00  0.00    +0.091 C 
ATOM     14  C   UNL     1      31.352 -10.574 -21.979  0.00  0.00    +0.091 C 
BRANCH   9  16
ATOM     15  N   UNL     1      32.301  -6.183 -24.325  0.00  0.00    -0.242 NA
ATOM     16  C   UNL     1      32.456  -8.780 -23.236  0.00  0.00    +0.051 C 
ATOM     17  C   UNL     1      33.616  -8.047 -23.525  0.00  0.00    +0.035 C 
ATOM     18  C   UNL     1      31.215  -8.182 -23.504  0.00  0.00    +0.035 C 
ATOM     19  C   UNL     1      33.487  -6.775 -24.060  0.00  0.00    +0.100 C 
ATOM     20  C   UNL     1      31.193  -6.904 -24.040  0.00  0.00    +0.100 C 
ENDBRANCH   9  16
ENDBRANCH   4  10
BRANCH   3  21
ATOM     21  S   UNL     1      35.783 -18.506 -22.560  0.00  0.00    +0.063 S 
ATOM     22  O   UNL     1      37.217 -18.678 -22.481  0.00  0.00    -0.153 OA
ATOM     23  O   UNL     1      35.074 -18.707 -23.805  0.00  0.00    -0.153 OA
BRANCH  21  25
ATOM     24 CL   UNL     1      33.384 -23.643 -16.272  0.00  0.00    -0.082 Cl
ATOM     25  C   UNL     1      35.046 -19.546 -21.339  0.00  0.00    +0.122 C 
ATOM     26  C   UNL     1      35.849 -20.145 -20.384  0.00  0.00    +0.020 C 
ATOM     27  C   UNL     1      33.677 -19.744 -21.358  0.00  0.00    +0.020 C 
ATOM     28  C   UNL     1      35.278 -20.976 -19.406  0.00  0.00    +0.001 C 
ATOM     29  C   UNL     1      33.879 -21.189 -19.411  0.00  0.00    +0.001 C 
ATOM     30  C   UNL     1      33.093 -20.566 -20.393  0.00  0.00    +0.001 C 
ATOM     31  C   UNL     1      36.064 -21.599 -18.423  0.00  0.00    +0.001 C 
ATOM     32  C   UNL     1      33.307 -22.019 -18.432  0.00  0.00    +0.011 C 
ATOM     33  C   UNL     1      35.479 -22.421 -17.459  0.00  0.00    +0.011 C 
ATOM     34  C   UNL     1      34.103 -22.631 -17.464  0.00  0.00    +0.058 C 
ENDBRANCH  21  25
ENDBRANCH   3  21
TORSDOF 4
ENDMDL
MODEL 4
REMARK VINA RESULT:      -9.8      5.316     12.409
REMARK  Name = 446399
REMARK  4 active torsions:
REMARK  status: ('A' for Active; 'I' for Inactive)
REMARK    1  A    between atoms: N_3  and  S_21
REMARK    2  A    between atoms: C_4  and  C_10
REMARK    3  A    between atoms: N_9  and  C_16
REMARK    4  A    between atoms: S_21  and  C_25
REMARK                            x       y       z     vdW  Elec       q    Type
REMARK                         _______ _______ _______ _____ _____    ______ ____
ROOT
ATOM      1  O   UNL     1      33.775 -14.073 -25.869  0.00  0.00    -0.275 OA
ATOM      2  N   UNL     1      33.847 -12.643 -24.040  0.00  0.00    -0.277 N 
ATOM      3  N   UNL     1      32.994 -10.127 -23.021  0.00  0.00    -0.152 NA
ATOM      4  C   UNL     1      33.784 -13.896 -24.648  0.00  0.00    +0.225 C 
ATOM      5  C   UNL     1      33.859 -12.397 -22.593  0.00  0.00    +0.113 C 
ATOM      6  C   UNL     1      33.979 -11.437 -24.860  0.00  0.00    +0.113 C 
ATOM      7  C   UNL     1      32.799 -11.368 -22.211  0.00  0.00    +0.117 C 
ATOM      8  C   UNL     1      32.919 -10.408 -24.487  0.00  0.00    +0.117 C 
ENDROOT
BRANCH   4  10
ATOM      9  N   UNL     1      35.025 -17.165 -22.205  0.00  0.00    -0.307 N 
ATOM     10  C   UNL     1      33.721 -15.089 -23.728  0.00  0.00    +0.080 C 
ATOM     11  C   UNL     1      34.473 -14.776 -22.437  0.00  0.00    +0.031 C 
ATOM     12  C   UNL     1      34.337 -16.309 -24.409  0.00  0.00    +0.031 C 
ATOM     13  C   UNL     1      34.508 -15.985 -21.502  0.00  0.00    +0.091 C 
ATOM     14  C   UNL     1      34.365 -17.513 -23.470  0.00  0.00    +0.091 C 
BRANCH   9  16
ATOM     15  N   UNL     1      36.745 -20.314 -19.980  0.00  0.00    -0.242 NA
ATOM     16  C   UNL     1      35.595 -18.210 -21.467  0.00  0.00    +0.051 C 
ATOM     17  C   UNL     1      34.814 -19.279 -21.003  0.00  0.00    +0.035 C 
ATOM     18  C   UNL     1      36.967 -18.219 -21.168  0.00  0.00    +0.035 C 
ATOM     19  C   UNL     1      35.426 -20.289 -20.277  0.00  0.00    +0.100 C 
ATOM     20  C   UNL     1      37.483 -19.276 -20.435  0.00  0.00    +0.100 C 
ENDBRANCH   9  16
ENDBRANCH   4  10
BRANCH   3  21
ATOM     21  S   UNL     1      32.110  -8.759 -22.491  0.00  0.00    +0.063 S 
ATOM     22  O   UNL     1      32.353  -8.558 -21.080  0.00  0.00    -0.153 OA
ATOM     23  O   UNL     1      30.763  -8.842 -23.012  0.00  0.00    -0.153 OA
BRANCH  21  25
ATOM     24 CL   UNL     1      35.059  -2.289 -27.088  0.00  0.00    -0.082 Cl
ATOM     25  C   UNL     1      32.957  -7.486 -23.373  0.00  0.00    +0.122 C 
ATOM     26  C   UNL     1      32.226  -6.578 -24.121  0.00  0.00    +0.020 C 
ATOM     27  C   UNL     1      34.336  -7.416 -23.300  0.00  0.00    +0.020 C 
ATOM     28  C   UNL     1      32.885  -5.559 -24.828  0.00  0.00    +0.001 C 
ATOM     29  C   UNL     1      34.296  -5.473 -24.764  0.00  0.00    +0.001 C 
ATOM     30  C   UNL     1      35.006  -6.409 -23.996  0.00  0.00    +0.001 C 
ATOM     31  C   UNL     1      32.174  -4.623 -25.596  0.00  0.00    +0.001 C 
ATOM     32  C   UNL     1      34.955  -4.454 -25.471  0.00  0.00    +0.011 C 
ATOM     33  C   UNL     1      32.845  -3.617 -26.293  0.00  0.00    +0.011 C 
ATOM     34  C   UNL     1      34.233  -3.533 -26.230  0.00  0.00    +0.058 C 
ENDBRANCH  21  25
ENDBRANCH   3  21
TORSDOF 4
ENDMDL
MODEL 5
REMARK VINA RESULT:      -9.6      4.450     11.285
REMARK  Name = 446399
REMARK  4 active torsions:
REMARK  status: ('A' for Active; 'I' for Inactive)
REMARK    1  A    between atoms: N_3  and  S_21
REMARK    2  A    between atoms: C_4  and  C_10
REMARK    3  A    between atoms: N_9  and  C_16
REMARK    4  A    between atoms: S_21  and  C_25
REMARK                            x       y       z     vdW  Elec       q    Type
REMARK                         _______ _______ _______ _____ _____    ______ ____
ROOT
ATOM      1  O   UNL     1      37.238 -21.043 -19.453  0.00  0.00    -0.275 OA
ATOM      2  N   UNL     1      35.463 -19.879 -20.397  0.00  0.00    -0.277 N 
ATOM      3  N   UNL     1      34.595 -18.404 -22.670  0.00  0.00    -0.152 NA
ATOM      4  C   UNL     1      36.026 -20.909 -19.645  0.00  0.00    +0.225 C 
ATOM      5  C   UNL     1      34.028 -19.691 -20.644  0.00  0.00    +0.113 C 
ATOM      6  C   UNL     1      36.316 -18.832 -20.959  0.00  0.00    +0.113 C 
ATOM      7  C   UNL     1      33.755 -19.517 -22.135  0.00  0.00    +0.117 C 
ATOM      8  C   UNL     1      36.052 -18.658 -22.450  0.00  0.00    +0.117 C 
ENDROOT
BRANCH   4  10
ATOM      9  N   UNL     1      33.192 -22.670 -16.987  0.00  0.00    -0.307 N 
ATOM     10  C   UNL     1      35.069 -21.906 -19.042  0.00  0.00    +0.080 C 
ATOM     11  C   UNL     1      33.673 -21.292 -18.971  0.00  0.00    +0.031 C 
ATOM     12  C   UNL     1      35.537 -22.304 -17.645  0.00  0.00    +0.031 C 
ATOM     13  C   UNL     1      32.681 -22.235 -18.292  0.00  0.00    +0.091 C 
ATOM     14  C   UNL     1      34.542 -23.249 -16.975  0.00  0.00    +0.091 C 
BRANCH   9  16
ATOM     15  N   UNL     1      30.483 -23.997 -14.034  0.00  0.00    -0.242 NA
ATOM     16  C   UNL     1      32.293 -23.110 -16.007  0.00  0.00    +0.051 C 
ATOM     17  C   UNL     1      32.749 -23.575 -14.764  0.00  0.00    +0.035 C 
ATOM     18  C   UNL     1      30.909 -23.100 -16.239  0.00  0.00    +0.035 C 
ATOM     19  C   UNL     1      31.819 -24.000 -13.828  0.00  0.00    +0.100 C 
ATOM     20  C   UNL     1      30.062 -23.546 -15.237  0.00  0.00    +0.100 C 
ENDBRANCH   9  16
ENDBRANCH   4  10
BRANCH   3  21
ATOM     21  S   UNL     1      34.176 -17.855 -24.237  0.00  0.00    +0.063 S 
ATOM     22  O   UNL     1      32.837 -18.304 -24.552  0.00  0.00    -0.153 OA
ATOM     23  O   UNL     1      35.280 -18.114 -25.135  0.00  0.00    -0.153 OA
BRANCH  21  25
ATOM     24 CL   UNL     1      33.498  -9.418 -24.012  0.00  0.00    -0.082 Cl
ATOM     25  C   UNL     1      34.108 -16.115 -23.946  0.00  0.00    +0.122 C 
ATOM     26  C   UNL     1      33.735 -15.270 -24.977  0.00  0.00    +0.020 C 
ATOM     27  C   UNL     1      34.428 -15.627 -22.692  0.00  0.00    +0.020 C 
ATOM     28  C   UNL     1      33.676 -13.882 -24.761  0.00  0.00    +0.001 C 
ATOM     29  C   UNL     1      34.000 -13.367 -23.484  0.00  0.00    +0.001 C 
ATOM     30  C   UNL     1      34.374 -14.252 -22.461  0.00  0.00    +0.001 C 
ATOM     31  C   UNL     1      33.301 -12.997 -25.785  0.00  0.00    +0.001 C 
ATOM     32  C   UNL     1      33.940 -11.980 -23.267  0.00  0.00    +0.011 C 
ATOM     33  C   UNL     1      33.248 -11.622 -25.552  0.00  0.00    +0.011 C 
ATOM     34  C   UNL     1      33.567 -11.115 -24.296  0.00  0.00    +0.058 C 
ENDBRANCH  21  25
ENDBRANCH   3  21
TORSDOF 4
ENDMDL
MODEL 6
REMARK VINA RESULT:      -9.6      3.387      6.001
REMARK  Name = 446399
REMARK  4 active torsions:
REMARK  status: ('A' for Active; 'I' for Inactive)
REMARK    1  A    between atoms: N_3  and  S_21
REMARK    2  A    between atoms: C_4  and  C_10
REMARK    3  A    between atoms: N_9  and  C_16
REMARK    4  A    between atoms: S_21  and  C_25
REMARK                            x       y       z     vdW  Elec       q    Type
REMARK                         _______ _______ _______ _____ _____    ______ ____
ROOT
ATOM      1  O   UNL     1      36.886 -17.904 -20.410  0.00  0.00    -0.275 OA
ATOM      2  N   UNL     1      35.325 -19.613 -20.595  0.00  0.00    -0.277 N 
ATOM      3  N   UNL     1      34.214 -21.897 -19.313  0.00  0.00    -0.152 NA
ATOM      4  C   UNL     1      35.779 -18.308 -20.776  0.00  0.00    +0.225 C 
ATOM      5  C   UNL     1      34.016 -20.125 -21.017  0.00  0.00    +0.113 C 
ATOM      6  C   UNL     1      36.205 -20.619 -20.000  0.00  0.00    +0.113 C 
ATOM      7  C   UNL     1      33.317 -20.837 -19.863  0.00  0.00    +0.117 C 
ATOM      8  C   UNL     1      35.514 -21.329 -18.842  0.00  0.00    +0.117 C 
ENDROOT
BRANCH   4  10
ATOM      9  N   UNL     1      34.351 -14.958 -22.997  0.00  0.00    -0.307 N 
ATOM     10  C   UNL     1      34.835 -17.353 -21.461  0.00  0.00    +0.080 C 
ATOM     11  C   UNL     1      35.178 -17.277 -22.947  0.00  0.00    +0.031 C 
ATOM     12  C   UNL     1      34.938 -15.968 -20.829  0.00  0.00    +0.031 C 
ATOM     13  C   UNL     1      34.300 -16.259 -23.673  0.00  0.00    +0.091 C 
ATOM     14  C   UNL     1      34.055 -14.958 -21.557  0.00  0.00    +0.091 C 
BRANCH   9  16
ATOM     15  N   UNL     1      33.437 -11.454 -25.167  0.00  0.00    -0.242 NA
ATOM     16  C   UNL     1      34.048 -13.795 -23.717  0.00  0.00    +0.051 C 
ATOM     17  C   UNL     1      34.112 -12.531 -23.111  0.00  0.00    +0.035 C 
ATOM     18  C   UNL     1      33.669 -13.859 -25.067  0.00  0.00    +0.035 C 
ATOM     19  C   UNL     1      33.802 -11.411 -23.866  0.00  0.00    +0.100 C 
ATOM     20  C   UNL     1      33.380 -12.680 -25.735  0.00  0.00    +0.100 C 
ENDBRANCH   9  16
ENDBRANCH   4  10
BRANCH   3  21
ATOM     21  S   UNL     1      33.469 -23.007 -18.241  0.00  0.00    +0.063 S 
ATOM     22  O   UNL     1      33.532 -24.332 -18.816  0.00  0.00    -0.153 OA
ATOM     23  O   UNL     1      32.214 -22.448 -17.788  0.00  0.00    -0.153 OA
BRANCH  21  25
ATOM     24 CL   UNL     1      38.068 -23.297 -11.138  0.00  0.00    -0.082 Cl
ATOM     25  C   UNL     1      34.609 -22.947 -16.895  0.00  0.00    +0.122 C 
ATOM     26  C   UNL     1      34.244 -23.488 -15.674  0.00  0.00    +0.020 C 
ATOM     27  C   UNL     1      35.847 -22.361 -17.084  0.00  0.00    +0.020 C 
ATOM     28  C   UNL     1      35.140 -23.448 -14.592  0.00  0.00    +0.001 C 
ATOM     29  C   UNL     1      36.412 -22.853 -14.769  0.00  0.00    +0.001 C 
ATOM     30  C   UNL     1      36.749 -22.313 -16.020  0.00  0.00    +0.001 C 
ATOM     31  C   UNL     1      34.802 -23.988 -13.341  0.00  0.00    +0.001 C 
ATOM     32  C   UNL     1      37.308 -22.814 -13.688  0.00  0.00    +0.011 C 
ATOM     33  C   UNL     1      35.705 -23.940 -12.277  0.00  0.00    +0.011 C 
ATOM     34  C   UNL     1      36.955 -23.353 -12.451  0.00  0.00    +0.058 C 
ENDBRANCH  21  25
ENDBRANCH   3  21
TORSDOF 4
ENDMDL
MODEL 7
REMARK VINA RESULT:      -9.4      5.999     13.055
REMARK  Name = 446399
REMARK  4 active torsions:
REMARK  status: ('A' for Active; 'I' for Inactive)
REMARK    1  A    between atoms: N_3  and  S_21
REMARK    2  A    between atoms: C_4  and  C_10
REMARK    3  A    between atoms: N_9  and  C_16
REMARK    4  A    between atoms: S_21  and  C_25
REMARK                            x       y       z     vdW  Elec       q    Type
REMARK                         _______ _______ _______ _____ _____    ______ ____
ROOT
ATOM      1  O   UNL     1      31.466 -12.528 -21.609  0.00  0.00    -0.275 OA
ATOM      2  N   UNL     1      32.615 -10.906 -22.809  0.00  0.00    -0.277 N 
ATOM      3  N   UNL     1      33.400  -8.171 -22.860  0.00  0.00    -0.152 NA
ATOM      4  C   UNL     1      32.413 -12.198 -22.328  0.00  0.00    +0.225 C 
ATOM      5  C   UNL     1      33.730 -10.480 -23.664  0.00  0.00    +0.113 C 
ATOM      6  C   UNL     1      31.635  -9.857 -22.526  0.00  0.00    +0.113 C 
ATOM      7  C   UNL     1      34.414  -9.245 -23.084  0.00  0.00    +0.117 C 
ATOM      8  C   UNL     1      32.312  -8.623 -21.940  0.00  0.00    +0.117 C 
ENDROOT
BRANCH   4  10
ATOM      9  N   UNL     1      34.221 -15.988 -23.077  0.00  0.00    -0.307 N 
ATOM     10  C   UNL     1      33.434 -13.234 -22.725  0.00  0.00    +0.080 C 
ATOM     11  C   UNL     1      32.881 -14.080 -23.869  0.00  0.00    +0.031 C 
ATOM     12  C   UNL     1      33.770 -14.124 -21.532  0.00  0.00    +0.031 C 
ATOM     13  C   UNL     1      33.847 -15.199 -24.256  0.00  0.00    +0.091 C 
ATOM     14  C   UNL     1      34.739 -15.237 -21.925  0.00  0.00    +0.091 C 
BRANCH   9  16
ATOM     15  N   UNL     1      35.581 -19.953 -23.581  0.00  0.00    -0.242 NA
ATOM     16  C   UNL     1      34.672 -17.304 -23.244  0.00  0.00    +0.051 C 
ATOM     17  C   UNL     1      35.697 -17.825 -22.439  0.00  0.00    +0.035 C 
ATOM     18  C   UNL     1      34.113 -18.141 -24.222  0.00  0.00    +0.035 C 
ATOM     19  C   UNL     1      36.108 -19.132 -22.644  0.00  0.00    +0.100 C 
ATOM     20  C   UNL     1      34.595 -19.435 -24.347  0.00  0.00    +0.100 C 
ENDBRANCH   9  16
ENDBRANCH   4  10
BRANCH   3  21
ATOM     21  S   UNL     1      34.039  -6.616 -22.531  0.00  0.00    +0.063 S 
ATOM     22  O   UNL     1      35.479  -6.707 -22.443  0.00  0.00    -0.153 OA
ATOM     23  O   UNL     1      33.263  -6.006 -21.473  0.00  0.00    -0.153 OA
BRANCH  21  25
ATOM     24 CL   UNL     1      33.330  -2.688 -29.997  0.00  0.00    -0.082 Cl
ATOM     25  C   UNL     1      33.639  -5.794 -24.041  0.00  0.00    +0.122 C 
ATOM     26  C   UNL     1      34.657  -5.449 -24.914  0.00  0.00    +0.020 C 
ATOM     27  C   UNL     1      32.317  -5.510 -24.326  0.00  0.00    +0.020 C 
ATOM     28  C   UNL     1      34.356  -4.794 -26.120  0.00  0.00    +0.001 C 
ATOM     29  C   UNL     1      33.007  -4.496 -26.427  0.00  0.00    +0.001 C 
ATOM     30  C   UNL     1      31.999  -4.861 -25.520  0.00  0.00    +0.001 C 
ATOM     31  C   UNL     1      35.364  -4.430 -27.028  0.00  0.00    +0.001 C 
ATOM     32  C   UNL     1      32.705  -3.843 -27.634  0.00  0.00    +0.011 C 
ATOM     33  C   UNL     1      35.046  -3.780 -28.221  0.00  0.00    +0.011 C 
ATOM     34  C   UNL     1      33.719  -3.487 -28.523  0.00  0.00    +0.058 C 
ENDBRANCH  21  25
ENDBRANCH   3  21
TORSDOF 4
ENDMDL
