MODEL 1
REMARK VINA RESULT:     -11.8      0.000      0.000
REMARK  Name = 6918314
REMARK  8 active torsions:
REMARK  status: ('A' for Active; 'I' for Inactive)
REMARK    1  A    between atoms: N_1  and  C_22
REMARK    2  A    between atoms: N_2  and  C_9
REMARK    3  A    between atoms: C_16  and  C_19
REMARK    4  A    between atoms: C_22  and  C_23
REMARK    5  A    between atoms: C_23  and  C_24
REMARK    6  A    between atoms: C_24  and  C_25
REMARK    7  A    between atoms: C_25  and  C_27
REMARK    8  A    between atoms: C_33  and  C_37
REMARK                            x       y       z     vdW  Elec       q    Type
REMARK                         _______ _______ _______ _____ _____    ______ ____
ROOT
ATOM      1  N   UNL     1      35.094 -16.373 -23.073  0.00  0.00    +0.389 N 
ATOM      2  N   UNL     1      33.634 -13.957 -22.641  0.00  0.00    -0.312 N 
ATOM      3  C   UNL     1      34.035 -15.969 -24.005  0.00  0.00    -0.055 C 
ATOM      4  C   UNL     1      34.751 -15.946 -21.712  0.00  0.00    -0.055 C 
ATOM      5  C   UNL     1      33.854 -14.450 -24.006  0.00  0.00    +0.068 C 
ATOM      6  C   UNL     1      34.592 -14.426 -21.635  0.00  0.00    +0.068 C 
ATOM      7  H   UNL     1      35.966 -15.921 -23.349  0.00  0.00    -0.080 HD
ENDROOT
BRANCH   2   9
ATOM      8  O   UNL     1      31.280  -8.983 -22.129  0.00  0.00    -0.449 OA
ATOM      9  C   UNL     1      33.015 -12.711 -22.483  0.00  0.00    +0.048 C 
ATOM     10  C   UNL     1      33.403 -11.609 -23.285  0.00  0.00    +0.018 C 
ATOM     11  C   UNL     1      31.995 -12.530 -21.523  0.00  0.00    +0.018 C 
ATOM     12  C   UNL     1      32.772 -10.364 -23.114  0.00  0.00    +0.039 C 
ATOM     13  C   UNL     1      31.774 -10.253 -22.151  0.00  0.00    +0.146 C 
ATOM     14  C   UNL     1      31.353 -11.302 -21.336  0.00  0.00    +0.039 C 
ATOM     15  C   UNL     1      32.882  -9.079 -23.706  0.00  0.00    +0.045 C 
ATOM     16  C   UNL     1      31.958  -8.280 -23.075  0.00  0.00    +0.198 C 
BRANCH  16  19
ATOM     17  O   UNL     1      31.904  -6.226 -24.269  0.00  0.00    -0.267 OA
ATOM     18  N   UNL     1      30.950  -6.248 -22.210  0.00  0.00    -0.323 N 
ATOM     19  C   UNL     1      31.624  -6.908 -23.251  0.00  0.00    +0.277 C 
ATOM     20  H   UNL     1      30.707  -5.299 -22.306  0.00  0.00    +0.145 HD
ATOM     21  H   UNL     1      30.721  -6.734 -21.386  0.00  0.00    +0.145 HD
ENDBRANCH  16  19
ENDBRANCH   2   9
BRANCH   1  22
ATOM     22  C   UNL     1      35.296 -17.821 -23.121  0.00  0.00    -0.077 C 
BRANCH  22  23
ATOM     23  C   UNL     1      35.663 -18.352 -21.736  0.00  0.00    -0.022 C 
BRANCH  23  24
ATOM     24  C   UNL     1      34.956 -19.677 -21.447  0.00  0.00    +0.003 C 
BRANCH  24  25
ATOM     25  C   UNL     1      35.576 -20.389 -20.241  0.00  0.00    +0.028 C 
BRANCH  25  27
ATOM     26  N   UNL     1      32.657 -22.049 -18.807  0.00  0.00    -0.312 N 
ATOM     27  C   UNL     1      34.560 -21.153 -19.445  0.00  0.00    -0.006 C 
ATOM     28  C   UNL     1      34.807 -21.847 -18.244  0.00  0.00    +0.011 C 
ATOM     29  C   UNL     1      33.245 -21.284 -19.778  0.00  0.00    +0.058 C 
ATOM     30  C   UNL     1      33.587 -22.408 -17.857  0.00  0.00    +0.048 C 
ATOM     31  C   UNL     1      35.940 -22.065 -17.435  0.00  0.00    +0.011 C 
ATOM     32  C   UNL     1      33.444 -23.176 -16.696  0.00  0.00    +0.015 C 
ATOM     33  C   UNL     1      35.811 -22.832 -16.271  0.00  0.00    +0.069 C 
ATOM     34  C   UNL     1      34.582 -23.378 -15.909  0.00  0.00    +0.012 C 
ATOM     35  H   UNL     1      31.707 -22.305 -18.789  0.00  0.00    +0.152 HD
BRANCH  33  37
ATOM     36  N   UNL     1      37.886 -23.238 -14.773  0.00  0.00    -0.191 NA
ATOM     37  C   UNL     1      36.957 -23.055 -15.444  0.00  0.00    +0.100 C 
ENDBRANCH  33  37
ENDBRANCH  25  27
ENDBRANCH  24  25
ENDBRANCH  23  24
ENDBRANCH  22  23
ENDBRANCH   1  22
TORSDOF 8
ENDMDL
MODEL 2
REMARK VINA RESULT:     -11.8      2.102      3.809
REMARK  Name = 6918314
REMARK  8 active torsions:
REMARK  status: ('A' for Active; 'I' for Inactive)
REMARK    1  A    between atoms: N_1  and  C_22
REMARK    2  A    between atoms: N_2  and  C_9
REMARK    3  A    between atoms: C_16  and  C_19
REMARK    4  A    between atoms: C_22  and  C_23
REMARK    5  A    between atoms: C_23  and  C_24
REMARK    6  A    between atoms: C_24  and  C_25
REMARK    7  A    between atoms: C_25  and  C_27
REMARK    8  A    between atoms: C_33  and  C_37
REMARK                            x       y       z     vdW  Elec       q    Type
REMARK                         _______ _______ _______ _____ _____    ______ ____
ROOT
ATOM      1  N   UNL     1      33.305 -14.163 -24.490  0.00  0.00    +0.389 N 
ATOM      2  N   UNL     1      33.574 -11.368 -23.972  0.00  0.00    -0.312 N 
ATOM      3  C   UNL     1      33.752 -13.693 -23.174  0.00  0.00    -0.055 C 
ATOM      4  C   UNL     1      33.792 -13.258 -25.537  0.00  0.00    -0.055 C 
ATOM      5  C   UNL     1      33.221 -12.288 -22.884  0.00  0.00    +0.068 C 
ATOM      6  C   UNL     1      33.264 -11.838 -25.326  0.00  0.00    +0.068 C 
ATOM      7  H   UNL     1      32.285 -14.169 -24.509  0.00  0.00    -0.080 HD
ENDROOT
BRANCH   2   9
ATOM      8  O   UNL     1      33.454  -5.957 -22.855  0.00  0.00    -0.449 OA
ATOM      9  C   UNL     1      33.582  -9.995 -23.697  0.00  0.00    +0.048 C 
ATOM     10  C   UNL     1      32.392  -9.335 -23.303  0.00  0.00    +0.018 C 
ATOM     11  C   UNL     1      34.773  -9.245 -23.809  0.00  0.00    +0.018 C 
ATOM     12  C   UNL     1      32.416  -7.956 -23.030  0.00  0.00    +0.039 C 
ATOM     13  C   UNL     1      33.622  -7.275 -23.158  0.00  0.00    +0.146 C 
ATOM     14  C   UNL     1      34.821  -7.873 -23.542  0.00  0.00    +0.039 C 
ATOM     15  C   UNL     1      31.465  -6.984 -22.624  0.00  0.00    +0.045 C 
ATOM     16  C   UNL     1      32.144  -5.791 -22.533  0.00  0.00    +0.198 C 
BRANCH  16  19
ATOM     17  O   UNL     1      31.995  -3.435 -22.801  0.00  0.00    -0.267 OA
ATOM     18  N   UNL     1      30.913  -4.341 -21.024  0.00  0.00    -0.323 N 
ATOM     19  C   UNL     1      31.707  -4.485 -22.174  0.00  0.00    +0.277 C 
ATOM     20  H   UNL     1      30.598  -3.448 -20.753  0.00  0.00    +0.145 HD
ATOM     21  H   UNL     1      30.673  -5.131 -20.489  0.00  0.00    +0.145 HD
ENDBRANCH  16  19
ENDBRANCH   2   9
BRANCH   1  22
ATOM     22  C   UNL     1      33.773 -15.528 -24.734  0.00  0.00    -0.077 C 
BRANCH  22  23
ATOM     23  C   UNL     1      34.599 -16.025 -23.548  0.00  0.00    -0.022 C 
BRANCH  23  24
ATOM     24  C   UNL     1      35.033 -17.478 -23.748  0.00  0.00    +0.003 C 
BRANCH  24  25
ATOM     25  C   UNL     1      34.482 -18.382 -22.641  0.00  0.00    +0.028 C 
BRANCH  25  27
ATOM     26  N   UNL     1      37.537 -19.262 -20.844  0.00  0.00    -0.312 N 
ATOM     27  C   UNL     1      35.563 -18.913 -21.748  0.00  0.00    -0.006 C 
ATOM     28  C   UNL     1      35.387 -19.841 -20.701  0.00  0.00    +0.011 C 
ATOM     29  C   UNL     1      36.880 -18.568 -21.824  0.00  0.00    +0.058 C 
ATOM     30  C   UNL     1      36.650 -20.048 -20.142  0.00  0.00    +0.048 C 
ATOM     31  C   UNL     1      34.285 -20.534 -20.161  0.00  0.00    +0.011 C 
ATOM     32  C   UNL     1      36.867 -20.917 -19.067  0.00  0.00    +0.015 C 
ATOM     33  C   UNL     1      34.487 -21.406 -19.085  0.00  0.00    +0.069 C 
ATOM     34  C   UNL     1      35.759 -21.593 -18.548  0.00  0.00    +0.012 C 
ATOM     35  H   UNL     1      38.504 -19.209 -20.667  0.00  0.00    +0.152 HD
BRANCH  33  37
ATOM     36  N   UNL     1      32.469 -22.687 -18.085  0.00  0.00    -0.191 NA
ATOM     37  C   UNL     1      33.373 -22.113 -18.533  0.00  0.00    +0.100 C 
ENDBRANCH  33  37
ENDBRANCH  25  27
ENDBRANCH  24  25
ENDBRANCH  23  24
ENDBRANCH  22  23
ENDBRANCH   1  22
TORSDOF 8
ENDMDL
MODEL 3
REMARK VINA RESULT:     -11.7      3.757      6.502
REMARK  Name = 6918314
REMARK  8 active torsions:
REMARK  status: ('A' for Active; 'I' for Inactive)
REMARK    1  A    between atoms: N_1  and  C_22
REMARK    2  A    between atoms: N_2  and  C_9
REMARK    3  A    between atoms: C_16  and  C_19
REMARK    4  A    between atoms: C_22  and  C_23
REMARK    5  A    between atoms: C_23  and  C_24
REMARK    6  A    between atoms: C_24  and  C_25
REMARK    7  A    between atoms: C_25  and  C_27
REMARK    8  A    between atoms: C_33  and  C_37
REMARK                            x       y       z     vdW  Elec       q    Type
REMARK                         _______ _______ _______ _____ _____    ______ ____
ROOT
ATOM      1  N   UNL     1      36.248 -20.903 -18.744  0.00  0.00    +0.389 N 
ATOM      2  N   UNL     1      35.429 -19.436 -21.053  0.00  0.00    -0.312 N 
ATOM      3  C   UNL     1      37.248 -20.306 -19.637  0.00  0.00    -0.055 C 
ATOM      4  C   UNL     1      35.078 -21.331 -19.519  0.00  0.00    -0.055 C 
ATOM      5  C   UNL     1      36.677 -19.087 -20.364  0.00  0.00    +0.068 C 
ATOM      6  C   UNL     1      34.435 -20.147 -20.244  0.00  0.00    +0.068 C 
ATOM      7  H   UNL     1      35.953 -20.202 -18.064  0.00  0.00    -0.080 HD
ENDROOT
BRANCH   2   9
ATOM      8  O   UNL     1      33.802 -16.083 -25.134  0.00  0.00    -0.449 OA
ATOM      9  C   UNL     1      35.009 -18.618 -22.109  0.00  0.00    +0.048 C 
ATOM     10  C   UNL     1      35.033 -17.207 -21.978  0.00  0.00    +0.018 C 
ATOM     11  C   UNL     1      34.554 -19.183 -23.321  0.00  0.00    +0.018 C 
ATOM     12  C   UNL     1      34.608 -16.399 -23.047  0.00  0.00    +0.039 C 
ATOM     13  C   UNL     1      34.172 -17.018 -24.214  0.00  0.00    +0.146 C 
ATOM     14  C   UNL     1      34.127 -18.400 -24.398  0.00  0.00    +0.039 C 
ATOM     15  C   UNL     1      34.492 -15.005 -23.284  0.00  0.00    +0.045 C 
ATOM     16  C   UNL     1      34.000 -14.867 -24.561  0.00  0.00    +0.198 C 
BRANCH  16  19
ATOM     17  O   UNL     1      33.530 -13.698 -26.576  0.00  0.00    -0.267 OA
ATOM     18  N   UNL     1      33.554 -12.483 -24.659  0.00  0.00    -0.323 N 
ATOM     19  C   UNL     1      33.685 -13.711 -25.328  0.00  0.00    +0.277 C 
ATOM     20  H   UNL     1      33.337 -11.667 -25.166  0.00  0.00    +0.145 HD
ATOM     21  H   UNL     1      33.681 -12.437 -23.684  0.00  0.00    +0.145 HD
ENDBRANCH  16  19
ENDBRANCH   2   9
BRANCH   1  22
ATOM     22  C   UNL     1      36.822 -22.033 -18.014  0.00  0.00    -0.077 C 
BRANCH  22  23
ATOM     23  C   UNL     1      37.230 -21.603 -16.606  0.00  0.00    -0.022 C 
BRANCH  23  24
ATOM     24  C   UNL     1      36.485 -22.414 -15.543  0.00  0.00    +0.003 C 
BRANCH  24  25
ATOM     25  C   UNL     1      35.098 -22.837 -16.035  0.00  0.00    +0.028 C 
BRANCH  25  27
ATOM     26  N   UNL     1      33.857 -24.852 -13.253  0.00  0.00    -0.312 N 
ATOM     27  C   UNL     1      34.328 -23.590 -14.991  0.00  0.00    -0.006 C 
ATOM     28  C   UNL     1      32.924 -23.649 -14.885  0.00  0.00    +0.011 C 
ATOM     29  C   UNL     1      34.886 -24.327 -13.989  0.00  0.00    +0.058 C 
ATOM     30  C   UNL     1      32.647 -24.454 -13.777  0.00  0.00    +0.048 C 
ATOM     31  C   UNL     1      31.847 -23.104 -15.613  0.00  0.00    +0.011 C 
ATOM     32  C   UNL     1      31.343 -24.742 -13.360  0.00  0.00    +0.015 C 
ATOM     33  C   UNL     1      30.537 -23.384 -15.206  0.00  0.00    +0.069 C 
ATOM     34  C   UNL     1      30.291 -24.191 -14.097  0.00  0.00    +0.012 C 
ATOM     35  H   UNL     1      33.966 -25.429 -12.463  0.00  0.00    +0.152 HD
BRANCH  33  37
ATOM     36  N   UNL     1      28.549 -22.390 -16.538  0.00  0.00    -0.191 NA
ATOM     37  C   UNL     1      29.440 -22.836 -15.941  0.00  0.00    +0.100 C 
ENDBRANCH  33  37
ENDBRANCH  25  27
ENDBRANCH  24  25
ENDBRANCH  23  24
ENDBRANCH  22  23
ENDBRANCH   1  22
TORSDOF 8
ENDMDL
MODEL 4
REMARK VINA RESULT:     -11.7      4.487     12.522
REMARK  Name = 6918314
REMARK  8 active torsions:
REMARK  status: ('A' for Active; 'I' for Inactive)
REMARK    1  A    between atoms: N_1  and  C_22
REMARK    2  A    between atoms: N_2  and  C_9
REMARK    3  A    between atoms: C_16  and  C_19
REMARK    4  A    between atoms: C_22  and  C_23
REMARK    5  A    between atoms: C_23  and  C_24
REMARK    6  A    between atoms: C_24  and  C_25
REMARK    7  A    between atoms: C_25  and  C_27
REMARK    8  A    between atoms: C_33  and  C_37
REMARK                            x       y       z     vdW  Elec       q    Type
REMARK                         _______ _______ _______ _____ _____    ______ ____
ROOT
ATOM      1  N   UNL     1      34.922 -16.753 -23.921  0.00  0.00    +0.389 N 
ATOM      2  N   UNL     1      34.925 -18.695 -21.828  0.00  0.00    -0.312 N 
ATOM      3  C   UNL     1      34.968 -16.330 -22.517  0.00  0.00    -0.055 C 
ATOM      4  C   UNL     1      34.130 -17.981 -24.047  0.00  0.00    -0.055 C 
ATOM      5  C   UNL     1      35.606 -17.408 -21.638  0.00  0.00    +0.068 C 
ATOM      6  C   UNL     1      34.738 -19.116 -23.220  0.00  0.00    +0.068 C 
ATOM      7  H   UNL     1      35.873 -16.940 -24.240  0.00  0.00    -0.080 HD
ENDROOT
BRANCH   2   9
ATOM      8  O   UNL     1      35.270 -22.511 -17.845  0.00  0.00    -0.449 OA
ATOM      9  C   UNL     1      35.051 -19.660 -20.821  0.00  0.00    +0.048 C 
ATOM     10  C   UNL     1      33.900 -20.216 -20.210  0.00  0.00    +0.018 C 
ATOM     11  C   UNL     1      36.326 -20.095 -20.397  0.00  0.00    +0.018 C 
ATOM     12  C   UNL     1      34.043 -21.184 -19.201  0.00  0.00    +0.039 C 
ATOM     13  C   UNL     1      35.327 -21.570 -18.829  0.00  0.00    +0.146 C 
ATOM     14  C   UNL     1      36.493 -21.057 -19.395  0.00  0.00    +0.039 C 
ATOM     15  C   UNL     1      33.161 -21.942 -18.387  0.00  0.00    +0.045 C 
ATOM     16  C   UNL     1      33.954 -22.729 -17.584  0.00  0.00    +0.198 C 
BRANCH  16  19
ATOM     17  O   UNL     1      34.436 -24.488 -16.061  0.00  0.00    -0.267 OA
ATOM     18  N   UNL     1      32.291 -23.751 -16.140  0.00  0.00    -0.323 N 
ATOM     19  C   UNL     1      33.624 -23.681 -16.580  0.00  0.00    +0.277 C 
ATOM     20  H   UNL     1      32.035 -24.401 -15.446  0.00  0.00    +0.145 HD
ATOM     21  H   UNL     1      31.614 -23.151 -16.526  0.00  0.00    +0.145 HD
ENDBRANCH  16  19
ENDBRANCH   2   9
BRANCH   1  22
ATOM     22  C   UNL     1      34.361 -15.692 -24.758  0.00  0.00    -0.077 C 
BRANCH  22  23
ATOM     23  C   UNL     1      33.749 -14.596 -23.887  0.00  0.00    -0.022 C 
BRANCH  23  24
ATOM     24  C   UNL     1      33.456 -13.338 -24.707  0.00  0.00    +0.003 C 
BRANCH  24  25
ATOM     25  C   UNL     1      33.101 -12.154 -23.803  0.00  0.00    +0.028 C 
BRANCH  25  27
ATOM     26  N   UNL     1      35.257  -9.540 -25.165  0.00  0.00    -0.312 N 
ATOM     27  C   UNL     1      33.879 -10.919 -24.149  0.00  0.00    -0.006 C 
ATOM     28  C   UNL     1      33.818  -9.688 -23.465  0.00  0.00    +0.011 C 
ATOM     29  C   UNL     1      34.759 -10.816 -25.184  0.00  0.00    +0.058 C 
ATOM     30  C   UNL     1      34.699  -8.828 -24.126  0.00  0.00    +0.048 C 
ATOM     31  C   UNL     1      33.107  -9.203 -22.350  0.00  0.00    +0.011 C 
ATOM     32  C   UNL     1      34.906  -7.505 -23.724  0.00  0.00    +0.015 C 
ATOM     33  C   UNL     1      33.303  -7.881 -21.937  0.00  0.00    +0.069 C 
ATOM     34  C   UNL     1      34.189  -7.046 -22.614  0.00  0.00    +0.012 C 
ATOM     35  H   UNL     1      35.917  -9.183 -25.801  0.00  0.00    +0.152 HD
BRANCH  33  37
ATOM     36  N   UNL     1      32.003  -6.978 -19.885  0.00  0.00    -0.191 NA
ATOM     37  C   UNL     1      32.585  -7.382 -20.804  0.00  0.00    +0.100 C 
ENDBRANCH  33  37
ENDBRANCH  25  27
ENDBRANCH  24  25
ENDBRANCH  23  24
ENDBRANCH  22  23
ENDBRANCH   1  22
TORSDOF 8
ENDMDL
MODEL 5
REMARK VINA RESULT:     -11.4      2.843      5.485
REMARK  Name = 6918314
REMARK  8 active torsions:
REMARK  status: ('A' for Active; 'I' for Inactive)
REMARK    1  A    between atoms: N_1  and  C_22
REMARK    2  A    between atoms: N_2  and  C_9
REMARK    3  A    between atoms: C_16  and  C_19
REMARK    4  A    between atoms: C_22  and  C_23
REMARK    5  A    between atoms: C_23  and  C_24
REMARK    6  A    between atoms: C_24  and  C_25
REMARK    7  A    between atoms: C_25  and  C_27
REMARK    8  A    between atoms: C_33  and  C_37
REMARK                            x       y       z     vdW  Elec       q    Type
REMARK                         _______ _______ _______ _____ _____    ______ ____
ROOT
ATOM      1  N   UNL     1      36.242 -20.447 -20.302  0.00  0.00    +0.389 N 
ATOM      2  N   UNL     1      35.345 -18.131 -21.711  0.00  0.00    -0.312 N 
ATOM      3  C   UNL     1      34.809 -20.217 -20.515  0.00  0.00    -0.055 C 
ATOM      4  C   UNL     1      36.935 -19.164 -20.139  0.00  0.00    -0.055 C 
ATOM      5  C   UNL     1      34.568 -19.375 -21.769  0.00  0.00    +0.068 C 
ATOM      6  C   UNL     1      36.765 -18.285 -21.380  0.00  0.00    +0.068 C 
ATOM      7  H   UNL     1      36.624 -20.926 -21.119  0.00  0.00    -0.080 HD
ENDROOT
BRANCH   2   9
ATOM      8  O   UNL     1      33.722 -13.803 -24.741  0.00  0.00    -0.449 OA
ATOM      9  C   UNL     1      34.930 -17.058 -22.509  0.00  0.00    +0.048 C 
ATOM     10  C   UNL     1      34.821 -15.756 -21.962  0.00  0.00    +0.018 C 
ATOM     11  C   UNL     1      34.613 -17.255 -23.872  0.00  0.00    +0.018 C 
ATOM     12  C   UNL     1      34.403 -14.689 -22.777  0.00  0.00    +0.039 C 
ATOM     13  C   UNL     1      34.106 -14.949 -24.111  0.00  0.00    +0.146 C 
ATOM     14  C   UNL     1      34.196 -16.209 -24.701  0.00  0.00    +0.039 C 
ATOM     15  C   UNL     1      34.182 -13.298 -22.596  0.00  0.00    +0.045 C 
ATOM     16  C   UNL     1      33.771 -12.809 -23.815  0.00  0.00    +0.198 C 
BRANCH  16  19
ATOM     17  O   UNL     1      33.345 -11.113 -25.424  0.00  0.00    -0.267 OA
ATOM     18  N   UNL     1      33.124 -10.541 -23.239  0.00  0.00    -0.323 N 
ATOM     19  C   UNL     1      33.410 -11.496 -24.228  0.00  0.00    +0.277 C 
ATOM     20  H   UNL     1      32.872  -9.625 -23.497  0.00  0.00    +0.145 HD
ATOM     21  H   UNL     1      33.177 -10.788 -22.287  0.00  0.00    +0.145 HD
ENDBRANCH  16  19
ENDBRANCH   2   9
BRANCH   1  22
ATOM     22  C   UNL     1      36.457 -21.299 -19.133  0.00  0.00    -0.077 C 
BRANCH  22  23
ATOM     23  C   UNL     1      35.184 -22.075 -18.800  0.00  0.00    -0.022 C 
BRANCH  23  24
ATOM     24  C   UNL     1      35.110 -22.403 -17.308  0.00  0.00    +0.003 C 
BRANCH  24  25
ATOM     25  C   UNL     1      34.107 -23.527 -17.032  0.00  0.00    +0.028 C 
BRANCH  25  27
ATOM     26  N   UNL     1      33.103 -23.155 -13.541  0.00  0.00    -0.312 N 
ATOM     27  C   UNL     1      33.427 -23.371 -15.705  0.00  0.00    -0.006 C 
ATOM     28  C   UNL     1      32.036 -23.282 -15.496  0.00  0.00    +0.011 C 
ATOM     29  C   UNL     1      34.067 -23.291 -14.504  0.00  0.00    +0.058 C 
ATOM     30  C   UNL     1      31.853 -23.145 -14.119  0.00  0.00    +0.048 C 
ATOM     31  C   UNL     1      30.901 -23.302 -16.332  0.00  0.00    +0.011 C 
ATOM     32  C   UNL     1      30.587 -23.029 -13.533  0.00  0.00    +0.015 C 
ATOM     33  C   UNL     1      29.629 -23.186 -15.760  0.00  0.00    +0.069 C 
ATOM     34  C   UNL     1      29.477 -23.052 -14.382  0.00  0.00    +0.012 C 
ATOM     35  H   UNL     1      33.278 -23.074 -12.576  0.00  0.00    +0.152 HD
BRANCH  33  37
ATOM     36  N   UNL     1      27.535 -23.225 -17.285  0.00  0.00    -0.191 NA
ATOM     37  C   UNL     1      28.473 -23.207 -16.602  0.00  0.00    +0.100 C 
ENDBRANCH  33  37
ENDBRANCH  25  27
ENDBRANCH  24  25
ENDBRANCH  23  24
ENDBRANCH  22  23
ENDBRANCH   1  22
TORSDOF 8
ENDMDL
MODEL 6
REMARK VINA RESULT:     -11.4      4.477     12.362
REMARK  Name = 6918314
REMARK  8 active torsions:
REMARK  status: ('A' for Active; 'I' for Inactive)
REMARK    1  A    between atoms: N_1  and  C_22
REMARK    2  A    between atoms: N_2  and  C_9
REMARK    3  A    between atoms: C_16  and  C_19
REMARK    4  A    between atoms: C_22  and  C_23
REMARK    5  A    between atoms: C_23  and  C_24
REMARK    6  A    between atoms: C_24  and  C_25
REMARK    7  A    between atoms: C_25  and  C_27
REMARK    8  A    between atoms: C_33  and  C_37
REMARK                            x       y       z     vdW  Elec       q    Type
REMARK                         _______ _______ _______ _____ _____    ______ ____
ROOT
ATOM      1  N   UNL     1      35.064 -17.068 -23.833  0.00  0.00    +0.389 N 
ATOM      2  N   UNL     1      34.957 -18.948 -21.686  0.00  0.00    -0.312 N 
ATOM      3  C   UNL     1      35.167 -16.612 -22.442  0.00  0.00    -0.055 C 
ATOM      4  C   UNL     1      34.179 -18.235 -23.912  0.00  0.00    -0.055 C 
ATOM      5  C   UNL     1      35.737 -17.712 -21.544  0.00  0.00    +0.068 C 
ATOM      6  C   UNL     1      34.714 -19.390 -23.062  0.00  0.00    +0.068 C 
ATOM      7  H   UNL     1      35.992 -17.336 -24.161  0.00  0.00    -0.080 HD
ENDROOT
BRANCH   2   9
ATOM      8  O   UNL     1      35.083 -22.675 -17.607  0.00  0.00    -0.449 OA
ATOM      9  C   UNL     1      35.028 -19.892 -20.654  0.00  0.00    +0.048 C 
ATOM     10  C   UNL     1      33.846 -20.382 -20.047  0.00  0.00    +0.018 C 
ATOM     11  C   UNL     1      36.277 -20.371 -20.201  0.00  0.00    +0.018 C 
ATOM     12  C   UNL     1      33.933 -21.331 -19.013  0.00  0.00    +0.039 C 
ATOM     13  C   UNL     1      35.194 -21.763 -18.613  0.00  0.00    +0.146 C 
ATOM     14  C   UNL     1      36.388 -21.314 -19.175  0.00  0.00    +0.039 C 
ATOM     15  C   UNL     1      33.008 -22.030 -18.194  0.00  0.00    +0.045 C 
ATOM     16  C   UNL     1      33.755 -22.830 -17.361  0.00  0.00    +0.198 C 
BRANCH  16  19
ATOM     17  O   UNL     1      32.191 -24.120 -16.121  0.00  0.00    -0.267 OA
ATOM     18  N   UNL     1      34.367 -24.249 -15.488  0.00  0.00    -0.323 N 
ATOM     19  C   UNL     1      33.370 -23.742 -16.338  0.00  0.00    +0.277 C 
ATOM     20  H   UNL     1      34.128 -24.882 -14.773  0.00  0.00    +0.145 HD
ATOM     21  H   UNL     1      35.303 -23.972 -15.608  0.00  0.00    +0.145 HD
ENDBRANCH  16  19
ENDBRANCH   2   9
BRANCH   1  22
ATOM     22  C   UNL     1      34.570 -15.991 -24.690  0.00  0.00    -0.077 C 
BRANCH  22  23
ATOM     23  C   UNL     1      33.828 -14.947 -23.857  0.00  0.00    -0.022 C 
BRANCH  23  24
ATOM     24  C   UNL     1      33.333 -13.793 -24.731  0.00  0.00    +0.003 C 
BRANCH  24  25
ATOM     25  C   UNL     1      33.971 -12.464 -24.314  0.00  0.00    +0.028 C 
BRANCH  25  27
ATOM     26  N   UNL     1      31.709 -11.312 -21.689  0.00  0.00    -0.312 N 
ATOM     27  C   UNL     1      33.148 -11.731 -23.298  0.00  0.00    -0.006 C 
ATOM     28  C   UNL     1      33.179 -10.342 -23.059  0.00  0.00    +0.011 C 
ATOM     29  C   UNL     1      32.248 -12.311 -22.455  0.00  0.00    +0.058 C 
ATOM     30  C   UNL     1      32.260 -10.098 -22.036  0.00  0.00    +0.048 C 
ATOM     31  C   UNL     1      33.891  -9.254 -23.603  0.00  0.00    +0.011 C 
ATOM     32  C   UNL     1      32.016  -8.818 -21.529  0.00  0.00    +0.015 C 
ATOM     33  C   UNL     1      33.658  -7.967 -23.105  0.00  0.00    +0.069 C 
ATOM     34  C   UNL     1      32.735  -7.754 -22.083  0.00  0.00    +0.012 C 
ATOM     35  H   UNL     1      31.028 -11.442 -20.991  0.00  0.00    +0.152 HD
BRANCH  33  37
ATOM     36  N   UNL     1      34.961  -5.960 -24.098  0.00  0.00    -0.191 NA
ATOM     37  C   UNL     1      34.377  -6.859 -23.653  0.00  0.00    +0.100 C 
ENDBRANCH  33  37
ENDBRANCH  25  27
ENDBRANCH  24  25
ENDBRANCH  23  24
ENDBRANCH  22  23
ENDBRANCH   1  22
TORSDOF 8
ENDMDL
MODEL 7
REMARK VINA RESULT:     -11.2      4.583     12.197
REMARK  Name = 6918314
REMARK  8 active torsions:
REMARK  status: ('A' for Active; 'I' for Inactive)
REMARK    1  A    between atoms: N_1  and  C_22
REMARK    2  A    between atoms: N_2  and  C_9
REMARK    3  A    between atoms: C_16  and  C_19
REMARK    4  A    between atoms: C_22  and  C_23
REMARK    5  A    between atoms: C_23  and  C_24
REMARK    6  A    between atoms: C_24  and  C_25
REMARK    7  A    between atoms: C_25  and  C_27
REMARK    8  A    between atoms: C_33  and  C_37
REMARK                            x       y       z     vdW  Elec       q    Type
REMARK                         _______ _______ _______ _____ _____    ______ ____
ROOT
ATOM      1  N   UNL     1      34.943 -18.144 -22.789  0.00  0.00    +0.389 N 
ATOM      2  N   UNL     1      35.262 -19.999 -20.641  0.00  0.00    -0.312 N 
ATOM      3  C   UNL     1      34.092 -19.336 -22.706  0.00  0.00    -0.055 C 
ATOM      4  C   UNL     1      36.278 -18.445 -22.260  0.00  0.00    -0.055 C 
ATOM      5  C   UNL     1      33.944 -19.806 -21.257  0.00  0.00    +0.068 C 
ATOM      6  C   UNL     1      36.204 -18.886 -20.796  0.00  0.00    +0.068 C 
ATOM      7  H   UNL     1      34.526 -17.402 -22.226  0.00  0.00    -0.080 HD
ENDROOT
BRANCH   2   9
ATOM      8  O   UNL     1      35.744 -23.232 -16.184  0.00  0.00    -0.449 OA
ATOM      9  C   UNL     1      35.348 -20.830 -19.517  0.00  0.00    +0.048 C 
ATOM     10  C   UNL     1      36.540 -20.886 -18.755  0.00  0.00    +0.018 C 
ATOM     11  C   UNL     1      34.249 -21.627 -19.126  0.00  0.00    +0.018 C 
ATOM     12  C   UNL     1      36.610 -21.726 -17.629  0.00  0.00    +0.039 C 
ATOM     13  C   UNL     1      35.493 -22.485 -17.296  0.00  0.00    +0.146 C 
ATOM     14  C   UNL     1      34.296 -22.469 -18.010  0.00  0.00    +0.039 C 
ATOM     15  C   UNL     1      37.593 -22.039 -16.654  0.00  0.00    +0.045 C 
ATOM     16  C   UNL     1      37.019 -22.954 -15.803  0.00  0.00    +0.198 C 
BRANCH  16  19
ATOM     17  O   UNL     1      37.692 -23.079 -13.528  0.00  0.00    -0.267 OA
ATOM     18  N   UNL     1      37.900 -24.967 -14.770  0.00  0.00    -0.323 N 
ATOM     19  C   UNL     1      37.528 -23.617 -14.652  0.00  0.00    +0.277 C 
ATOM     20  H   UNL     1      38.255 -25.449 -13.989  0.00  0.00    +0.145 HD
ATOM     21  H   UNL     1      37.805 -25.429 -15.633  0.00  0.00    +0.145 HD
ENDBRANCH  16  19
ENDBRANCH   2   9
BRANCH   1  22
ATOM     22  C   UNL     1      35.033 -17.672 -24.170  0.00  0.00    -0.077 C 
BRANCH  22  23
ATOM     23  C   UNL     1      34.343 -16.317 -24.315  0.00  0.00    -0.022 C 
BRANCH  23  24
ATOM     24  C   UNL     1      34.552 -15.455 -23.068  0.00  0.00    +0.003 C 
BRANCH  24  25
ATOM     25  C   UNL     1      34.057 -14.023 -23.291  0.00  0.00    +0.028 C 
BRANCH  25  27
ATOM     26  N   UNL     1      32.344 -13.357 -20.136  0.00  0.00    -0.312 N 
ATOM     27  C   UNL     1      33.306 -13.489 -22.108  0.00  0.00    -0.006 C 
ATOM     28  C   UNL     1      32.762 -12.193 -21.993  0.00  0.00    +0.011 C 
ATOM     29  C   UNL     1      33.045 -14.188 -20.968  0.00  0.00    +0.058 C 
ATOM     30  C   UNL     1      32.157 -12.131 -20.736  0.00  0.00    +0.048 C 
ATOM     31  C   UNL     1      32.715 -11.056 -22.825  0.00  0.00    +0.011 C 
ATOM     32  C   UNL     1      31.505 -10.986 -20.267  0.00  0.00    +0.015 C 
ATOM     33  C   UNL     1      32.066  -9.903 -22.369  0.00  0.00    +0.069 C 
ATOM     34  C   UNL     1      31.471  -9.870 -21.109  0.00  0.00    +0.012 C 
ATOM     35  H   UNL     1      32.021 -13.599 -19.238  0.00  0.00    +0.152 HD
BRANCH  33  37
ATOM     36  N   UNL     1      31.973  -7.806 -23.889  0.00  0.00    -0.191 NA
ATOM     37  C   UNL     1      32.014  -8.746 -23.208  0.00  0.00    +0.100 C 
ENDBRANCH  33  37
ENDBRANCH  25  27
ENDBRANCH  24  25
ENDBRANCH  23  24
ENDBRANCH  22  23
ENDBRANCH   1  22
TORSDOF 8
ENDMDL
MODEL 8
REMARK VINA RESULT:     -11.1      2.762      5.633
REMARK  Name = 6918314
REMARK  8 active torsions:
REMARK  status: ('A' for Active; 'I' for Inactive)
REMARK    1  A    between atoms: N_1  and  C_22
REMARK    2  A    between atoms: N_2  and  C_9
REMARK    3  A    between atoms: C_16  and  C_19
REMARK    4  A    between atoms: C_22  and  C_23
REMARK    5  A    between atoms: C_23  and  C_24
REMARK    6  A    between atoms: C_24  and  C_25
REMARK    7  A    between atoms: C_25  and  C_27
REMARK    8  A    between atoms: C_33  and  C_37
REMARK                            x       y       z     vdW  Elec       q    Type
REMARK                         _______ _______ _______ _____ _____    ______ ____
ROOT
ATOM      1  N   UNL     1      36.413 -20.827 -19.742  0.00  0.00    +0.389 N 
ATOM      2  N   UNL     1      35.542 -18.567 -21.256  0.00  0.00    -0.312 N 
ATOM      3  C   UNL     1      34.982 -20.525 -19.869  0.00  0.00    -0.055 C 
ATOM      4  C   UNL     1      37.187 -19.580 -19.727  0.00  0.00    -0.055 C 
ATOM      5  C   UNL     1      34.694 -19.762 -21.163  0.00  0.00    +0.068 C 
ATOM      6  C   UNL     1      36.972 -18.784 -21.016  0.00  0.00    +0.068 C 
ATOM      7  H   UNL     1      36.705 -21.385 -20.544  0.00  0.00    -0.080 HD
ENDROOT
BRANCH   2   9
ATOM      8  O   UNL     1      33.918 -14.380 -24.477  0.00  0.00    -0.449 OA
ATOM      9  C   UNL     1      35.129 -17.531 -22.102  0.00  0.00    +0.048 C 
ATOM     10  C   UNL     1      34.974 -16.214 -21.602  0.00  0.00    +0.018 C 
ATOM     11  C   UNL     1      34.858 -17.780 -23.466  0.00  0.00    +0.018 C 
ATOM     12  C   UNL     1      34.558 -15.185 -22.465  0.00  0.00    +0.039 C 
ATOM     13  C   UNL     1      34.308 -15.495 -23.798  0.00  0.00    +0.146 C 
ATOM     14  C   UNL     1      34.444 -16.771 -24.342  0.00  0.00    +0.039 C 
ATOM     15  C   UNL     1      34.301 -13.795 -22.338  0.00  0.00    +0.045 C 
ATOM     16  C   UNL     1      33.917 -13.355 -23.584  0.00  0.00    +0.198 C 
BRANCH  16  19
ATOM     17  O   UNL     1      33.158 -11.119 -23.317  0.00  0.00    -0.267 OA
ATOM     18  N   UNL     1      33.571 -11.823 -25.435  0.00  0.00    -0.323 N 
ATOM     19  C   UNL     1      33.540 -12.066 -24.052  0.00  0.00    +0.277 C 
ATOM     20  H   UNL     1      33.315 -10.940 -25.786  0.00  0.00    +0.145 HD
ATOM     21  H   UNL     1      33.848 -12.537 -26.053  0.00  0.00    +0.145 HD
ENDBRANCH  16  19
ENDBRANCH   2   9
BRANCH   1  22
ATOM     22  C   UNL     1      36.668 -21.604 -18.529  0.00  0.00    -0.077 C 
BRANCH  22  23
ATOM     23  C   UNL     1      35.351 -22.068 -17.909  0.00  0.00    -0.022 C 
BRANCH  23  24
ATOM     24  C   UNL     1      35.535 -22.448 -16.439  0.00  0.00    +0.003 C 
BRANCH  24  25
ATOM     25  C   UNL     1      34.731 -23.702 -16.082  0.00  0.00    +0.028 C 
BRANCH  25  27
ATOM     26  N   UNL     1      34.546 -24.572 -12.540  0.00  0.00    -0.312 N 
ATOM     27  C   UNL     1      34.934 -24.122 -14.657  0.00  0.00    -0.006 C 
ATOM     28  C   UNL     1      36.146 -24.575 -14.096  0.00  0.00    +0.011 C 
ATOM     29  C   UNL     1      33.966 -24.125 -13.697  0.00  0.00    +0.058 C 
ATOM     30  C   UNL     1      35.877 -24.855 -12.754  0.00  0.00    +0.048 C 
ATOM     31  C   UNL     1      37.452 -24.782 -14.582  0.00  0.00    +0.011 C 
ATOM     32  C   UNL     1      36.852 -25.331 -11.872  0.00  0.00    +0.015 C 
ATOM     33  C   UNL     1      38.438 -25.258 -13.711  0.00  0.00    +0.069 C 
ATOM     34  C   UNL     1      38.141 -25.528 -12.377  0.00  0.00    +0.012 C 
ATOM     35  H   UNL     1      34.079 -24.676 -11.680  0.00  0.00    +0.152 HD
BRANCH  33  37
ATOM     36  N   UNL     1      40.844 -25.640 -14.594  0.00  0.00    -0.191 NA
ATOM     37  C   UNL     1      39.766 -25.469 -14.198  0.00  0.00    +0.100 C 
ENDBRANCH  33  37
ENDBRANCH  25  27
ENDBRANCH  24  25
ENDBRANCH  23  24
ENDBRANCH  22  23
ENDBRANCH   1  22
TORSDOF 8
ENDMDL
MODEL 9
REMARK VINA RESULT:     -10.9      2.740      5.806
REMARK  Name = 6918314
REMARK  8 active torsions:
REMARK  status: ('A' for Active; 'I' for Inactive)
REMARK    1  A    between atoms: N_1  and  C_22
REMARK    2  A    between atoms: N_2  and  C_9
REMARK    3  A    between atoms: C_16  and  C_19
REMARK    4  A    between atoms: C_22  and  C_23
REMARK    5  A    between atoms: C_23  and  C_24
REMARK    6  A    between atoms: C_24  and  C_25
REMARK    7  A    between atoms: C_25  and  C_27
REMARK    8  A    between atoms: C_33  and  C_37
REMARK                            x       y       z     vdW  Elec       q    Type
REMARK                         _______ _______ _______ _____ _____    ______ ____
ROOT
ATOM      1  N   UNL     1      36.362 -20.846 -19.614  0.00  0.00    +0.389 N 
ATOM      2  N   UNL     1      35.525 -18.572 -21.125  0.00  0.00    -0.312 N 
ATOM      3  C   UNL     1      34.934 -20.569 -19.807  0.00  0.00    -0.055 C 
ATOM      4  C   UNL     1      37.109 -19.586 -19.535  0.00  0.00    -0.055 C 
ATOM      5  C   UNL     1      34.697 -19.784 -21.100  0.00  0.00    +0.068 C 
ATOM      6  C   UNL     1      36.945 -18.767 -20.817  0.00  0.00    +0.068 C 
ATOM      7  H   UNL     1      36.705 -21.382 -20.411  0.00  0.00    -0.080 HD
ENDROOT
BRANCH   2   9
ATOM      8  O   UNL     1      33.987 -14.350 -24.343  0.00  0.00    -0.449 OA
ATOM      9  C   UNL     1      35.134 -17.527 -21.971  0.00  0.00    +0.048 C 
ATOM     10  C   UNL     1      34.965 -16.216 -21.461  0.00  0.00    +0.018 C 
ATOM     11  C   UNL     1      34.900 -17.761 -23.344  0.00  0.00    +0.018 C 
ATOM     12  C   UNL     1      34.572 -15.177 -22.323  0.00  0.00    +0.039 C 
ATOM     13  C   UNL     1      34.359 -15.473 -23.665  0.00  0.00    +0.146 C 
ATOM     14  C   UNL     1      34.510 -16.743 -24.220  0.00  0.00    +0.039 C 
ATOM     15  C   UNL     1      34.312 -13.788 -22.188  0.00  0.00    +0.045 C 
ATOM     16  C   UNL     1      33.962 -13.335 -23.439  0.00  0.00    +0.198 C 
BRANCH  16  19
ATOM     17  O   UNL     1      33.814 -11.606 -25.063  0.00  0.00    -0.267 OA
ATOM     18  N   UNL     1      32.967 -11.164 -23.004  0.00  0.00    -0.323 N 
ATOM     19  C   UNL     1      33.597 -12.040 -23.903  0.00  0.00    +0.277 C 
ATOM     20  H   UNL     1      32.704 -10.262 -23.299  0.00  0.00    +0.145 HD
ATOM     21  H   UNL     1      32.789 -11.451 -22.080  0.00  0.00    +0.145 HD
ENDBRANCH  16  19
ENDBRANCH   2   9
BRANCH   1  22
ATOM     22  C   UNL     1      36.571 -21.643 -18.405  0.00  0.00    -0.077 C 
BRANCH  22  23
ATOM     23  C   UNL     1      35.233 -22.133 -17.855  0.00  0.00    -0.022 C 
BRANCH  23  24
ATOM     24  C   UNL     1      35.391 -22.707 -16.446  0.00  0.00    +0.003 C 
BRANCH  24  25
ATOM     25  C   UNL     1      36.584 -22.080 -15.719  0.00  0.00    +0.028 C 
BRANCH  25  27
ATOM     26  N   UNL     1      39.342 -24.419 -15.209  0.00  0.00    -0.312 N 
ATOM     27  C   UNL     1      37.579 -23.106 -15.265  0.00  0.00    -0.006 C 
ATOM     28  C   UNL     1      37.505 -23.856 -14.074  0.00  0.00    +0.011 C 
ATOM     29  C   UNL     1      38.705 -23.459 -15.948  0.00  0.00    +0.058 C 
ATOM     30  C   UNL     1      38.631 -24.681 -14.058  0.00  0.00    +0.048 C 
ATOM     31  C   UNL     1      36.598 -23.927 -12.997  0.00  0.00    +0.011 C 
ATOM     32  C   UNL     1      38.897 -25.577 -13.017  0.00  0.00    +0.015 C 
ATOM     33  C   UNL     1      36.851 -24.818 -11.948  0.00  0.00    +0.069 C 
ATOM     34  C   UNL     1      37.983 -25.630 -11.959  0.00  0.00    +0.012 C 
ATOM     35  H   UNL     1      40.185 -24.859 -15.462  0.00  0.00    +0.152 HD
BRANCH  33  37
ATOM     36  N   UNL     1      35.191 -24.958  -9.964  0.00  0.00    -0.191 NA
ATOM     37  C   UNL     1      35.934 -24.895 -10.853  0.00  0.00    +0.100 C 
ENDBRANCH  33  37
ENDBRANCH  25  27
ENDBRANCH  24  25
ENDBRANCH  23  24
ENDBRANCH  22  23
ENDBRANCH   1  22
TORSDOF 8
ENDMDL
