MODEL 1
REMARK VINA RESULT:     -11.2      0.000      0.000
REMARK  Name = 449087
REMARK  3 active torsions:
REMARK  status: ('A' for Active; 'I' for Inactive)
REMARK    1  A    between atoms: C_5  and  C_11
REMARK    2  A    between atoms: C_8  and  C_14
REMARK    3  A    between atoms: C_14  and  C_15
REMARK                            x       y       z     vdW  Elec       q    Type
REMARK                         _______ _______ _______ _____ _____    ______ ____
ROOT
ATOM      1  O   UNL     1      35.364 -16.688 -21.154  0.00  0.00    -0.274 OA
ATOM      2  N   UNL     1      33.481 -14.570 -25.130  0.00  0.00    -0.239 N 
ATOM      3  N   UNL     1      33.931 -15.837 -25.122  0.00  0.00    -0.166 NA
ATOM      4  N   UNL     1      34.896 -17.183 -23.403  0.00  0.00    -0.268 N 
ATOM      5  C   UNL     1      33.601 -13.935 -23.929  0.00  0.00    +0.045 C 
ATOM      6  C   UNL     1      34.166 -14.849 -23.074  0.00  0.00    +0.048 C 
ATOM      7  C   UNL     1      34.341 -15.985 -23.870  0.00  0.00    +0.152 C 
ATOM      8  C   UNL     1      35.358 -17.449 -22.116  0.00  0.00    +0.232 C 
ATOM      9  H   UNL     1      33.101 -14.140 -25.929  0.00  0.00    +0.174 HD
ATOM     10  H   UNL     1      34.968 -17.917 -24.055  0.00  0.00    +0.156 HD
ENDROOT
BRANCH   5  11
ATOM     11  C   UNL     1      33.186 -12.505 -23.609  0.00  0.00    +0.037 C 
ATOM     12  C   UNL     1      34.242 -11.431 -23.539  0.00  0.00    +0.006 C 
ATOM     13  C   UNL     1      33.275 -11.455 -24.687  0.00  0.00    +0.006 C 
ENDBRANCH   5  11
BRANCH   8  14
ATOM     14  C   UNL     1      35.887 -18.877 -22.014  0.00  0.00    +0.112 C 
BRANCH  14  15
ATOM     15  C   UNL     1      35.143 -19.731 -21.043  0.00  0.00    -0.013 C 
ATOM     16  C   UNL     1      35.150 -21.226 -19.124  0.00  0.00    -0.000 C 
ATOM     17  C   UNL     1      35.836 -20.418 -20.046  0.00  0.00    -0.004 C 
ATOM     18  C   UNL     1      33.743 -21.337 -19.213  0.00  0.00    -0.000 C 
ATOM     19  C   UNL     1      33.759 -19.840 -21.130  0.00  0.00    -0.004 C 
ATOM     20  C   UNL     1      33.062 -20.637 -20.223  0.00  0.00    -0.000 C 
ATOM     21  C   UNL     1      35.832 -21.926 -18.114  0.00  0.00    -0.000 C 
ATOM     22  C   UNL     1      33.057 -22.144 -18.290  0.00  0.00    -0.000 C 
ATOM     23  C   UNL     1      35.135 -22.724 -17.207  0.00  0.00    -0.000 C 
ATOM     24  C   UNL     1      33.750 -22.833 -17.294  0.00  0.00    -0.000 C 
ENDBRANCH  14  15
ENDBRANCH   8  14
TORSDOF 3
ENDMDL
MODEL 2
REMARK VINA RESULT:     -11.1      1.144      1.557
REMARK  Name = 449087
REMARK  3 active torsions:
REMARK  status: ('A' for Active; 'I' for Inactive)
REMARK    1  A    between atoms: C_5  and  C_11
REMARK    2  A    between atoms: C_8  and  C_14
REMARK    3  A    between atoms: C_14  and  C_15
REMARK                            x       y       z     vdW  Elec       q    Type
REMARK                         _______ _______ _______ _____ _____    ______ ____
ROOT
ATOM      1  O   UNL     1      35.724 -17.494 -20.348  0.00  0.00    -0.274 OA
ATOM      2  N   UNL     1      34.228 -15.991 -24.745  0.00  0.00    -0.239 N 
ATOM      3  N   UNL     1      34.649 -17.245 -24.507  0.00  0.00    -0.166 NA
ATOM      4  N   UNL     1      35.437 -18.321 -22.528  0.00  0.00    -0.268 N 
ATOM      5  C   UNL     1      34.260 -15.181 -23.648  0.00  0.00    +0.045 C 
ATOM      6  C   UNL     1      34.732 -15.959 -22.620  0.00  0.00    +0.048 C 
ATOM      7  C   UNL     1      34.949 -17.204 -23.216  0.00  0.00    +0.152 C 
ATOM      8  C   UNL     1      35.782 -18.392 -21.180  0.00  0.00    +0.232 C 
ATOM      9  H   UNL     1      33.926 -15.684 -25.630  0.00  0.00    +0.174 HD
ATOM     10  H   UNL     1      35.547 -19.147 -23.053  0.00  0.00    +0.156 HD
ENDROOT
BRANCH   5  11
ATOM     11  C   UNL     1      33.851 -13.716 -23.585  0.00  0.00    +0.037 C 
ATOM     12  C   UNL     1      32.708 -13.309 -22.688  0.00  0.00    +0.006 C 
ATOM     13  C   UNL     1      34.114 -12.931 -22.324  0.00  0.00    +0.006 C 
ENDBRANCH   5  11
BRANCH   8  14
ATOM     14  C   UNL     1      36.271 -19.793 -20.819  0.00  0.00    +0.112 C 
BRANCH  14  15
ATOM     15  C   UNL     1      35.328 -20.558 -19.951  0.00  0.00    -0.013 C 
ATOM     16  C   UNL     1      34.939 -22.000 -18.032  0.00  0.00    -0.000 C 
ATOM     17  C   UNL     1      35.813 -21.276 -18.858  0.00  0.00    -0.004 C 
ATOM     18  C   UNL     1      33.553 -21.995 -18.317  0.00  0.00    -0.000 C 
ATOM     19  C   UNL     1      33.965 -20.552 -20.231  0.00  0.00    -0.004 C 
ATOM     20  C   UNL     1      33.082 -21.266 -19.421  0.00  0.00    -0.000 C 
ATOM     21  C   UNL     1      35.410 -22.730 -16.928  0.00  0.00    -0.000 C 
ATOM     22  C   UNL     1      32.678 -22.720 -17.490  0.00  0.00    -0.000 C 
ATOM     23  C   UNL     1      34.527 -23.445 -16.118  0.00  0.00    -0.000 C 
ATOM     24  C   UNL     1      33.164 -23.439 -16.398  0.00  0.00    -0.000 C 
ENDBRANCH  14  15
ENDBRANCH   8  14
TORSDOF 3
ENDMDL
MODEL 3
REMARK VINA RESULT:     -11.0      1.031      2.066
REMARK  Name = 449087
REMARK  3 active torsions:
REMARK  status: ('A' for Active; 'I' for Inactive)
REMARK    1  A    between atoms: C_5  and  C_11
REMARK    2  A    between atoms: C_8  and  C_14
REMARK    3  A    between atoms: C_14  and  C_15
REMARK                            x       y       z     vdW  Elec       q    Type
REMARK                         _______ _______ _______ _____ _____    ______ ____
ROOT
ATOM      1  O   UNL     1      35.065 -16.210 -22.021  0.00  0.00    -0.274 OA
ATOM      2  N   UNL     1      33.271 -12.957 -25.189  0.00  0.00    -0.239 N 
ATOM      3  N   UNL     1      33.409 -14.261 -25.482  0.00  0.00    -0.166 NA
ATOM      4  N   UNL     1      34.230 -16.110 -24.215  0.00  0.00    -0.268 N 
ATOM      5  C   UNL     1      33.678 -12.629 -23.929  0.00  0.00    +0.045 C 
ATOM      6  C   UNL     1      34.112 -13.800 -23.357  0.00  0.00    +0.048 C 
ATOM      7  C   UNL     1      33.919 -14.753 -24.362  0.00  0.00    +0.152 C 
ATOM      8  C   UNL     1      34.766 -16.732 -23.090  0.00  0.00    +0.232 C 
ATOM      9  H   UNL     1      32.910 -12.298 -25.825  0.00  0.00    +0.174 HD
ATOM     10  H   UNL     1      34.049 -16.688 -24.991  0.00  0.00    +0.156 HD
ENDROOT
BRANCH   5  11
ATOM     11  C   UNL     1      33.651 -11.246 -23.294  0.00  0.00    +0.037 C 
ATOM     12  C   UNL     1      34.429 -10.125 -23.937  0.00  0.00    +0.006 C 
ATOM     13  C   UNL     1      32.930 -10.125 -24.000  0.00  0.00    +0.006 C 
ENDBRANCH   5  11
BRANCH   8  14
ATOM     14  C   UNL     1      34.954 -18.227 -23.335  0.00  0.00    +0.112 C 
BRANCH  14  15
ATOM     15  C   UNL     1      35.371 -18.992 -22.123  0.00  0.00    -0.013 C 
ATOM     16  C   UNL     1      34.819 -20.504 -20.300  0.00  0.00    -0.000 C 
ATOM     17  C   UNL     1      34.443 -19.778 -21.442  0.00  0.00    -0.004 C 
ATOM     18  C   UNL     1      36.157 -20.432 -19.844  0.00  0.00    -0.000 C 
ATOM     19  C   UNL     1      36.687 -18.921 -21.675  0.00  0.00    -0.004 C 
ATOM     20  C   UNL     1      37.078 -19.635 -20.543  0.00  0.00    -0.000 C 
ATOM     21  C   UNL     1      33.897 -21.300 -19.601  0.00  0.00    -0.000 C 
ATOM     22  C   UNL     1      36.534 -21.158 -18.702  0.00  0.00    -0.000 C 
ATOM     23  C   UNL     1      34.289 -22.014 -18.468  0.00  0.00    -0.000 C 
ATOM     24  C   UNL     1      35.604 -21.943 -18.020  0.00  0.00    -0.000 C 
ENDBRANCH  14  15
ENDBRANCH   8  14
TORSDOF 3
ENDMDL
MODEL 4
REMARK VINA RESULT:     -10.9      2.592      9.847
REMARK  Name = 449087
REMARK  3 active torsions:
REMARK  status: ('A' for Active; 'I' for Inactive)
REMARK    1  A    between atoms: C_5  and  C_11
REMARK    2  A    between atoms: C_8  and  C_14
REMARK    3  A    between atoms: C_14  and  C_15
REMARK                            x       y       z     vdW  Elec       q    Type
REMARK                         _______ _______ _______ _____ _____    ______ ____
ROOT
ATOM      1  O   UNL     1      34.439 -13.484 -23.049  0.00  0.00    -0.274 OA
ATOM      2  N   UNL     1      34.351 -18.207 -24.282  0.00  0.00    -0.239 N 
ATOM      3  N   UNL     1      33.714 -17.257 -24.988  0.00  0.00    -0.166 NA
ATOM      4  N   UNL     1      33.536 -14.894 -24.696  0.00  0.00    -0.268 N 
ATOM      5  C   UNL     1      35.020 -17.730 -23.194  0.00  0.00    +0.045 C 
ATOM      6  C   UNL     1      34.809 -16.373 -23.187  0.00  0.00    +0.048 C 
ATOM      7  C   UNL     1      34.003 -16.156 -24.308  0.00  0.00    +0.152 C 
ATOM      8  C   UNL     1      33.776 -13.678 -24.062  0.00  0.00    +0.232 C 
ATOM      9  H   UNL     1      34.335 -19.160 -24.528  0.00  0.00    +0.174 HD
ATOM     10  H   UNL     1      32.977 -14.863 -25.506  0.00  0.00    +0.156 HD
ENDROOT
BRANCH   5  11
ATOM     11  C   UNL     1      35.836 -18.542 -22.197  0.00  0.00    +0.037 C 
ATOM     12  C   UNL     1      35.617 -18.329 -20.720  0.00  0.00    +0.006 C 
ATOM     13  C   UNL     1      35.147 -19.598 -21.369  0.00  0.00    +0.006 C 
ENDBRANCH   5  11
BRANCH   8  14
ATOM     14  C   UNL     1      33.088 -12.535 -24.804  0.00  0.00    +0.112 C 
BRANCH  14  15
ATOM     15  C   UNL     1      33.568 -11.179 -24.405  0.00  0.00    -0.013 C 
ATOM     16  C   UNL     1      33.317  -9.177 -23.047  0.00  0.00    -0.000 C 
ATOM     17  C   UNL     1      32.878 -10.454 -23.433  0.00  0.00    -0.004 C 
ATOM     18  C   UNL     1      34.472  -8.629 -23.653  0.00  0.00    -0.000 C 
ATOM     19  C   UNL     1      34.704 -10.640 -25.001  0.00  0.00    -0.004 C 
ATOM     20  C   UNL     1      35.154  -9.373 -24.629  0.00  0.00    -0.000 C 
ATOM     21  C   UNL     1      32.634  -8.432 -22.070  0.00  0.00    -0.000 C 
ATOM     22  C   UNL     1      34.910  -7.351 -23.266  0.00  0.00    -0.000 C 
ATOM     23  C   UNL     1      33.084  -7.165 -21.698  0.00  0.00    -0.000 C 
ATOM     24  C   UNL     1      34.220  -6.626 -22.295  0.00  0.00    -0.000 C 
ENDBRANCH  14  15
ENDBRANCH   8  14
TORSDOF 3
ENDMDL
MODEL 5
REMARK VINA RESULT:     -10.6      2.681      8.450
REMARK  Name = 449087
REMARK  3 active torsions:
REMARK  status: ('A' for Active; 'I' for Inactive)
REMARK    1  A    between atoms: C_5  and  C_11
REMARK    2  A    between atoms: C_8  and  C_14
REMARK    3  A    between atoms: C_14  and  C_15
REMARK                            x       y       z     vdW  Elec       q    Type
REMARK                         _______ _______ _______ _____ _____    ______ ____
ROOT
ATOM      1  O   UNL     1      34.250 -19.776 -21.760  0.00  0.00    -0.274 OA
ATOM      2  N   UNL     1      35.823 -22.075 -17.750  0.00  0.00    -0.239 N 
ATOM      3  N   UNL     1      36.572 -21.184 -18.421  0.00  0.00    -0.166 NA
ATOM      4  N   UNL     1      36.148 -19.887 -20.380  0.00  0.00    -0.268 N 
ATOM      5  C   UNL     1      34.588 -22.277 -18.294  0.00  0.00    +0.045 C 
ATOM      6  C   UNL     1      34.523 -21.460 -19.395  0.00  0.00    +0.048 C 
ATOM      7  C   UNL     1      35.768 -20.824 -19.412  0.00  0.00    +0.152 C 
ATOM      8  C   UNL     1      35.389 -19.437 -21.458  0.00  0.00    +0.232 C 
ATOM      9  H   UNL     1      36.136 -22.540 -16.942  0.00  0.00    +0.174 HD
ATOM     10  H   UNL     1      37.050 -19.503 -20.289  0.00  0.00    +0.156 HD
ENDROOT
BRANCH   5  11
ATOM     11  C   UNL     1      33.507 -23.216 -17.775  0.00  0.00    +0.037 C 
ATOM     12  C   UNL     1      33.290 -23.339 -16.287  0.00  0.00    +0.006 C 
ATOM     13  C   UNL     1      32.271 -22.635 -17.136  0.00  0.00    +0.006 C 
ENDBRANCH   5  11
BRANCH   8  14
ATOM     14  C   UNL     1      36.167 -18.411 -22.278  0.00  0.00    +0.112 C 
BRANCH  14  15
ATOM     15  C   UNL     1      35.375 -17.199 -22.639  0.00  0.00    -0.013 C 
ATOM     16  C   UNL     1      34.322 -15.105 -21.987  0.00  0.00    -0.000 C 
ATOM     17  C   UNL     1      35.067 -16.251 -21.663  0.00  0.00    -0.004 C 
ATOM     18  C   UNL     1      33.887 -14.917 -23.320  0.00  0.00    -0.000 C 
ATOM     19  C   UNL     1      34.947 -17.013 -23.950  0.00  0.00    -0.004 C 
ATOM     20  C   UNL     1      34.207 -15.881 -24.290  0.00  0.00    -0.000 C 
ATOM     21  C   UNL     1      34.001 -14.142 -21.016  0.00  0.00    -0.000 C 
ATOM     22  C   UNL     1      33.142 -13.770 -23.644  0.00  0.00    -0.000 C 
ATOM     23  C   UNL     1      33.261 -13.009 -21.356  0.00  0.00    -0.000 C 
ATOM     24  C   UNL     1      32.833 -12.823 -22.667  0.00  0.00    -0.000 C 
ENDBRANCH  14  15
ENDBRANCH   8  14
TORSDOF 3
ENDMDL
MODEL 6
REMARK VINA RESULT:     -10.4      3.639      8.847
REMARK  Name = 449087
REMARK  3 active torsions:
REMARK  status: ('A' for Active; 'I' for Inactive)
REMARK    1  A    between atoms: C_5  and  C_11
REMARK    2  A    between atoms: C_8  and  C_14
REMARK    3  A    between atoms: C_14  and  C_15
REMARK                            x       y       z     vdW  Elec       q    Type
REMARK                         _______ _______ _______ _____ _____    ______ ____
ROOT
ATOM      1  O   UNL     1      33.567 -20.683 -19.950  0.00  0.00    -0.274 OA
ATOM      2  N   UNL     1      34.057 -23.641 -16.097  0.00  0.00    -0.239 N 
ATOM      3  N   UNL     1      35.106 -23.110 -16.747  0.00  0.00    -0.166 NA
ATOM      4  N   UNL     1      35.253 -21.651 -18.631  0.00  0.00    -0.268 N 
ATOM      5  C   UNL     1      32.848 -23.279 -16.613  0.00  0.00    +0.045 C 
ATOM      6  C   UNL     1      33.125 -22.452 -17.674  0.00  0.00    +0.048 C 
ATOM      7  C   UNL     1      34.521 -22.395 -17.697  0.00  0.00    +0.152 C 
ATOM      8  C   UNL     1      34.745 -20.868 -19.664  0.00  0.00    +0.232 C 
ATOM      9  H   UNL     1      34.152 -24.238 -15.320  0.00  0.00    +0.174 HD
ATOM     10  H   UNL     1      36.233 -21.685 -18.547  0.00  0.00    +0.156 HD
ENDROOT
BRANCH   5  11
ATOM     11  C   UNL     1      31.476 -23.707 -16.109  0.00  0.00    +0.037 C 
ATOM     12  C   UNL     1      30.939 -23.101 -14.836  0.00  0.00    +0.006 C 
ATOM     13  C   UNL     1      30.335 -22.723 -16.157  0.00  0.00    +0.006 C 
ENDBRANCH   5  11
BRANCH   8  14
ATOM     14  C   UNL     1      35.875 -20.218 -20.458  0.00  0.00    +0.112 C 
BRANCH  14  15
ATOM     15  C   UNL     1      35.408 -19.292 -21.531  0.00  0.00    -0.013 C 
ATOM     16  C   UNL     1      34.960 -17.031 -22.306  0.00  0.00    -0.000 C 
ATOM     17  C   UNL     1      35.397 -17.916 -21.307  0.00  0.00    -0.004 C 
ATOM     18  C   UNL     1      34.530 -17.550 -23.550  0.00  0.00    -0.000 C 
ATOM     19  C   UNL     1      34.985 -19.803 -22.754  0.00  0.00    -0.004 C 
ATOM     20  C   UNL     1      34.548 -18.939 -23.758  0.00  0.00    -0.000 C 
ATOM     21  C   UNL     1      34.941 -15.642 -22.098  0.00  0.00    -0.000 C 
ATOM     22  C   UNL     1      34.093 -16.665 -24.550  0.00  0.00    -0.000 C 
ATOM     23  C   UNL     1      34.504 -14.777 -23.102  0.00  0.00    -0.000 C 
ATOM     24  C   UNL     1      34.081 -15.288 -24.325  0.00  0.00    -0.000 C 
ENDBRANCH  14  15
ENDBRANCH   8  14
TORSDOF 3
ENDMDL
MODEL 7
REMARK VINA RESULT:     -10.3      2.699      8.668
REMARK  Name = 449087
REMARK  3 active torsions:
REMARK  status: ('A' for Active; 'I' for Inactive)
REMARK    1  A    between atoms: C_5  and  C_11
REMARK    2  A    between atoms: C_8  and  C_14
REMARK    3  A    between atoms: C_14  and  C_15
REMARK                            x       y       z     vdW  Elec       q    Type
REMARK                         _______ _______ _______ _____ _____    ______ ____
ROOT
ATOM      1  O   UNL     1      34.032 -19.921 -21.532  0.00  0.00    -0.274 OA
ATOM      2  N   UNL     1      35.750 -22.226 -17.586  0.00  0.00    -0.239 N 
ATOM      3  N   UNL     1      36.480 -21.348 -18.294  0.00  0.00    -0.166 NA
ATOM      4  N   UNL     1      35.988 -20.053 -20.237  0.00  0.00    -0.268 N 
ATOM      5  C   UNL     1      34.489 -22.413 -18.073  0.00  0.00    +0.045 C 
ATOM      6  C   UNL     1      34.387 -21.599 -19.174  0.00  0.00    +0.048 C 
ATOM      7  C   UNL     1      35.638 -20.981 -19.249  0.00  0.00    +0.152 C 
ATOM      8  C   UNL     1      35.187 -19.597 -21.282  0.00  0.00    +0.232 C 
ATOM      9  H   UNL     1      36.093 -22.692 -16.790  0.00  0.00    +0.174 HD
ATOM     10  H   UNL     1      36.898 -19.681 -20.188  0.00  0.00    +0.156 HD
ENDROOT
BRANCH   5  11
ATOM     11  C   UNL     1      33.420 -23.335 -17.503  0.00  0.00    +0.037 C 
ATOM     12  C   UNL     1      33.162 -23.332 -16.016  0.00  0.00    +0.006 C 
ATOM     13  C   UNL     1      32.150 -22.736 -16.951  0.00  0.00    +0.006 C 
ENDBRANCH   5  11
BRANCH   8  14
ATOM     14  C   UNL     1      35.942 -18.585 -22.141  0.00  0.00    +0.112 C 
BRANCH  14  15
ATOM     15  C   UNL     1      35.334 -17.222 -22.145  0.00  0.00    -0.013 C 
ATOM     16  C   UNL     1      34.313 -15.380 -23.363  0.00  0.00    -0.000 C 
ATOM     17  C   UNL     1      34.887 -16.662 -23.342  0.00  0.00    -0.004 C 
ATOM     18  C   UNL     1      34.189 -14.658 -22.152  0.00  0.00    -0.000 C 
ATOM     19  C   UNL     1      35.212 -16.511 -20.955  0.00  0.00    -0.004 C 
ATOM     20  C   UNL     1      34.644 -15.238 -20.957  0.00  0.00    -0.000 C 
ATOM     21  C   UNL     1      33.859 -14.800 -24.559  0.00  0.00    -0.000 C 
ATOM     22  C   UNL     1      33.614 -13.376 -22.173  0.00  0.00    -0.000 C 
ATOM     23  C   UNL     1      33.290 -13.526 -24.561  0.00  0.00    -0.000 C 
ATOM     24  C   UNL     1      33.168 -12.815 -23.371  0.00  0.00    -0.000 C 
ENDBRANCH  14  15
ENDBRANCH   8  14
TORSDOF 3
ENDMDL
MODEL 8
REMARK VINA RESULT:     -10.3      2.192      8.047
REMARK  Name = 449087
REMARK  3 active torsions:
REMARK  status: ('A' for Active; 'I' for Inactive)
REMARK    1  A    between atoms: C_5  and  C_11
REMARK    2  A    between atoms: C_8  and  C_14
REMARK    3  A    between atoms: C_14  and  C_15
REMARK                            x       y       z     vdW  Elec       q    Type
REMARK                         _______ _______ _______ _____ _____    ______ ____
ROOT
ATOM      1  O   UNL     1      34.132 -18.450 -23.322  0.00  0.00    -0.274 OA
ATOM      2  N   UNL     1      36.810 -19.930 -19.518  0.00  0.00    -0.239 N 
ATOM      3  N   UNL     1      37.069 -18.800 -20.197  0.00  0.00    -0.166 NA
ATOM      4  N   UNL     1      36.000 -17.775 -22.069  0.00  0.00    -0.268 N 
ATOM      5  C   UNL     1      35.735 -20.623 -19.992  0.00  0.00    +0.045 C 
ATOM      6  C   UNL     1      35.255 -19.894 -21.052  0.00  0.00    +0.048 C 
ATOM      7  C   UNL     1      36.117 -18.797 -21.120  0.00  0.00    +0.152 C 
ATOM      8  C   UNL     1      35.045 -17.670 -23.078  0.00  0.00    +0.232 C 
ATOM      9  H   UNL     1      37.348 -20.232 -18.751  0.00  0.00    +0.174 HD
ATOM     10  H   UNL     1      36.665 -17.050 -22.019  0.00  0.00    +0.156 HD
ENDROOT
BRANCH   5  11
ATOM     11  C   UNL     1      35.184 -21.934 -19.447  0.00  0.00    +0.037 C 
ATOM     12  C   UNL     1      35.036 -22.107 -17.955  0.00  0.00    +0.006 C 
ATOM     13  C   UNL     1      33.815 -21.951 -18.815  0.00  0.00    +0.006 C 
ENDBRANCH   5  11
BRANCH   8  14
ATOM     14  C   UNL     1      35.263 -16.403 -23.901  0.00  0.00    +0.112 C 
BRANCH  14  15
ATOM     15  C   UNL     1      34.409 -15.254 -23.481  0.00  0.00    -0.013 C 
ATOM     16  C   UNL     1      33.371 -13.944 -21.714  0.00  0.00    -0.000 C 
ATOM     17  C   UNL     1      34.172 -15.021 -22.126  0.00  0.00    -0.004 C 
ATOM     18  C   UNL     1      32.804 -13.089 -22.690  0.00  0.00    -0.000 C 
ATOM     19  C   UNL     1      33.852 -14.414 -24.440  0.00  0.00    -0.004 C 
ATOM     20  C   UNL     1      33.055 -13.338 -24.049  0.00  0.00    -0.000 C 
ATOM     21  C   UNL     1      33.120 -13.695 -20.354  0.00  0.00    -0.000 C 
ATOM     22  C   UNL     1      32.003 -12.011 -22.277  0.00  0.00    -0.000 C 
ATOM     23  C   UNL     1      32.322 -12.620 -19.963  0.00  0.00    -0.000 C 
ATOM     24  C   UNL     1      31.765 -11.779 -20.922  0.00  0.00    -0.000 C 
ENDBRANCH  14  15
ENDBRANCH   8  14
TORSDOF 3
ENDMDL
MODEL 9
REMARK VINA RESULT:     -10.2      4.172      8.997
REMARK  Name = 449087
REMARK  3 active torsions:
REMARK  status: ('A' for Active; 'I' for Inactive)
REMARK    1  A    between atoms: C_5  and  C_11
REMARK    2  A    between atoms: C_8  and  C_14
REMARK    3  A    between atoms: C_14  and  C_15
REMARK                            x       y       z     vdW  Elec       q    Type
REMARK                         _______ _______ _______ _____ _____    ______ ____
ROOT
ATOM      1  O   UNL     1      33.472 -21.235 -19.525  0.00  0.00    -0.274 OA
ATOM      2  N   UNL     1      33.443 -23.915 -15.444  0.00  0.00    -0.239 N 
ATOM      3  N   UNL     1      34.576 -23.540 -16.063  0.00  0.00    -0.166 NA
ATOM      4  N   UNL     1      34.974 -22.255 -18.035  0.00  0.00    -0.268 N 
ATOM      5  C   UNL     1      32.308 -23.479 -16.061  0.00  0.00    +0.045 C 
ATOM      6  C   UNL     1      32.726 -22.768 -17.159  0.00  0.00    +0.048 C 
ATOM      7  C   UNL     1      34.120 -22.848 -17.098  0.00  0.00    +0.152 C 
ATOM      8  C   UNL     1      34.607 -21.510 -19.153  0.00  0.00    +0.232 C 
ATOM      9  H   UNL     1      33.434 -24.455 -14.621  0.00  0.00    +0.174 HD
ATOM     10  H   UNL     1      35.940 -22.377 -17.887  0.00  0.00    +0.156 HD
ENDROOT
BRANCH   5  11
ATOM     11  C   UNL     1      30.874 -23.730 -15.615  0.00  0.00    +0.037 C 
ATOM     12  C   UNL     1      30.261 -22.833 -14.568  0.00  0.00    +0.006 C 
ATOM     13  C   UNL     1      29.801 -22.741 -15.994  0.00  0.00    +0.006 C 
ENDBRANCH   5  11
BRANCH   8  14
ATOM     14  C   UNL     1      35.840 -21.037 -19.918  0.00  0.00    +0.112 C 
BRANCH  14  15
ATOM     15  C   UNL     1      35.606 -19.824 -20.755  0.00  0.00    -0.013 C 
ATOM     16  C   UNL     1      34.735 -18.808 -22.786  0.00  0.00    -0.000 C 
ATOM     17  C   UNL     1      34.963 -19.941 -21.987  0.00  0.00    -0.004 C 
ATOM     18  C   UNL     1      35.163 -17.540 -22.327  0.00  0.00    -0.000 C 
ATOM     19  C   UNL     1      36.027 -18.577 -20.304  0.00  0.00    -0.004 C 
ATOM     20  C   UNL     1      35.808 -17.442 -21.084  0.00  0.00    -0.000 C 
ATOM     21  C   UNL     1      34.090 -18.907 -24.030  0.00  0.00    -0.000 C 
ATOM     22  C   UNL     1      34.934 -16.407 -23.126  0.00  0.00    -0.000 C 
ATOM     23  C   UNL     1      33.871 -17.772 -24.811  0.00  0.00    -0.000 C 
ATOM     24  C   UNL     1      34.293 -16.524 -24.360  0.00  0.00    -0.000 C 
ENDBRANCH  14  15
ENDBRANCH   8  14
TORSDOF 3
ENDMDL
