MODEL 1
REMARK VINA RESULT:     -11.1      0.000      0.000
REMARK  Name = 657131
REMARK  7 active torsions:
REMARK  status: ('A' for Active; 'I' for Inactive)
REMARK    1  A    between atoms: C_1  and  CA_2
REMARK    2  A    between atoms: C_1  and  C_3
REMARK    3  A    between atoms: CA_2  and  C_28
REMARK    4  A    between atoms: C_4  and  O_9
REMARK    5  A    between atoms: O_9  and  C_11
REMARK    6  A    between atoms: C_19  and  C_21
REMARK    7  A    between atoms: C_28  and  O_29
REMARK                            x       y       z     vdW  Elec       q    Type
REMARK                         _______ _______ _______ _____ _____    ______ ____
ROOT
ATOM      1  C   UNL     1      35.059 -14.898 -22.530  0.00  0.00    +0.074 C 
ENDROOT
BRANCH   1   2
ATOM      2  C   UNL     1      34.052 -13.877 -22.294  0.00  0.00    -0.016 C 
ATOM      3  C   UNL     1      32.119 -11.915 -21.845  0.00  0.00    +0.145 C 
ATOM      4  C   UNL     1      33.245 -13.939 -21.158  0.00  0.00    -0.001 C 
ATOM      5  C   UNL     1      33.892 -12.832 -23.206  0.00  0.00    -0.001 C 
ATOM      6  C   UNL     1      32.279 -12.958 -20.933  0.00  0.00    +0.037 C 
ATOM      7  C   UNL     1      32.926 -11.852 -22.981  0.00  0.00    +0.037 C 
BRANCH   3   8
ATOM      8  O   UNL     1      31.178 -10.958 -21.624  0.00  0.00    -0.453 OA
BRANCH   8  10
ATOM      9 BR   UNL     1      31.863 -10.192 -18.676  0.00  0.00    -0.046 Br
ATOM     10  C   UNL     1      31.608  -9.648 -21.491  0.00  0.00    +0.151 C 
ATOM     11  C   UNL     1      31.955  -9.141 -20.251  0.00  0.00    +0.069 C 
ATOM     12  C   UNL     1      31.678  -8.874 -22.636  0.00  0.00    +0.038 C 
ATOM     13  C   UNL     1      32.384  -7.818 -20.152  0.00  0.00    +0.010 C 
ATOM     14  C   UNL     1      32.109  -7.550 -22.537  0.00  0.00    +0.003 C 
ATOM     15  C   UNL     1      32.461  -7.023 -21.295  0.00  0.00    +0.001 C 
ENDBRANCH   8  10
ENDBRANCH   3   8
ENDBRANCH   1   2
BRANCH   1  16
ATOM     16  CA  UNL     1      34.826 -16.195 -22.839  0.00  0.00    +0.108 C 
ATOM     17  O   UNL     1      34.367 -18.963 -23.364  0.00  0.00    -0.270 OA
ATOM     18  N   UNL     1      34.966 -17.220 -21.946  0.00  0.00    -0.278 N 
ATOM     19  C   UNL     1      34.726 -18.548 -22.264  0.00  0.00    +0.249 C 
ATOM     20  H   UNL     1      35.251 -17.004 -21.029  0.00  0.00    +0.155 HD
BRANCH  19  21
ATOM     21  C   UNL     1      34.955 -19.522 -21.166  0.00  0.00    +0.054 C 
ATOM     22  C   UNL     1      36.243 -19.734 -20.722  0.00  0.00    +0.005 C 
ATOM     23  C   UNL     1      33.871 -20.180 -20.624  0.00  0.00    +0.005 C 
ATOM     24  C   UNL     1      36.458 -20.648 -19.691  0.00  0.00    +0.000 C 
ATOM     25  C   UNL     1      34.086 -21.094 -19.592  0.00  0.00    +0.000 C 
ATOM     26  C   UNL     1      35.380 -21.328 -19.126  0.00  0.00    +0.000 C 
ENDBRANCH  19  21
BRANCH  16  28
ATOM     27  OXT UNL     1      35.171 -16.777 -25.154  0.00  0.00    -0.244 OA
ATOM     28  C   UNL     1      34.413 -16.523 -24.230  0.00  0.00    +0.348 C 
BRANCH  28  29
ATOM     29  O   UNL     1      33.064 -16.504 -24.350  0.00  0.00    -0.476 OA
ATOM     30  H   UNL     1      32.658 -16.838 -25.125  0.00  0.00    +0.295 HD
ENDBRANCH  28  29
ENDBRANCH  16  28
ENDBRANCH   1  16
TORSDOF 7
ENDMDL
MODEL 2
REMARK VINA RESULT:     -10.9      1.107      1.960
REMARK  Name = 657131
REMARK  7 active torsions:
REMARK  status: ('A' for Active; 'I' for Inactive)
REMARK    1  A    between atoms: C_1  and  CA_2
REMARK    2  A    between atoms: C_1  and  C_3
REMARK    3  A    between atoms: CA_2  and  C_28
REMARK    4  A    between atoms: C_4  and  O_9
REMARK    5  A    between atoms: O_9  and  C_11
REMARK    6  A    between atoms: C_19  and  C_21
REMARK    7  A    between atoms: C_28  and  O_29
REMARK                            x       y       z     vdW  Elec       q    Type
REMARK                         _______ _______ _______ _____ _____    ______ ____
ROOT
ATOM      1  C   UNL     1      35.097 -15.165 -22.541  0.00  0.00    +0.074 C 
ENDROOT
BRANCH   1   2
ATOM      2  C   UNL     1      34.118 -14.105 -22.362  0.00  0.00    -0.016 C 
ATOM      3  C   UNL     1      32.238 -12.074 -22.017  0.00  0.00    +0.145 C 
ATOM      4  C   UNL     1      33.938 -13.144 -23.357  0.00  0.00    -0.001 C 
ATOM      5  C   UNL     1      33.357 -14.050 -21.194  0.00  0.00    -0.001 C 
ATOM      6  C   UNL     1      32.998 -12.128 -23.184  0.00  0.00    +0.037 C 
ATOM      7  C   UNL     1      32.417 -13.034 -21.022  0.00  0.00    +0.037 C 
BRANCH   3   8
ATOM      8  O   UNL     1      31.320 -11.083 -21.849  0.00  0.00    -0.453 OA
BRANCH   8  10
ATOM      9 BR   UNL     1      32.231  -8.602 -23.512  0.00  0.00    -0.046 Br
ATOM     10  C   UNL     1      31.675 -10.002 -21.059  0.00  0.00    +0.151 C 
ATOM     11  C   UNL     1      32.104  -8.818 -21.633  0.00  0.00    +0.069 C 
ATOM     12  C   UNL     1      31.586 -10.151 -19.685  0.00  0.00    +0.038 C 
ATOM     13  C   UNL     1      32.454  -7.749 -20.807  0.00  0.00    +0.010 C 
ATOM     14  C   UNL     1      31.935  -9.082 -18.860  0.00  0.00    +0.003 C 
ATOM     15  C   UNL     1      32.370  -7.881 -19.422  0.00  0.00    +0.001 C 
ENDBRANCH   8  10
ENDBRANCH   3   8
ENDBRANCH   1   2
BRANCH   1  16
ATOM     16  CA  UNL     1      34.831 -16.464 -22.811  0.00  0.00    +0.108 C 
ATOM     17  O   UNL     1      34.299 -19.234 -23.251  0.00  0.00    -0.270 OA
ATOM     18  N   UNL     1      34.951 -17.466 -21.889  0.00  0.00    -0.278 N 
ATOM     19  C   UNL     1      34.676 -18.796 -22.167  0.00  0.00    +0.249 C 
ATOM     20  H   UNL     1      35.248 -17.230 -20.980  0.00  0.00    +0.155 HD
BRANCH  19  21
ATOM     21  C   UNL     1      34.888 -19.743 -21.042  0.00  0.00    +0.054 C 
ATOM     22  C   UNL     1      33.791 -20.358 -20.475  0.00  0.00    +0.005 C 
ATOM     23  C   UNL     1      36.174 -19.978 -20.603  0.00  0.00    +0.005 C 
ATOM     24  C   UNL     1      33.990 -21.248 -19.420  0.00  0.00    +0.000 C 
ATOM     25  C   UNL     1      36.372 -20.869 -19.547  0.00  0.00    +0.000 C 
ATOM     26  C   UNL     1      35.280 -21.503 -18.955  0.00  0.00    +0.000 C 
ENDBRANCH  19  21
BRANCH  16  28
ATOM     27  OXT UNL     1      35.145 -17.021 -25.136  0.00  0.00    -0.244 OA
ATOM     28  C   UNL     1      34.399 -16.821 -24.188  0.00  0.00    +0.348 C 
BRANCH  28  29
ATOM     29  O   UNL     1      33.049 -16.900 -24.267  0.00  0.00    -0.476 OA
ATOM     30  H   UNL     1      32.517 -16.502 -23.606  0.00  0.00    +0.295 HD
ENDBRANCH  28  29
ENDBRANCH  16  28
ENDBRANCH   1  16
TORSDOF 7
ENDMDL
MODEL 3
REMARK VINA RESULT:     -10.8      3.161      9.892
REMARK  Name = 657131
REMARK  7 active torsions:
REMARK  status: ('A' for Active; 'I' for Inactive)
REMARK    1  A    between atoms: C_1  and  CA_2
REMARK    2  A    between atoms: C_1  and  C_3
REMARK    3  A    between atoms: CA_2  and  C_28
REMARK    4  A    between atoms: C_4  and  O_9
REMARK    5  A    between atoms: O_9  and  C_11
REMARK    6  A    between atoms: C_19  and  C_21
REMARK    7  A    between atoms: C_28  and  O_29
REMARK                            x       y       z     vdW  Elec       q    Type
REMARK                         _______ _______ _______ _____ _____    ______ ____
ROOT
ATOM      1  C   UNL     1      31.570 -11.659 -21.066  0.00  0.00    +0.074 C 
ENDROOT
BRANCH   1   2
ATOM      2  C   UNL     1      32.549 -12.655 -21.468  0.00  0.00    -0.016 C 
ATOM      3  C   UNL     1      34.429 -14.567 -22.238  0.00  0.00    +0.145 C 
ATOM      4  C   UNL     1      33.063 -12.646 -22.765  0.00  0.00    -0.001 C 
ATOM      5  C   UNL     1      32.977 -13.620 -20.556  0.00  0.00    -0.001 C 
ATOM      6  C   UNL     1      34.003 -13.602 -23.150  0.00  0.00    +0.037 C 
ATOM      7  C   UNL     1      33.917 -14.576 -20.941  0.00  0.00    +0.037 C 
BRANCH   3   8
ATOM      8  O   UNL     1      35.347 -15.499 -22.613  0.00  0.00    -0.453 OA
BRANCH   8  10
ATOM      9 BR   UNL     1      36.007 -17.958 -20.807  0.00  0.00    -0.046 Br
ATOM     10  C   UNL     1      34.876 -16.694 -23.132  0.00  0.00    +0.151 C 
ATOM     11  C   UNL     1      35.082 -17.886 -22.459  0.00  0.00    +0.069 C 
ATOM     12  C   UNL     1      34.199 -16.651 -24.339  0.00  0.00    +0.038 C 
ATOM     13  C   UNL     1      34.595 -19.072 -23.010  0.00  0.00    +0.010 C 
ATOM     14  C   UNL     1      33.712 -17.837 -24.889  0.00  0.00    +0.003 C 
ATOM     15  C   UNL     1      33.910 -19.047 -24.225  0.00  0.00    +0.001 C 
ENDBRANCH   8  10
ENDBRANCH   3   8
ENDBRANCH   1   2
BRANCH   1  16
ATOM     16  CA  UNL     1      31.835 -10.397 -20.653  0.00  0.00    +0.108 C 
ATOM     17  O   UNL     1      32.430  -7.706 -19.911  0.00  0.00    -0.270 OA
ATOM     18  N   UNL     1      32.304  -9.416 -21.482  0.00  0.00    -0.278 N 
ATOM     19  C   UNL     1      32.574  -8.124 -21.058  0.00  0.00    +0.249 C 
ATOM     20  H   UNL     1      32.457  -9.638 -22.428  0.00  0.00    +0.155 HD
BRANCH  19  21
ATOM     21  C   UNL     1      33.099  -7.204 -22.099  0.00  0.00    +0.054 C 
ATOM     22  C   UNL     1      34.318  -7.484 -22.681  0.00  0.00    +0.005 C 
ATOM     23  C   UNL     1      32.351  -6.101 -22.452  0.00  0.00    +0.005 C 
ATOM     24  C   UNL     1      34.811  -6.621 -23.659  0.00  0.00    +0.000 C 
ATOM     25  C   UNL     1      32.844  -5.238 -23.431  0.00  0.00    +0.000 C 
ATOM     26  C   UNL     1      34.075  -5.498 -24.034  0.00  0.00    +0.000 C 
ENDBRANCH  19  21
BRANCH  16  28
ATOM     27  OXT UNL     1      30.537  -9.846 -18.698  0.00  0.00    -0.244 OA
ATOM     28  C   UNL     1      31.620 -10.066 -19.220  0.00  0.00    +0.348 C 
BRANCH  28  29
ATOM     29  O   UNL     1      32.796 -10.036 -18.548  0.00  0.00    -0.476 OA
ATOM     30  H   UNL     1      33.456  -9.415 -18.786  0.00  0.00    +0.295 HD
ENDBRANCH  28  29
ENDBRANCH  16  28
ENDBRANCH   1  16
TORSDOF 7
ENDMDL
MODEL 4
REMARK VINA RESULT:     -10.3      4.003     10.014
REMARK  Name = 657131
REMARK  7 active torsions:
REMARK  status: ('A' for Active; 'I' for Inactive)
REMARK    1  A    between atoms: C_1  and  CA_2
REMARK    2  A    between atoms: C_1  and  C_3
REMARK    3  A    between atoms: CA_2  and  C_28
REMARK    4  A    between atoms: C_4  and  O_9
REMARK    5  A    between atoms: O_9  and  C_11
REMARK    6  A    between atoms: C_19  and  C_21
REMARK    7  A    between atoms: C_28  and  O_29
REMARK                            x       y       z     vdW  Elec       q    Type
REMARK                         _______ _______ _______ _____ _____    ______ ____
ROOT
ATOM      1  C   UNL     1      35.627 -18.544 -21.105  0.00  0.00    +0.074 C 
ENDROOT
BRANCH   1   2
ATOM      2  C   UNL     1      35.340 -19.761 -20.363  0.00  0.00    -0.016 C 
ATOM      3  C   UNL     1      34.793 -22.097 -18.940  0.00  0.00    +0.145 C 
ATOM      4  C   UNL     1      34.021 -20.180 -20.190  0.00  0.00    -0.001 C 
ATOM      5  C   UNL     1      36.386 -20.511 -19.825  0.00  0.00    -0.001 C 
ATOM      6  C   UNL     1      33.747 -21.348 -19.479  0.00  0.00    +0.037 C 
ATOM      7  C   UNL     1      36.112 -21.680 -19.113  0.00  0.00    +0.037 C 
BRANCH   3   8
ATOM      8  O   UNL     1      34.526 -23.237 -18.247  0.00  0.00    -0.453 OA
BRANCH   8  10
ATOM      9 BR   UNL     1      36.253 -23.154 -15.648  0.00  0.00    -0.046 Br
ATOM     10  C   UNL     1      33.765 -23.128 -17.095  0.00  0.00    +0.151 C 
ATOM     11  C   UNL     1      34.371 -23.077 -15.851  0.00  0.00    +0.069 C 
ATOM     12  C   UNL     1      32.389 -23.071 -17.234  0.00  0.00    +0.038 C 
ATOM     13  C   UNL     1      33.574 -22.967 -14.711  0.00  0.00    +0.010 C 
ATOM     14  C   UNL     1      31.593 -22.960 -16.093  0.00  0.00    +0.003 C 
ATOM     15  C   UNL     1      32.186 -22.908 -14.832  0.00  0.00    +0.001 C 
ENDBRANCH   8  10
ENDBRANCH   3   8
ENDBRANCH   1   2
BRANCH   1  16
ATOM     16  CA  UNL     1      35.059 -18.166 -22.274  0.00  0.00    +0.108 C 
ATOM     17  O   UNL     1      33.871 -17.241 -24.699  0.00  0.00    -0.270 OA
ATOM     18  N   UNL     1      34.803 -16.864 -22.602  0.00  0.00    -0.278 N 
ATOM     19  C   UNL     1      34.222 -16.479 -23.800  0.00  0.00    +0.249 C 
ATOM     20  H   UNL     1      35.044 -16.164 -21.953  0.00  0.00    +0.155 HD
BRANCH  19  21
ATOM     21  C   UNL     1      34.001 -15.019 -23.966  0.00  0.00    +0.054 C 
ATOM     22  C   UNL     1      33.553 -14.549 -25.183  0.00  0.00    +0.005 C 
ATOM     23  C   UNL     1      34.249 -14.183 -22.898  0.00  0.00    +0.005 C 
ATOM     24  C   UNL     1      33.345 -13.179 -25.339  0.00  0.00    +0.000 C 
ATOM     25  C   UNL     1      34.041 -12.812 -23.055  0.00  0.00    +0.000 C 
ATOM     26  C   UNL     1      33.589 -12.310 -24.275  0.00  0.00    +0.000 C 
ENDBRANCH  19  21
BRANCH  16  28
ATOM     27  OXT UNL     1      35.453 -19.834 -23.970  0.00  0.00    -0.244 OA
ATOM     28  C   UNL     1      34.679 -19.226 -23.245  0.00  0.00    +0.348 C 
BRANCH  28  29
ATOM     29  O   UNL     1      33.341 -19.439 -23.230  0.00  0.00    -0.476 OA
ATOM     30  H   UNL     1      32.792 -18.930 -22.667  0.00  0.00    +0.295 HD
ENDBRANCH  28  29
ENDBRANCH  16  28
ENDBRANCH   1  16
TORSDOF 7
ENDMDL
MODEL 5
REMARK VINA RESULT:     -10.2      3.005      9.891
REMARK  Name = 657131
REMARK  7 active torsions:
REMARK  status: ('A' for Active; 'I' for Inactive)
REMARK    1  A    between atoms: C_1  and  CA_2
REMARK    2  A    between atoms: C_1  and  C_3
REMARK    3  A    between atoms: CA_2  and  C_28
REMARK    4  A    between atoms: C_4  and  O_9
REMARK    5  A    between atoms: O_9  and  C_11
REMARK    6  A    between atoms: C_19  and  C_21
REMARK    7  A    between atoms: C_28  and  O_29
REMARK                            x       y       z     vdW  Elec       q    Type
REMARK                         _______ _______ _______ _____ _____    ______ ____
ROOT
ATOM      1  C   UNL     1      31.610 -11.926 -21.014  0.00  0.00    +0.074 C 
ENDROOT
BRANCH   1   2
ATOM      2  C   UNL     1      32.599 -12.900 -21.445  0.00  0.00    -0.016 C 
ATOM      3  C   UNL     1      34.499 -14.769 -22.271  0.00  0.00    +0.145 C 
ATOM      4  C   UNL     1      32.893 -13.043 -22.801  0.00  0.00    -0.001 C 
ATOM      5  C   UNL     1      33.256 -13.691 -20.502  0.00  0.00    -0.001 C 
ATOM      6  C   UNL     1      33.843 -13.978 -23.215  0.00  0.00    +0.037 C 
ATOM      7  C   UNL     1      34.206 -14.625 -20.916  0.00  0.00    +0.037 C 
BRANCH   3   8
ATOM      8  O   UNL     1      35.426 -15.679 -22.675  0.00  0.00    -0.453 OA
BRANCH   8  10
ATOM      9 BR   UNL     1      33.990 -17.374 -24.868  0.00  0.00    -0.046 Br
ATOM     10  C   UNL     1      35.237 -17.000 -22.301  0.00  0.00    +0.151 C 
ATOM     11  C   UNL     1      34.615 -17.893 -23.156  0.00  0.00    +0.069 C 
ATOM     12  C   UNL     1      35.691 -17.387 -21.052  0.00  0.00    +0.038 C 
ATOM     13  C   UNL     1      34.441 -19.216 -22.749  0.00  0.00    +0.010 C 
ATOM     14  C   UNL     1      35.517 -18.711 -20.646  0.00  0.00    +0.003 C 
ATOM     15  C   UNL     1      34.892 -19.624 -21.494  0.00  0.00    +0.001 C 
ENDBRANCH   8  10
ENDBRANCH   3   8
ENDBRANCH   1   2
BRANCH   1  16
ATOM     16  CA  UNL     1      31.852 -10.642 -20.661  0.00  0.00    +0.108 C 
ATOM     17  O   UNL     1      32.402  -7.910 -20.043  0.00  0.00    -0.270 OA
ATOM     18  N   UNL     1      32.341  -9.702 -21.524  0.00  0.00    -0.278 N 
ATOM     19  C   UNL     1      32.587  -8.387 -21.161  0.00  0.00    +0.249 C 
ATOM     20  H   UNL     1      32.528  -9.973 -22.452  0.00  0.00    +0.155 HD
BRANCH  19  21
ATOM     21  C   UNL     1      33.141  -7.519 -22.232  0.00  0.00    +0.054 C 
ATOM     22  C   UNL     1      34.151  -8.012 -23.032  0.00  0.00    +0.005 C 
ATOM     23  C   UNL     1      32.626  -6.250 -22.393  0.00  0.00    +0.005 C 
ATOM     24  C   UNL     1      34.670  -7.197 -24.037  0.00  0.00    +0.000 C 
ATOM     25  C   UNL     1      33.145  -5.436 -23.399  0.00  0.00    +0.000 C 
ATOM     26  C   UNL     1      34.168  -5.910 -24.221  0.00  0.00    +0.000 C 
ENDBRANCH  19  21
BRANCH  16  28
ATOM     27  OXT UNL     1      30.489  -9.963 -18.792  0.00  0.00    -0.244 OA
ATOM     28  C   UNL     1      31.585 -10.238 -19.255  0.00  0.00    +0.348 C 
BRANCH  28  29
ATOM     29  O   UNL     1      32.732 -10.209 -18.535  0.00  0.00    -0.476 OA
ATOM     30  H   UNL     1      32.993  -9.421 -18.099  0.00  0.00    +0.295 HD
ENDBRANCH  28  29
ENDBRANCH  16  28
ENDBRANCH   1  16
TORSDOF 7
ENDMDL
MODEL 6
REMARK VINA RESULT:     -10.0      3.145      9.682
REMARK  Name = 657131
REMARK  7 active torsions:
REMARK  status: ('A' for Active; 'I' for Inactive)
REMARK    1  A    between atoms: C_1  and  CA_2
REMARK    2  A    between atoms: C_1  and  C_3
REMARK    3  A    between atoms: CA_2  and  C_28
REMARK    4  A    between atoms: C_4  and  O_9
REMARK    5  A    between atoms: O_9  and  C_11
REMARK    6  A    between atoms: C_19  and  C_21
REMARK    7  A    between atoms: C_28  and  O_29
REMARK                            x       y       z     vdW  Elec       q    Type
REMARK                         _______ _______ _______ _____ _____    ______ ____
ROOT
ATOM      1  C   UNL     1      35.990 -17.143 -21.897  0.00  0.00    +0.074 C 
ENDROOT
BRANCH   1   2
ATOM      2  C   UNL     1      35.766 -18.404 -21.209  0.00  0.00    -0.016 C 
ATOM      3  C   UNL     1      35.334 -20.823 -19.890  0.00  0.00    +0.145 C 
ATOM      4  C   UNL     1      36.847 -19.127 -20.706  0.00  0.00    -0.001 C 
ATOM      5  C   UNL     1      34.468 -18.891 -21.052  0.00  0.00    -0.001 C 
ATOM      6  C   UNL     1      36.631 -20.337 -20.046  0.00  0.00    +0.037 C 
ATOM      7  C   UNL     1      34.252 -20.101 -20.392  0.00  0.00    +0.037 C 
BRANCH   3   8
ATOM      8  O   UNL     1      35.123 -22.003 -19.245  0.00  0.00    -0.453 OA
BRANCH   8  10
ATOM      9 BR   UNL     1      33.012 -23.176 -17.266  0.00  0.00    -0.046 Br
ATOM     10  C   UNL     1      35.603 -22.125 -17.951  0.00  0.00    +0.151 C 
ATOM     11  C   UNL     1      34.798 -22.629 -16.944  0.00  0.00    +0.069 C 
ATOM     12  C   UNL     1      36.907 -21.728 -17.708  0.00  0.00    +0.038 C 
ATOM     13  C   UNL     1      35.313 -22.739 -15.652  0.00  0.00    +0.010 C 
ATOM     14  C   UNL     1      37.421 -21.839 -16.415  0.00  0.00    +0.003 C 
ATOM     15  C   UNL     1      36.624 -22.344 -15.388  0.00  0.00    +0.001 C 
ENDBRANCH   8  10
ENDBRANCH   3   8
ENDBRANCH   1   2
BRANCH   1  16
ATOM     16  CA  UNL     1      35.110 -16.503 -22.702  0.00  0.00    +0.108 C 
ATOM     17  O   UNL     1      33.247 -15.053 -24.307  0.00  0.00    -0.270 OA
ATOM     18  N   UNL     1      34.537 -15.302 -22.388  0.00  0.00    -0.278 N 
ATOM     19  C   UNL     1      33.637 -14.648 -23.214  0.00  0.00    +0.249 C 
ATOM     20  H   UNL     1      34.777 -14.880 -21.532  0.00  0.00    +0.155 HD
BRANCH  19  21
ATOM     21  C   UNL     1      33.104 -13.363 -22.692  0.00  0.00    +0.054 C 
ATOM     22  C   UNL     1      33.349 -12.204 -23.399  0.00  0.00    +0.005 C 
ATOM     23  C   UNL     1      32.378 -13.371 -21.519  0.00  0.00    +0.005 C 
ATOM     24  C   UNL     1      32.849 -10.998 -22.909  0.00  0.00    +0.000 C 
ATOM     25  C   UNL     1      31.877 -12.164 -21.029  0.00  0.00    +0.000 C 
ATOM     26  C   UNL     1      32.113 -10.978 -21.724  0.00  0.00    +0.000 C 
ENDBRANCH  19  21
BRANCH  16  28
ATOM     27  OXT UNL     1      33.965 -18.090 -24.110  0.00  0.00    -0.244 OA
ATOM     28  C   UNL     1      34.734 -17.149 -23.987  0.00  0.00    +0.348 C 
BRANCH  28  29
ATOM     29  O   UNL     1      35.365 -16.555 -25.029  0.00  0.00    -0.476 OA
ATOM     30  H   UNL     1      35.137 -15.682 -25.279  0.00  0.00    +0.295 HD
ENDBRANCH  28  29
ENDBRANCH  16  28
ENDBRANCH   1  16
TORSDOF 7
ENDMDL
MODEL 7
REMARK VINA RESULT:     -10.0      3.897     10.046
REMARK  Name = 657131
REMARK  7 active torsions:
REMARK  status: ('A' for Active; 'I' for Inactive)
REMARK    1  A    between atoms: C_1  and  CA_2
REMARK    2  A    between atoms: C_1  and  C_3
REMARK    3  A    between atoms: CA_2  and  C_28
REMARK    4  A    between atoms: C_4  and  O_9
REMARK    5  A    between atoms: O_9  and  C_11
REMARK    6  A    between atoms: C_19  and  C_21
REMARK    7  A    between atoms: C_28  and  O_29
REMARK                            x       y       z     vdW  Elec       q    Type
REMARK                         _______ _______ _______ _____ _____    ______ ____
ROOT
ATOM      1  C   UNL     1      35.496 -19.039 -21.331  0.00  0.00    +0.074 C 
ENDROOT
BRANCH   1   2
ATOM      2  C   UNL     1      34.900 -20.075 -20.505  0.00  0.00    -0.016 C 
ATOM      3  C   UNL     1      33.754 -22.063 -18.918  0.00  0.00    +0.145 C 
ATOM      4  C   UNL     1      35.707 -21.043 -19.907  0.00  0.00    -0.001 C 
ATOM      5  C   UNL     1      33.519 -20.101 -20.308  0.00  0.00    -0.001 C 
ATOM      6  C   UNL     1      35.134 -22.037 -19.113  0.00  0.00    +0.037 C 
ATOM      7  C   UNL     1      32.946 -21.096 -19.515  0.00  0.00    +0.037 C 
BRANCH   3   8
ATOM      8  O   UNL     1      33.195 -23.032 -18.143  0.00  0.00    -0.453 OA
BRANCH   8  10
ATOM      9 BR   UNL     1      30.803 -23.173 -16.142  0.00  0.00    -0.046 Br
ATOM     10  C   UNL     1      33.600 -23.114 -16.821  0.00  0.00    +0.151 C 
ATOM     11  C   UNL     1      32.668 -23.184 -15.800  0.00  0.00    +0.069 C 
ATOM     12  C   UNL     1      34.960 -23.122 -16.563  0.00  0.00    +0.038 C 
ATOM     13  C   UNL     1      33.110 -23.265 -14.480  0.00  0.00    +0.010 C 
ATOM     14  C   UNL     1      35.401 -23.204 -15.242  0.00  0.00    +0.003 C 
ATOM     15  C   UNL     1      34.476 -23.275 -14.201  0.00  0.00    +0.001 C 
ENDBRANCH   8  10
ENDBRANCH   3   8
ENDBRANCH   1   2
BRANCH   1  16
ATOM     16  CA  UNL     1      34.961 -18.504 -22.454  0.00  0.00    +0.108 C 
ATOM     17  O   UNL     1      33.848 -17.254 -24.766  0.00  0.00    -0.270 OA
ATOM     18  N   UNL     1      34.755 -17.164 -22.626  0.00  0.00    -0.278 N 
ATOM     19  C   UNL     1      34.208 -16.618 -23.777  0.00  0.00    +0.249 C 
ATOM     20  H   UNL     1      35.008 -16.555 -21.895  0.00  0.00    +0.155 HD
BRANCH  19  21
ATOM     21  C   UNL     1      34.039 -15.142 -23.770  0.00  0.00    +0.054 C 
ATOM     22  C   UNL     1      34.323 -14.446 -22.613  0.00  0.00    +0.005 C 
ATOM     23  C   UNL     1      33.606 -14.516 -24.919  0.00  0.00    +0.005 C 
ATOM     24  C   UNL     1      34.165 -13.061 -22.606  0.00  0.00    +0.000 C 
ATOM     25  C   UNL     1      33.449 -13.129 -24.912  0.00  0.00    +0.000 C 
ATOM     26  C   UNL     1      33.728 -12.402 -23.754  0.00  0.00    +0.000 C 
ENDBRANCH  19  21
BRANCH  16  28
ATOM     27  OXT UNL     1      35.333 -20.025 -24.288  0.00  0.00    -0.244 OA
ATOM     28  C   UNL     1      34.564 -19.426 -23.551  0.00  0.00    +0.348 C 
BRANCH  28  29
ATOM     29  O   UNL     1      33.215 -19.522 -23.637  0.00  0.00    -0.476 OA
ATOM     30  H   UNL     1      32.676 -19.169 -22.957  0.00  0.00    +0.295 HD
ENDBRANCH  28  29
ENDBRANCH  16  28
ENDBRANCH   1  16
TORSDOF 7
ENDMDL
MODEL 8
REMARK VINA RESULT:      -9.9      7.041     11.353
REMARK  Name = 657131
REMARK  7 active torsions:
REMARK  status: ('A' for Active; 'I' for Inactive)
REMARK    1  A    between atoms: C_1  and  CA_2
REMARK    2  A    between atoms: C_1  and  C_3
REMARK    3  A    between atoms: CA_2  and  C_28
REMARK    4  A    between atoms: C_4  and  O_9
REMARK    5  A    between atoms: O_9  and  C_11
REMARK    6  A    between atoms: C_19  and  C_21
REMARK    7  A    between atoms: C_28  and  O_29
REMARK                            x       y       z     vdW  Elec       q    Type
REMARK                         _______ _______ _______ _____ _____    ______ ____
ROOT
ATOM      1  C   UNL     1      35.717 -22.888 -14.340  0.00  0.00    +0.074 C 
ENDROOT
BRANCH   1   2
ATOM      2  C   UNL     1      35.737 -22.604 -15.766  0.00  0.00    -0.016 C 
ATOM      3  C   UNL     1      35.772 -22.060 -18.502  0.00  0.00    +0.145 C 
ATOM      4  C   UNL     1      36.870 -22.038 -16.350  0.00  0.00    -0.001 C 
ATOM      5  C   UNL     1      34.621 -22.897 -16.550  0.00  0.00    -0.001 C 
ATOM      6  C   UNL     1      36.888 -21.766 -17.718  0.00  0.00    +0.037 C 
ATOM      7  C   UNL     1      34.639 -22.625 -17.918  0.00  0.00    +0.037 C 
BRANCH   3   8
ATOM      8  O   UNL     1      35.790 -21.795 -19.836  0.00  0.00    -0.453 OA
BRANCH   8  10
ATOM      9 BR   UNL     1      32.945 -20.576 -20.248  0.00  0.00    -0.046 Br
ATOM     10  C   UNL     1      35.822 -20.468 -20.230  0.00  0.00    +0.151 C 
ATOM     11  C   UNL     1      34.648 -19.770 -20.458  0.00  0.00    +0.069 C 
ATOM     12  C   UNL     1      37.061 -19.871 -20.385  0.00  0.00    +0.038 C 
ATOM     13  C   UNL     1      34.717 -18.434 -20.853  0.00  0.00    +0.010 C 
ATOM     14  C   UNL     1      37.129 -18.535 -20.780  0.00  0.00    +0.003 C 
ATOM     15  C   UNL     1      35.957 -17.817 -21.014  0.00  0.00    +0.001 C 
ENDBRANCH   8  10
ENDBRANCH   3   8
ENDBRANCH   1   2
BRANCH   1  16
ATOM     16  CA  UNL     1      34.757 -23.570 -13.673  0.00  0.00    +0.108 C 
ATOM     17  O   UNL     1      32.642 -24.967 -12.361  0.00  0.00    -0.270 OA
ATOM     18  N   UNL     1      33.449 -23.609 -14.068  0.00  0.00    -0.278 N 
ATOM     19  C   UNL     1      32.467 -24.309 -13.384  0.00  0.00    +0.249 C 
ATOM     20  H   UNL     1      33.191 -23.116 -14.880  0.00  0.00    +0.155 HD
BRANCH  19  21
ATOM     21  C   UNL     1      31.097 -24.215 -13.953  0.00  0.00    +0.054 C 
ATOM     22  C   UNL     1      30.267 -25.313 -13.874  0.00  0.00    +0.005 C 
ATOM     23  C   UNL     1      30.701 -23.032 -14.540  0.00  0.00    +0.005 C 
ATOM     24  C   UNL     1      28.982 -25.225 -14.407  0.00  0.00    +0.000 C 
ATOM     25  C   UNL     1      29.415 -22.943 -15.073  0.00  0.00    +0.000 C 
ATOM     26  C   UNL     1      28.555 -24.040 -15.007  0.00  0.00    +0.000 C 
ENDBRANCH  19  21
BRANCH  16  28
ATOM     27  OXT UNL     1      35.087 -23.853 -11.302  0.00  0.00    -0.244 OA
ATOM     28  C   UNL     1      35.143 -24.301 -12.438  0.00  0.00    +0.348 C 
BRANCH  28  29
ATOM     29  O   UNL     1      35.577 -25.550 -12.731  0.00  0.00    -0.476 OA
ATOM     30  H   UNL     1      35.951 -25.732 -13.570  0.00  0.00    +0.295 HD
ENDBRANCH  28  29
ENDBRANCH  16  28
ENDBRANCH   1  16
TORSDOF 7
ENDMDL
MODEL 9
REMARK VINA RESULT:      -9.8      5.660      9.472
REMARK  Name = 657131
REMARK  7 active torsions:
REMARK  status: ('A' for Active; 'I' for Inactive)
REMARK    1  A    between atoms: C_1  and  CA_2
REMARK    2  A    between atoms: C_1  and  C_3
REMARK    3  A    between atoms: CA_2  and  C_28
REMARK    4  A    between atoms: C_4  and  O_9
REMARK    5  A    between atoms: O_9  and  C_11
REMARK    6  A    between atoms: C_19  and  C_21
REMARK    7  A    between atoms: C_28  and  O_29
REMARK                            x       y       z     vdW  Elec       q    Type
REMARK                         _______ _______ _______ _____ _____    ______ ____
ROOT
ATOM      1  C   UNL     1      32.371 -22.447 -17.636  0.00  0.00    +0.074 C 
ENDROOT
BRANCH   1   2
ATOM      2  C   UNL     1      33.272 -21.784 -18.563  0.00  0.00    -0.016 C 
ATOM      3  C   UNL     1      35.004 -20.512 -20.342  0.00  0.00    +0.145 C 
ATOM      4  C   UNL     1      32.766 -20.914 -19.529  0.00  0.00    -0.001 C 
ATOM      5  C   UNL     1      34.646 -22.017 -18.487  0.00  0.00    -0.001 C 
ATOM      6  C   UNL     1      33.631 -20.278 -20.418  0.00  0.00    +0.037 C 
ATOM      7  C   UNL     1      35.511 -21.381 -19.377  0.00  0.00    +0.037 C 
BRANCH   3   8
ATOM      8  O   UNL     1      35.849 -19.891 -21.209  0.00  0.00    -0.453 OA
BRANCH   8  10
ATOM      9 BR   UNL     1      34.919 -19.880 -24.190  0.00  0.00    -0.046 Br
ATOM     10  C   UNL     1      35.495 -18.630 -21.662  0.00  0.00    +0.151 C 
ATOM     11  C   UNL     1      35.059 -18.443 -22.962  0.00  0.00    +0.069 C 
ATOM     12  C   UNL     1      35.594 -17.575 -20.772  0.00  0.00    +0.038 C 
ATOM     13  C   UNL     1      34.711 -17.160 -23.385  0.00  0.00    +0.010 C 
ATOM     14  C   UNL     1      35.246 -16.292 -21.195  0.00  0.00    +0.003 C 
ATOM     15  C   UNL     1      34.804 -16.085 -22.502  0.00  0.00    +0.001 C 
ENDBRANCH   8  10
ENDBRANCH   3   8
ENDBRANCH   1   2
BRANCH   1  16
ATOM     16  CA  UNL     1      32.720 -23.065 -16.483  0.00  0.00    +0.108 C 
ATOM     17  O   UNL     1      33.588 -24.360 -14.092  0.00  0.00    -0.270 OA
ATOM     18  N   UNL     1      34.011 -23.376 -16.156  0.00  0.00    -0.278 N 
ATOM     19  C   UNL     1      34.367 -24.008 -14.975  0.00  0.00    +0.249 C 
ATOM     20  H   UNL     1      34.723 -23.140 -16.793  0.00  0.00    +0.155 HD
BRANCH  19  21
ATOM     21  C   UNL     1      35.818 -24.285 -14.808  0.00  0.00    +0.054 C 
ATOM     22  C   UNL     1      36.207 -25.501 -14.285  0.00  0.00    +0.005 C 
ATOM     23  C   UNL     1      36.727 -23.319 -15.183  0.00  0.00    +0.005 C 
ATOM     24  C   UNL     1      37.567 -25.761 -14.129  0.00  0.00    +0.000 C 
ATOM     25  C   UNL     1      38.089 -23.580 -15.027  0.00  0.00    +0.000 C 
ATOM     26  C   UNL     1      38.509 -24.801 -14.500  0.00  0.00    +0.000 C 
ENDBRANCH  19  21
BRANCH  16  28
ATOM     27  OXT UNL     1      30.895 -24.397 -15.644  0.00  0.00    -0.244 OA
ATOM     28  C   UNL     1      31.642 -23.437 -15.530  0.00  0.00    +0.348 C 
BRANCH  28  29
ATOM     29  O   UNL     1      31.586 -22.563 -14.496  0.00  0.00    -0.476 OA
ATOM     30  H   UNL     1      30.824 -22.033 -14.372  0.00  0.00    +0.295 HD
ENDBRANCH  28  29
ENDBRANCH  16  28
ENDBRANCH   1  16
TORSDOF 7
ENDMDL
