MODEL 1
REMARK VINA RESULT:     -11.6      0.000      0.000
REMARK  Name = 448841
REMARK  3 active torsions:
REMARK  status: ('A' for Active; 'I' for Inactive)
REMARK    1  A    between atoms: C_1  and  C_17
REMARK    2  A    between atoms: C_9  and  C_13
REMARK    3  A    between atoms: C_18  and  C_20
REMARK                            x       y       z     vdW  Elec       q    Type
REMARK                         _______ _______ _______ _____ _____    ______ ____
ROOT
ATOM      1  C   UNL     1      35.487 -20.978 -19.584  0.00  0.00    -0.022 C 
ATOM      2  C   UNL     1      36.439 -21.277 -18.609  0.00  0.00    -0.004 C 
ATOM      3  C   UNL     1      34.175 -21.418 -19.434  0.00  0.00    -0.004 C 
ATOM      4  C   UNL     1      36.091 -22.021 -17.470  0.00  0.00    -0.000 C 
ATOM      5  C   UNL     1      33.811 -22.158 -18.308  0.00  0.00    -0.000 C 
ATOM      6  C   UNL     1      34.756 -22.468 -17.317  0.00  0.00    +0.000 C 
ATOM      7  C   UNL     1      37.036 -22.332 -16.480  0.00  0.00    +0.000 C 
ATOM      8  C   UNL     1      34.407 -23.212 -16.179  0.00  0.00    +0.003 C 
ATOM      9  C   UNL     1      35.360 -23.511 -15.203  0.00  0.00    +0.031 C 
ATOM     10  C   UNL     1      36.672 -23.071 -15.354  0.00  0.00    +0.003 C 
ENDROOT
BRANCH   9  13
ATOM     11  N   UNL     1      34.193 -23.728 -13.022  0.00  0.00    -0.343 N 
ATOM     12  N   UNL     1      35.393 -25.531 -13.902  0.00  0.00    -0.285 NA
ATOM     13  C   UNL     1      34.982 -24.281 -14.030  0.00  0.00    +0.117 C 
ATOM     14  H   UNL     1      33.950 -24.268 -12.236  0.00  0.00    +0.144 HD
ATOM     15  H   UNL     1      33.880 -22.798 -13.097  0.00  0.00    +0.144 HD
ATOM     16  H   UNL     1      35.137 -26.054 -13.108  0.00  0.00    +0.188 HD
ENDBRANCH   9  13
BRANCH   1  17
ATOM     17  C   UNL     1      35.874 -20.189 -20.786  0.00  0.00    +0.027 C 
ATOM     18  C   UNL     1      35.519 -18.736 -20.853  0.00  0.00    +0.027 C 
ATOM     19  C   UNL     1      36.949 -19.152 -20.665  0.00  0.00    +0.009 C 
BRANCH  18  20
ATOM     20  C   UNL     1      35.097 -18.151 -22.151  0.00  0.00    -0.022 C 
ATOM     21  C   UNL     1      35.288 -16.790 -22.404  0.00  0.00    -0.004 C 
ATOM     22  C   UNL     1      34.505 -18.957 -23.127  0.00  0.00    -0.004 C 
ATOM     23  C   UNL     1      34.889 -16.239 -23.622  0.00  0.00    -0.000 C 
ATOM     24  C   UNL     1      34.106 -18.408 -24.345  0.00  0.00    -0.000 C 
ATOM     25  C   UNL     1      34.298 -17.048 -24.592  0.00  0.00    -0.000 C 
ENDBRANCH  18  20
ENDBRANCH   1  17
TORSDOF 3
ENDMDL
MODEL 2
REMARK VINA RESULT:     -11.5      0.954      1.978
REMARK  Name = 448841
REMARK  3 active torsions:
REMARK  status: ('A' for Active; 'I' for Inactive)
REMARK    1  A    between atoms: C_1  and  C_17
REMARK    2  A    between atoms: C_9  and  C_13
REMARK    3  A    between atoms: C_18  and  C_20
REMARK                            x       y       z     vdW  Elec       q    Type
REMARK                         _______ _______ _______ _____ _____    ______ ____
ROOT
ATOM      1  C   UNL     1      35.723 -21.097 -19.360  0.00  0.00    -0.022 C 
ATOM      2  C   UNL     1      34.418 -21.517 -19.102  0.00  0.00    -0.004 C 
ATOM      3  C   UNL     1      36.733 -21.353 -18.436  0.00  0.00    -0.004 C 
ATOM      4  C   UNL     1      34.106 -22.200 -17.916  0.00  0.00    -0.000 C 
ATOM      5  C   UNL     1      36.440 -22.031 -17.251  0.00  0.00    -0.000 C 
ATOM      6  C   UNL     1      35.132 -22.461 -16.976  0.00  0.00    +0.000 C 
ATOM      7  C   UNL     1      32.798 -22.630 -17.640  0.00  0.00    +0.000 C 
ATOM      8  C   UNL     1      34.820 -23.144 -15.790  0.00  0.00    +0.003 C 
ATOM      9  C   UNL     1      33.514 -23.564 -15.532  0.00  0.00    +0.031 C 
ATOM     10  C   UNL     1      32.506 -23.308 -16.456  0.00  0.00    +0.003 C 
ENDROOT
BRANCH   9  13
ATOM     11  N   UNL     1      34.177 -25.017 -13.630  0.00  0.00    -0.343 N 
ATOM     12  N   UNL     1      31.988 -24.215 -13.794  0.00  0.00    -0.285 NA
ATOM     13  C   UNL     1      33.208 -24.271 -14.299  0.00  0.00    +0.117 C 
ATOM     14  H   UNL     1      33.947 -25.488 -12.797  0.00  0.00    +0.144 HD
ATOM     15  H   UNL     1      35.091 -25.073 -13.992  0.00  0.00    +0.144 HD
ATOM     16  H   UNL     1      31.779 -24.693 -12.959  0.00  0.00    +0.188 HD
ENDBRANCH   9  13
BRANCH   1  17
ATOM     17  C   UNL     1      36.037 -20.373 -20.623  0.00  0.00    +0.027 C 
ATOM     18  C   UNL     1      35.643 -18.936 -20.761  0.00  0.00    +0.027 C 
ATOM     19  C   UNL     1      37.089 -19.308 -20.612  0.00  0.00    +0.009 C 
BRANCH  18  20
ATOM     20  C   UNL     1      35.150 -18.440 -22.070  0.00  0.00    -0.022 C 
ATOM     21  C   UNL     1      35.307 -17.095 -22.417  0.00  0.00    -0.004 C 
ATOM     22  C   UNL     1      34.524 -19.314 -22.963  0.00  0.00    -0.004 C 
ATOM     23  C   UNL     1      34.841 -16.628 -23.647  0.00  0.00    -0.000 C 
ATOM     24  C   UNL     1      34.058 -18.848 -24.192  0.00  0.00    -0.000 C 
ATOM     25  C   UNL     1      34.216 -17.505 -24.534  0.00  0.00    -0.000 C 
ENDBRANCH  18  20
ENDBRANCH   1  17
TORSDOF 3
ENDMDL
MODEL 3
REMARK VINA RESULT:     -11.1      1.080      2.259
REMARK  Name = 448841
REMARK  3 active torsions:
REMARK  status: ('A' for Active; 'I' for Inactive)
REMARK    1  A    between atoms: C_1  and  C_17
REMARK    2  A    between atoms: C_9  and  C_13
REMARK    3  A    between atoms: C_18  and  C_20
REMARK                            x       y       z     vdW  Elec       q    Type
REMARK                         _______ _______ _______ _____ _____    ______ ____
ROOT
ATOM      1  C   UNL     1      34.780 -20.243 -20.582  0.00  0.00    -0.022 C 
ATOM      2  C   UNL     1      33.748 -20.877 -19.891  0.00  0.00    -0.004 C 
ATOM      3  C   UNL     1      36.091 -20.349 -20.128  0.00  0.00    -0.004 C 
ATOM      4  C   UNL     1      34.015 -21.627 -18.734  0.00  0.00    -0.000 C 
ATOM      5  C   UNL     1      36.375 -21.090 -18.979  0.00  0.00    -0.000 C 
ATOM      6  C   UNL     1      35.348 -21.736 -18.271  0.00  0.00    +0.000 C 
ATOM      7  C   UNL     1      32.988 -22.272 -18.025  0.00  0.00    +0.000 C 
ATOM      8  C   UNL     1      35.616 -22.485 -17.115  0.00  0.00    +0.003 C 
ATOM      9  C   UNL     1      34.584 -23.121 -16.423  0.00  0.00    +0.031 C 
ATOM     10  C   UNL     1      33.272 -23.014 -16.878  0.00  0.00    +0.003 C 
ENDROOT
BRANCH   9  13
ATOM     11  N   UNL     1      34.549 -23.420 -13.958  0.00  0.00    -0.343 N 
ATOM     12  N   UNL     1      35.471 -25.069 -15.333  0.00  0.00    -0.285 NA
ATOM     13  C   UNL     1      34.877 -23.894 -15.228  0.00  0.00    +0.117 C 
ATOM     14  H   UNL     1      34.757 -23.960 -13.162  0.00  0.00    +0.144 HD
ATOM     15  H   UNL     1      34.109 -22.545 -13.859  0.00  0.00    +0.144 HD
ATOM     16  H   UNL     1      35.670 -25.594 -14.524  0.00  0.00    +0.188 HD
ENDBRANCH   9  13
BRANCH   1  17
ATOM     17  C   UNL     1      34.479 -19.451 -21.807  0.00  0.00    +0.027 C 
ATOM     18  C   UNL     1      35.460 -18.421 -22.272  0.00  0.00    +0.027 C 
ATOM     19  C   UNL     1      35.280 -19.692 -23.048  0.00  0.00    +0.009 C 
BRANCH  18  20
ATOM     20  C   UNL     1      34.959 -17.144 -22.840  0.00  0.00    -0.022 C 
ATOM     21  C   UNL     1      34.916 -15.991 -22.051  0.00  0.00    -0.004 C 
ATOM     22  C   UNL     1      34.525 -17.087 -24.168  0.00  0.00    -0.004 C 
ATOM     23  C   UNL     1      34.443 -14.792 -22.584  0.00  0.00    -0.000 C 
ATOM     24  C   UNL     1      34.051 -15.888 -24.701  0.00  0.00    -0.000 C 
ATOM     25  C   UNL     1      34.010 -14.741 -23.908  0.00  0.00    -0.000 C 
ENDBRANCH  18  20
ENDBRANCH   1  17
TORSDOF 3
ENDMDL
MODEL 4
REMARK VINA RESULT:     -11.0      3.713      8.741
REMARK  Name = 448841
REMARK  3 active torsions:
REMARK  status: ('A' for Active; 'I' for Inactive)
REMARK    1  A    between atoms: C_1  and  C_17
REMARK    2  A    between atoms: C_9  and  C_13
REMARK    3  A    between atoms: C_18  and  C_20
REMARK                            x       y       z     vdW  Elec       q    Type
REMARK                         _______ _______ _______ _____ _____    ______ ____
ROOT
ATOM      1  C   UNL     1      34.119 -22.764 -17.269  0.00  0.00    -0.022 C 
ATOM      2  C   UNL     1      35.310 -22.256 -17.785  0.00  0.00    -0.004 C 
ATOM      3  C   UNL     1      32.903 -22.420 -17.853  0.00  0.00    -0.004 C 
ATOM      4  C   UNL     1      35.302 -21.395 -18.895  0.00  0.00    -0.000 C 
ATOM      5  C   UNL     1      32.876 -21.566 -18.957  0.00  0.00    -0.000 C 
ATOM      6  C   UNL     1      34.066 -21.045 -19.490  0.00  0.00    +0.000 C 
ATOM      7  C   UNL     1      36.492 -20.873 -19.427  0.00  0.00    +0.000 C 
ATOM      8  C   UNL     1      34.057 -20.185 -20.599  0.00  0.00    +0.003 C 
ATOM      9  C   UNL     1      35.249 -19.676 -21.116  0.00  0.00    +0.031 C 
ATOM     10  C   UNL     1      36.464 -20.021 -20.531  0.00  0.00    +0.003 C 
ENDROOT
BRANCH   9  13
ATOM     11  N   UNL     1      36.141 -17.747 -22.399  0.00  0.00    -0.343 N 
ATOM     12  N   UNL     1      34.312 -18.956 -23.209  0.00  0.00    -0.285 NA
ATOM     13  C   UNL     1      35.223 -18.787 -22.266  0.00  0.00    +0.117 C 
ATOM     14  H   UNL     1      36.105 -17.156 -23.186  0.00  0.00    +0.144 HD
ATOM     15  H   UNL     1      36.825 -17.602 -21.707  0.00  0.00    +0.144 HD
ATOM     16  H   UNL     1      34.293 -18.355 -23.988  0.00  0.00    +0.188 HD
ENDBRANCH   9  13
BRANCH   1  17
ATOM     17  C   UNL     1      34.146 -23.675 -16.090  0.00  0.00    +0.027 C 
ATOM     18  C   UNL     1      34.739 -23.190 -14.804  0.00  0.00    +0.027 C 
ATOM     19  C   UNL     1      33.255 -23.385 -14.922  0.00  0.00    +0.009 C 
BRANCH  18  20
ATOM     20  C   UNL     1      35.531 -24.129 -13.971  0.00  0.00    -0.022 C 
ATOM     21  C   UNL     1      36.153 -25.236 -14.556  0.00  0.00    -0.004 C 
ATOM     22  C   UNL     1      35.661 -23.912 -12.596  0.00  0.00    -0.004 C 
ATOM     23  C   UNL     1      36.896 -26.120 -13.773  0.00  0.00    -0.000 C 
ATOM     24  C   UNL     1      36.404 -24.795 -11.812  0.00  0.00    -0.000 C 
ATOM     25  C   UNL     1      37.021 -25.899 -12.401  0.00  0.00    -0.000 C 
ENDBRANCH  18  20
ENDBRANCH   1  17
TORSDOF 3
ENDMDL
MODEL 5
REMARK VINA RESULT:     -10.6      5.733      9.898
REMARK  Name = 448841
REMARK  3 active torsions:
REMARK  status: ('A' for Active; 'I' for Inactive)
REMARK    1  A    between atoms: C_1  and  C_17
REMARK    2  A    between atoms: C_9  and  C_13
REMARK    3  A    between atoms: C_18  and  C_20
REMARK                            x       y       z     vdW  Elec       q    Type
REMARK                         _______ _______ _______ _____ _____    ______ ____
ROOT
ATOM      1  C   UNL     1      35.116 -17.159 -21.861  0.00  0.00    -0.022 C 
ATOM      2  C   UNL     1      34.858 -15.845 -21.471  0.00  0.00    -0.004 C 
ATOM      3  C   UNL     1      35.003 -17.524 -23.199  0.00  0.00    -0.004 C 
ATOM      4  C   UNL     1      34.483 -14.877 -22.417  0.00  0.00    -0.000 C 
ATOM      5  C   UNL     1      34.631 -16.575 -24.153  0.00  0.00    -0.000 C 
ATOM      6  C   UNL     1      34.368 -15.247 -23.779  0.00  0.00    +0.000 C 
ATOM      7  C   UNL     1      34.219 -13.550 -22.043  0.00  0.00    +0.000 C 
ATOM      8  C   UNL     1      33.992 -14.281 -24.724  0.00  0.00    +0.003 C 
ATOM      9  C   UNL     1      33.734 -12.965 -24.335  0.00  0.00    +0.031 C 
ATOM     10  C   UNL     1      33.848 -12.601 -22.996  0.00  0.00    +0.003 C 
ENDROOT
BRANCH   9  13
ATOM     11  N   UNL     1      33.105 -12.333 -26.652  0.00  0.00    -0.343 N 
ATOM     12  N   UNL     1      33.224 -10.707 -24.978  0.00  0.00    -0.285 NA
ATOM     13  C   UNL     1      33.348 -11.976 -25.327  0.00  0.00    +0.117 C 
ATOM     14  H   UNL     1      32.844 -11.647 -27.307  0.00  0.00    +0.144 HD
ATOM     15  H   UNL     1      33.195 -13.273 -26.932  0.00  0.00    +0.144 HD
ATOM     16  H   UNL     1      32.962 -10.036 -25.649  0.00  0.00    +0.188 HD
ENDBRANCH   9  13
BRANCH   1  17
ATOM     17  C   UNL     1      35.512 -18.173 -20.844  0.00  0.00    +0.027 C 
ATOM     18  C   UNL     1      35.358 -19.628 -21.162  0.00  0.00    +0.027 C 
ATOM     19  C   UNL     1      36.726 -19.015 -21.087  0.00  0.00    +0.009 C 
BRANCH  18  20
ATOM     20  C   UNL     1      34.920 -20.562 -20.095  0.00  0.00    -0.022 C 
ATOM     21  C   UNL     1      33.558 -20.755 -19.845  0.00  0.00    -0.004 C 
ATOM     22  C   UNL     1      35.865 -21.254 -19.333  0.00  0.00    -0.004 C 
ATOM     23  C   UNL     1      33.145 -21.631 -18.841  0.00  0.00    -0.000 C 
ATOM     24  C   UNL     1      35.454 -22.130 -18.329  0.00  0.00    -0.000 C 
ATOM     25  C   UNL     1      34.093 -22.318 -18.083  0.00  0.00    -0.000 C 
ENDBRANCH  18  20
ENDBRANCH   1  17
TORSDOF 3
ENDMDL
MODEL 6
REMARK VINA RESULT:     -10.5      5.610      9.738
REMARK  Name = 448841
REMARK  3 active torsions:
REMARK  status: ('A' for Active; 'I' for Inactive)
REMARK    1  A    between atoms: C_1  and  C_17
REMARK    2  A    between atoms: C_9  and  C_13
REMARK    3  A    between atoms: C_18  and  C_20
REMARK                            x       y       z     vdW  Elec       q    Type
REMARK                         _______ _______ _______ _____ _____    ______ ____
ROOT
ATOM      1  C   UNL     1      34.992 -17.270 -22.747  0.00  0.00    -0.022 C 
ATOM      2  C   UNL     1      34.861 -16.205 -21.857  0.00  0.00    -0.004 C 
ATOM      3  C   UNL     1      34.703 -17.090 -24.097  0.00  0.00    -0.004 C 
ATOM      4  C   UNL     1      34.438 -14.943 -22.306  0.00  0.00    -0.000 C 
ATOM      5  C   UNL     1      34.281 -15.842 -24.560  0.00  0.00    -0.000 C 
ATOM      6  C   UNL     1      34.144 -14.759 -23.678  0.00  0.00    +0.000 C 
ATOM      7  C   UNL     1      34.300 -13.859 -21.423  0.00  0.00    +0.000 C 
ATOM      8  C   UNL     1      33.722 -13.498 -24.128  0.00  0.00    +0.003 C 
ATOM      9  C   UNL     1      33.591 -12.431 -23.237  0.00  0.00    +0.031 C 
ATOM     10  C   UNL     1      33.880 -12.612 -21.887  0.00  0.00    +0.003 C 
ENDROOT
BRANCH   9  13
ATOM     11  N   UNL     1      32.418 -10.268 -22.907  0.00  0.00    -0.343 N 
ATOM     12  N   UNL     1      33.447 -10.751 -24.949  0.00  0.00    -0.285 NA
ATOM     13  C   UNL     1      33.153 -11.132 -23.718  0.00  0.00    +0.117 C 
ATOM     14  H   UNL     1      32.131  -9.392 -23.253  0.00  0.00    +0.144 HD
ATOM     15  H   UNL     1      32.186 -10.534 -21.988  0.00  0.00    +0.144 HD
ATOM     16  H   UNL     1      33.151  -9.871 -25.276  0.00  0.00    +0.188 HD
ENDBRANCH   9  13
BRANCH   1  17
ATOM     17  C   UNL     1      35.441 -18.602 -22.254  0.00  0.00    +0.027 C 
ATOM     18  C   UNL     1      34.438 -19.534 -21.647  0.00  0.00    +0.027 C 
ATOM     19  C   UNL     1      35.024 -19.834 -22.996  0.00  0.00    +0.009 C 
BRANCH  18  20
ATOM     20  C   UNL     1      34.832 -20.364 -20.482  0.00  0.00    -0.022 C 
ATOM     21  C   UNL     1      36.175 -20.460 -20.107  0.00  0.00    -0.004 C 
ATOM     22  C   UNL     1      33.862 -21.058 -19.752  0.00  0.00    -0.004 C 
ATOM     23  C   UNL     1      36.546 -21.243 -19.013  0.00  0.00    -0.000 C 
ATOM     24  C   UNL     1      34.232 -21.841 -18.658  0.00  0.00    -0.000 C 
ATOM     25  C   UNL     1      35.574 -21.933 -18.290  0.00  0.00    -0.000 C 
ENDBRANCH  18  20
ENDBRANCH   1  17
TORSDOF 3
ENDMDL
MODEL 7
REMARK VINA RESULT:     -10.1      5.757      9.130
REMARK  Name = 448841
REMARK  3 active torsions:
REMARK  status: ('A' for Active; 'I' for Inactive)
REMARK    1  A    between atoms: C_1  and  C_17
REMARK    2  A    between atoms: C_9  and  C_13
REMARK    3  A    between atoms: C_18  and  C_20
REMARK                            x       y       z     vdW  Elec       q    Type
REMARK                         _______ _______ _______ _____ _____    ______ ____
ROOT
ATOM      1  C   UNL     1      33.738 -13.032 -22.781  0.00  0.00    -0.022 C 
ATOM      2  C   UNL     1      34.111 -14.145 -23.534  0.00  0.00    -0.004 C 
ATOM      3  C   UNL     1      33.788 -13.082 -21.391  0.00  0.00    -0.004 C 
ATOM      4  C   UNL     1      34.539 -15.325 -22.905  0.00  0.00    -0.000 C 
ATOM      5  C   UNL     1      34.211 -14.248 -20.749  0.00  0.00    -0.000 C 
ATOM      6  C   UNL     1      34.590 -15.378 -21.491  0.00  0.00    +0.000 C 
ATOM      7  C   UNL     1      34.917 -16.456 -23.647  0.00  0.00    +0.000 C 
ATOM      8  C   UNL     1      35.017 -16.557 -20.862  0.00  0.00    +0.003 C 
ATOM      9  C   UNL     1      35.390 -17.671 -21.615  0.00  0.00    +0.031 C 
ATOM     10  C   UNL     1      35.340 -17.620 -23.005  0.00  0.00    +0.003 C 
ENDROOT
BRANCH   9  13
ATOM     11  N   UNL     1      37.052 -18.942 -20.277  0.00  0.00    -0.343 N 
ATOM     12  N   UNL     1      35.071 -19.966 -20.976  0.00  0.00    -0.285 NA
ATOM     13  C   UNL     1      35.831 -18.885 -20.949  0.00  0.00    +0.117 C 
ATOM     14  H   UNL     1      37.331 -19.775 -19.833  0.00  0.00    +0.144 HD
ATOM     15  H   UNL     1      37.634 -18.149 -20.248  0.00  0.00    +0.144 HD
ATOM     16  H   UNL     1      35.368 -20.789 -20.525  0.00  0.00    +0.188 HD
ENDBRANCH   9  13
BRANCH   1  17
ATOM     17  C   UNL     1      33.286 -11.788 -23.465  0.00  0.00    +0.027 C 
ATOM     18  C   UNL     1      34.283 -10.710 -23.757  0.00  0.00    +0.027 C 
ATOM     19  C   UNL     1      33.715 -11.533 -24.877  0.00  0.00    +0.009 C 
BRANCH  18  20
ATOM     20  C   UNL     1      33.877  -9.289 -23.621  0.00  0.00    -0.022 C 
ATOM     21  C   UNL     1      34.837  -8.274 -23.679  0.00  0.00    -0.004 C 
ATOM     22  C   UNL     1      32.532  -8.956 -23.432  0.00  0.00    -0.004 C 
ATOM     23  C   UNL     1      34.456  -6.938 -23.548  0.00  0.00    -0.000 C 
ATOM     24  C   UNL     1      32.151  -7.620 -23.301  0.00  0.00    -0.000 C 
ATOM     25  C   UNL     1      33.113  -6.612 -23.359  0.00  0.00    -0.000 C 
ENDBRANCH  18  20
ENDBRANCH   1  17
TORSDOF 3
ENDMDL
MODEL 8
REMARK VINA RESULT:     -10.1      9.133     13.558
REMARK  Name = 448841
REMARK  3 active torsions:
REMARK  status: ('A' for Active; 'I' for Inactive)
REMARK    1  A    between atoms: C_1  and  C_17
REMARK    2  A    between atoms: C_9  and  C_13
REMARK    3  A    between atoms: C_18  and  C_20
REMARK                            x       y       z     vdW  Elec       q    Type
REMARK                         _______ _______ _______ _____ _____    ______ ____
ROOT
ATOM      1  C   UNL     1      33.387 -10.777 -23.357  0.00  0.00    -0.022 C 
ATOM      2  C   UNL     1      33.917  -9.533 -23.699  0.00  0.00    -0.004 C 
ATOM      3  C   UNL     1      32.290 -10.856 -22.504  0.00  0.00    -0.004 C 
ATOM      4  C   UNL     1      33.357  -8.350 -23.191  0.00  0.00    -0.000 C 
ATOM      5  C   UNL     1      31.720  -9.690 -21.990  0.00  0.00    -0.000 C 
ATOM      6  C   UNL     1      32.241  -8.430 -22.323  0.00  0.00    +0.000 C 
ATOM      7  C   UNL     1      33.878  -7.090 -23.523  0.00  0.00    +0.000 C 
ATOM      8  C   UNL     1      31.680  -7.248 -21.815  0.00  0.00    +0.003 C 
ATOM      9  C   UNL     1      32.211  -6.003 -22.157  0.00  0.00    +0.031 C 
ATOM     10  C   UNL     1      33.308  -5.925 -23.010  0.00  0.00    +0.003 C 
ENDROOT
BRANCH   9  13
ATOM     11  N   UNL     1      31.833  -3.550 -22.226  0.00  0.00    -0.343 N 
ATOM     12  N   UNL     1      30.862  -4.845 -20.540  0.00  0.00    -0.285 NA
ATOM     13  C   UNL     1      31.618  -4.788 -21.622  0.00  0.00    +0.117 C 
ATOM     14  H   UNL     1      31.421  -2.740 -21.847  0.00  0.00    +0.144 HD
ATOM     15  H   UNL     1      32.395  -3.486 -23.031  0.00  0.00    +0.144 HD
ATOM     16  H   UNL     1      30.459  -4.023 -20.177  0.00  0.00    +0.188 HD
ENDBRANCH   9  13
BRANCH   1  17
ATOM     17  C   UNL     1      33.995 -12.022 -23.905  0.00  0.00    +0.027 C 
ATOM     18  C   UNL     1      33.175 -13.273 -23.962  0.00  0.00    +0.027 C 
ATOM     19  C   UNL     1      33.524 -12.544 -25.227  0.00  0.00    +0.009 C 
BRANCH  18  20
ATOM     20  C   UNL     1      33.820 -14.578 -23.673  0.00  0.00    -0.022 C 
ATOM     21  C   UNL     1      34.438 -14.799 -22.438  0.00  0.00    -0.004 C 
ATOM     22  C   UNL     1      33.815 -15.594 -24.633  0.00  0.00    -0.004 C 
ATOM     23  C   UNL     1      35.047 -16.024 -22.167  0.00  0.00    -0.000 C 
ATOM     24  C   UNL     1      34.423 -16.820 -24.362  0.00  0.00    -0.000 C 
ATOM     25  C   UNL     1      35.039 -17.034 -23.129  0.00  0.00    -0.000 C 
ENDBRANCH  18  20
ENDBRANCH   1  17
TORSDOF 3
ENDMDL
MODEL 9
REMARK VINA RESULT:     -10.0      7.496     11.453
REMARK  Name = 448841
REMARK  3 active torsions:
REMARK  status: ('A' for Active; 'I' for Inactive)
REMARK    1  A    between atoms: C_1  and  C_17
REMARK    2  A    between atoms: C_9  and  C_13
REMARK    3  A    between atoms: C_18  and  C_20
REMARK                            x       y       z     vdW  Elec       q    Type
REMARK                         _______ _______ _______ _____ _____    ______ ____
ROOT
ATOM      1  C   UNL     1      33.435 -10.922 -24.245  0.00  0.00    -0.022 C 
ATOM      2  C   UNL     1      33.810 -11.721 -23.166  0.00  0.00    -0.004 C 
ATOM      3  C   UNL     1      33.237 -11.492 -25.500  0.00  0.00    -0.004 C 
ATOM      4  C   UNL     1      33.992 -13.105 -23.327  0.00  0.00    -0.000 C 
ATOM      5  C   UNL     1      33.413 -12.865 -25.678  0.00  0.00    -0.000 C 
ATOM      6  C   UNL     1      33.790 -13.685 -24.603  0.00  0.00    +0.000 C 
ATOM      7  C   UNL     1      34.370 -13.925 -22.252  0.00  0.00    +0.000 C 
ATOM      8  C   UNL     1      33.971 -15.068 -24.765  0.00  0.00    +0.003 C 
ATOM      9  C   UNL     1      34.346 -15.869 -23.685  0.00  0.00    +0.031 C 
ATOM     10  C   UNL     1      34.544 -15.298 -22.431  0.00  0.00    +0.003 C 
ENDROOT
BRANCH   9  13
ATOM     11  N   UNL     1      35.469 -18.011 -23.126  0.00  0.00    -0.343 N 
ATOM     12  N   UNL     1      33.799 -17.947 -24.759  0.00  0.00    -0.285 NA
ATOM     13  C   UNL     1      34.529 -17.299 -23.869  0.00  0.00    +0.117 C 
ATOM     14  H   UNL     1      35.576 -18.980 -23.267  0.00  0.00    +0.144 HD
ATOM     15  H   UNL     1      36.025 -17.546 -22.460  0.00  0.00    +0.144 HD
ATOM     16  H   UNL     1      33.921 -18.916 -24.885  0.00  0.00    +0.188 HD
ENDBRANCH   9  13
BRANCH   1  17
ATOM     17  C   UNL     1      33.248  -9.456 -24.056  0.00  0.00    +0.027 C 
ATOM     18  C   UNL     1      33.578  -8.841 -22.732  0.00  0.00    +0.027 C 
ATOM     19  C   UNL     1      34.453  -8.577 -23.922  0.00  0.00    +0.009 C 
BRANCH  18  20
ATOM     20  C   UNL     1      32.720  -7.751 -22.204  0.00  0.00    -0.022 C 
ATOM     21  C   UNL     1      33.014  -7.157 -20.973  0.00  0.00    -0.004 C 
ATOM     22  C   UNL     1      31.611  -7.311 -22.933  0.00  0.00    -0.004 C 
ATOM     23  C   UNL     1      32.206  -6.134 -20.475  0.00  0.00    -0.000 C 
ATOM     24  C   UNL     1      30.803  -6.289 -22.436  0.00  0.00    -0.000 C 
ATOM     25  C   UNL     1      31.101  -5.701 -21.207  0.00  0.00    -0.000 C 
ENDBRANCH  18  20
ENDBRANCH   1  17
TORSDOF 3
ENDMDL
