MODEL 1
REMARK VINA RESULT:     -13.2      0.000      0.000
REMARK  Name = 11167118
REMARK  6 active torsions:
REMARK  status: ('A' for Active; 'I' for Inactive)
REMARK    1  A    between atoms: N_2  and  C_6
REMARK    2  A    between atoms: N_2  and  C_15
REMARK    3  A    between atoms: C_8  and  O_25
REMARK    4  A    between atoms: C_17  and  C_24
REMARK    5  A    between atoms: O_25  and  C_27
REMARK    6  A    between atoms: C_30  and  C_34
REMARK                            x       y       z     vdW  Elec       q    Type
REMARK                         _______ _______ _______ _____ _____    ______ ____
ROOT
ATOM      1  N   UNL     1      33.378 -21.179 -19.520  0.00  0.00    -0.302 N 
ATOM      2  N   UNL     1      35.075 -22.248 -18.561  0.00  0.00    -0.302 N 
ATOM      3  C   UNL     1      34.506 -20.511 -19.922  0.00  0.00    +0.063 C 
ATOM      4  C   UNL     1      35.551 -21.197 -19.310  0.00  0.00    +0.060 C 
ATOM      5  C   UNL     1      33.768 -22.208 -18.709  0.00  0.00    +0.225 C 
ATOM      6  C   UNL     1      34.697 -19.398 -20.743  0.00  0.00    +0.053 C 
ATOM      7  C   UNL     1      36.016 -18.980 -20.940  0.00  0.00    +0.147 C 
ATOM      8  C   UNL     1      36.871 -20.762 -19.518  0.00  0.00    +0.019 C 
ATOM      9  C   UNL     1      37.086 -19.648 -20.339  0.00  0.00    +0.039 C 
ATOM     10  H   UNL     1      32.453 -20.957 -19.771  0.00  0.00    +0.150 HD
ATOM     11  H   UNL     1      35.596 -22.891 -18.029  0.00  0.00    +0.150 HD
ENDROOT
BRANCH   5  12
ATOM     12  N   UNL     1      32.815 -23.012 -18.190  0.00  0.00    -0.303 N 
ATOM     13  H   UNL     1      32.375 -23.605 -18.841  0.00  0.00    +0.150 HD
BRANCH  12  15
ATOM     14 CL   UNL     1      30.894 -23.543 -12.610  0.00  0.00    -0.082 Cl
ATOM     15  C   UNL     1      32.344 -23.137 -16.853  0.00  0.00    +0.047 C 
ATOM     16  C   UNL     1      30.996 -22.947 -16.581  0.00  0.00    +0.019 C 
ATOM     17  C   UNL     1      30.535 -23.070 -15.270  0.00  0.00    +0.083 C 
ATOM     18  C   UNL     1      33.240 -23.448 -15.839  0.00  0.00    +0.015 C 
ATOM     19  C   UNL     1      31.428 -23.382 -14.243  0.00  0.00    +0.062 C 
ATOM     20  C   UNL     1      32.780 -23.570 -14.528  0.00  0.00    +0.013 C 
BRANCH  17  24
ATOM     21  F   UNL     1      28.468 -23.995 -14.588  0.00  0.00    -0.166 F 
ATOM     22  F   UNL     1      28.857 -21.924 -14.053  0.00  0.00    -0.166 F 
ATOM     23  F   UNL     1      28.436 -22.449 -16.126  0.00  0.00    -0.166 F 
ATOM     24  C   UNL     1      29.079 -22.861 -15.007  0.00  0.00    +0.419 C 
ENDBRANCH  17  24
ENDBRANCH  12  15
ENDBRANCH   5  12
BRANCH   7  25
ATOM     25  O   UNL     1      36.263 -17.898 -21.732  0.00  0.00    -0.453 OA
BRANCH  25  27
ATOM     26  N   UNL     1      33.601 -17.133 -24.831  0.00  0.00    -0.239 NA
ATOM     27  C   UNL     1      35.377 -17.643 -22.764  0.00  0.00    +0.149 C 
ATOM     28  C   UNL     1      35.063 -16.337 -23.077  0.00  0.00    +0.061 C 
ATOM     29  C   UNL     1      34.827 -18.700 -23.458  0.00  0.00    +0.058 C 
ATOM     30  C   UNL     1      34.171 -16.135 -24.118  0.00  0.00    +0.137 C 
ATOM     31  C   UNL     1      33.945 -18.393 -24.481  0.00  0.00    +0.102 C 
BRANCH  30  34
ATOM     32  O   UNL     1      33.408 -14.547 -25.665  0.00  0.00    -0.268 OA
ATOM     33  N   UNL     1      33.857 -13.798 -23.518  0.00  0.00    -0.298 N 
ATOM     34  C   UNL     1      33.792 -14.787 -24.506  0.00  0.00    +0.264 C 
ATOM     35  C   UNL     1      33.492 -12.417 -23.742  0.00  0.00    +0.111 C 
ATOM     36  H   UNL     1      34.170 -14.057 -22.620  0.00  0.00    +0.150 HD
ENDBRANCH  30  34
ENDBRANCH  25  27
ENDBRANCH   7  25
TORSDOF 6
ENDMDL
MODEL 2
REMARK VINA RESULT:     -12.9      1.885      2.329
REMARK  Name = 11167118
REMARK  6 active torsions:
REMARK  status: ('A' for Active; 'I' for Inactive)
REMARK    1  A    between atoms: N_2  and  C_6
REMARK    2  A    between atoms: N_2  and  C_15
REMARK    3  A    between atoms: C_8  and  O_25
REMARK    4  A    between atoms: C_17  and  C_24
REMARK    5  A    between atoms: O_25  and  C_27
REMARK    6  A    between atoms: C_30  and  C_34
REMARK                            x       y       z     vdW  Elec       q    Type
REMARK                         _______ _______ _______ _____ _____    ______ ____
ROOT
ATOM      1  N   UNL     1      32.844 -21.284 -19.238  0.00  0.00    -0.302 N 
ATOM      2  N   UNL     1      34.326 -22.416 -18.029  0.00  0.00    -0.302 N 
ATOM      3  C   UNL     1      34.072 -20.823 -19.639  0.00  0.00    +0.063 C 
ATOM      4  C   UNL     1      34.980 -21.545 -18.869  0.00  0.00    +0.060 C 
ATOM      5  C   UNL     1      33.047 -22.233 -18.276  0.00  0.00    +0.225 C 
ATOM      6  C   UNL     1      34.455 -19.866 -20.580  0.00  0.00    +0.053 C 
ATOM      7  C   UNL     1      35.828 -19.647 -20.732  0.00  0.00    +0.147 C 
ATOM      8  C   UNL     1      36.356 -21.312 -19.035  0.00  0.00    +0.019 C 
ATOM      9  C   UNL     1      36.763 -20.356 -19.975  0.00  0.00    +0.039 C 
ATOM     10  H   UNL     1      31.972 -20.983 -19.582  0.00  0.00    +0.150 HD
ATOM     11  H   UNL     1      34.727 -23.041 -17.382  0.00  0.00    +0.150 HD
ENDROOT
BRANCH   5  12
ATOM     12  N   UNL     1      31.967 -22.832 -17.729  0.00  0.00    -0.303 N 
ATOM     13  H   UNL     1      31.298 -23.150 -18.377  0.00  0.00    +0.150 HD
BRANCH  12  15
ATOM     14 CL   UNL     1      30.576 -23.837 -12.057  0.00  0.00    -0.082 Cl
ATOM     15  C   UNL     1      31.642 -23.077 -16.364  0.00  0.00    +0.047 C 
ATOM     16  C   UNL     1      32.616 -23.568 -15.506  0.00  0.00    +0.019 C 
ATOM     17  C   UNL     1      32.298 -23.808 -14.169  0.00  0.00    +0.083 C 
ATOM     18  C   UNL     1      30.355 -22.821 -15.912  0.00  0.00    +0.015 C 
ATOM     19  C   UNL     1      31.007 -23.554 -13.704  0.00  0.00    +0.062 C 
ATOM     20  C   UNL     1      30.036 -23.061 -14.575  0.00  0.00    +0.013 C 
BRANCH  17  24
ATOM     21  F   UNL     1      33.754 -23.421 -12.347  0.00  0.00    -0.166 F 
ATOM     22  F   UNL     1      32.968 -25.434 -12.583  0.00  0.00    -0.166 F 
ATOM     23  F   UNL     1      34.470 -24.684 -13.974  0.00  0.00    -0.166 F 
ATOM     24  C   UNL     1      33.367 -24.335 -13.269  0.00  0.00    +0.419 C 
ENDBRANCH  17  24
ENDBRANCH  12  15
ENDBRANCH   5  12
BRANCH   7  25
ATOM     25  O   UNL     1      36.260 -18.723 -21.637  0.00  0.00    -0.453 OA
BRANCH  25  27
ATOM     26  N   UNL     1      33.718 -17.769 -24.783  0.00  0.00    -0.239 NA
ATOM     27  C   UNL     1      35.414 -18.406 -22.684  0.00  0.00    +0.149 C 
ATOM     28  C   UNL     1      35.163 -17.080 -22.970  0.00  0.00    +0.061 C 
ATOM     29  C   UNL     1      34.841 -19.420 -23.420  0.00  0.00    +0.058 C 
ATOM     30  C   UNL     1      34.308 -16.814 -24.028  0.00  0.00    +0.137 C 
ATOM     31  C   UNL     1      34.000 -19.051 -24.458  0.00  0.00    +0.102 C 
BRANCH  30  34
ATOM     32  O   UNL     1      33.707 -15.148 -25.564  0.00  0.00    -0.268 OA
ATOM     33  N   UNL     1      34.011 -14.494 -23.361  0.00  0.00    -0.298 N 
ATOM     34  C   UNL     1      33.995 -15.443 -24.390  0.00  0.00    +0.264 C 
ATOM     35  C   UNL     1      33.700 -13.095 -23.557  0.00  0.00    +0.111 C 
ATOM     36  H   UNL     1      34.248 -14.795 -22.454  0.00  0.00    +0.150 HD
ENDBRANCH  30  34
ENDBRANCH  25  27
ENDBRANCH   7  25
TORSDOF 6
ENDMDL
MODEL 3
REMARK VINA RESULT:     -12.8      5.468     10.358
REMARK  Name = 11167118
REMARK  6 active torsions:
REMARK  status: ('A' for Active; 'I' for Inactive)
REMARK    1  A    between atoms: N_2  and  C_6
REMARK    2  A    between atoms: N_2  and  C_15
REMARK    3  A    between atoms: C_8  and  O_25
REMARK    4  A    between atoms: C_17  and  C_24
REMARK    5  A    between atoms: O_25  and  C_27
REMARK    6  A    between atoms: C_30  and  C_34
REMARK                            x       y       z     vdW  Elec       q    Type
REMARK                         _______ _______ _______ _____ _____    ______ ____
ROOT
ATOM      1  N   UNL     1      34.456 -19.668 -20.988  0.00  0.00    -0.302 N 
ATOM      2  N   UNL     1      36.493 -20.006 -20.166  0.00  0.00    -0.302 N 
ATOM      3  C   UNL     1      34.303 -20.613 -20.007  0.00  0.00    +0.063 C 
ATOM      4  C   UNL     1      35.589 -20.807 -19.509  0.00  0.00    +0.060 C 
ATOM      5  C   UNL     1      35.781 -19.336 -21.046  0.00  0.00    +0.225 C 
ATOM      6  C   UNL     1      33.184 -21.296 -19.526  0.00  0.00    +0.053 C 
ATOM      7  C   UNL     1      33.402 -22.211 -18.492  0.00  0.00    +0.147 C 
ATOM      8  C   UNL     1      35.789 -21.731 -18.471  0.00  0.00    +0.019 C 
ATOM      9  C   UNL     1      34.681 -22.427 -17.972  0.00  0.00    +0.039 C 
ATOM     10  H   UNL     1      33.739 -19.295 -21.551  0.00  0.00    +0.150 HD
ATOM     11  H   UNL     1      37.464 -19.945 -20.013  0.00  0.00    +0.150 HD
ENDROOT
BRANCH   5  12
ATOM     12  N   UNL     1      36.171 -18.412 -21.951  0.00  0.00    -0.303 N 
ATOM     13  H   UNL     1      37.115 -18.470 -22.221  0.00  0.00    +0.150 HD
BRANCH  12  15
ATOM     14 CL   UNL     1      33.099 -14.084 -24.588  0.00  0.00    -0.082 Cl
ATOM     15  C   UNL     1      35.433 -17.367 -22.575  0.00  0.00    +0.047 C 
ATOM     16  C   UNL     1      35.144 -16.212 -21.862  0.00  0.00    +0.019 C 
ATOM     17  C   UNL     1      34.421 -15.188 -22.475  0.00  0.00    +0.083 C 
ATOM     18  C   UNL     1      35.013 -17.518 -23.890  0.00  0.00    +0.015 C 
ATOM     19  C   UNL     1      33.994 -15.330 -23.796  0.00  0.00    +0.062 C 
ATOM     20  C   UNL     1      34.290 -16.495 -24.503  0.00  0.00    +0.013 C 
BRANCH  17  24
ATOM     21  F   UNL     1      34.550 -12.832 -22.311  0.00  0.00    -0.166 F 
ATOM     22  F   UNL     1      32.800 -13.796 -21.454  0.00  0.00    -0.166 F 
ATOM     23  F   UNL     1      34.738 -13.994 -20.475  0.00  0.00    -0.166 F 
ATOM     24  C   UNL     1      34.126 -13.955 -21.683  0.00  0.00    +0.419 C 
ENDBRANCH  17  24
ENDBRANCH  12  15
ENDBRANCH   5  12
BRANCH   7  25
ATOM     25  O   UNL     1      32.346 -22.908 -17.983  0.00  0.00    -0.453 OA
BRANCH  25  27
ATOM     26  N   UNL     1      32.166 -23.393 -13.860  0.00  0.00    -0.239 NA
ATOM     27  C   UNL     1      32.286 -23.069 -16.610  0.00  0.00    +0.149 C 
ATOM     28  C   UNL     1      33.406 -23.501 -15.932  0.00  0.00    +0.061 C 
ATOM     29  C   UNL     1      31.108 -22.794 -15.949  0.00  0.00    +0.058 C 
ATOM     30  C   UNL     1      33.295 -23.647 -14.559  0.00  0.00    +0.137 C 
ATOM     31  C   UNL     1      31.098 -22.972 -14.575  0.00  0.00    +0.102 C 
BRANCH  30  34
ATOM     32  O   UNL     1      35.353 -24.742 -14.311  0.00  0.00    -0.268 OA
ATOM     33  N   UNL     1      34.447 -23.755 -12.419  0.00  0.00    -0.298 N 
ATOM     34  C   UNL     1      34.432 -24.098 -13.776  0.00  0.00    +0.264 C 
ATOM     35  C   UNL     1      35.518 -24.111 -11.515  0.00  0.00    +0.111 C 
ATOM     36  H   UNL     1      33.686 -23.245 -12.059  0.00  0.00    +0.150 HD
ENDBRANCH  30  34
ENDBRANCH  25  27
ENDBRANCH   7  25
TORSDOF 6
ENDMDL
MODEL 4
REMARK VINA RESULT:     -12.7      1.317      1.770
REMARK  Name = 11167118
REMARK  6 active torsions:
REMARK  status: ('A' for Active; 'I' for Inactive)
REMARK    1  A    between atoms: N_2  and  C_6
REMARK    2  A    between atoms: N_2  and  C_15
REMARK    3  A    between atoms: C_8  and  O_25
REMARK    4  A    between atoms: C_17  and  C_24
REMARK    5  A    between atoms: O_25  and  C_27
REMARK    6  A    between atoms: C_30  and  C_34
REMARK                            x       y       z     vdW  Elec       q    Type
REMARK                         _______ _______ _______ _____ _____    ______ ____
ROOT
ATOM      1  N   UNL     1      33.617 -21.381 -19.803  0.00  0.00    -0.302 N 
ATOM      2  N   UNL     1      35.470 -21.876 -18.681  0.00  0.00    -0.302 N 
ATOM      3  C   UNL     1      34.573 -20.519 -20.276  0.00  0.00    +0.063 C 
ATOM      4  C   UNL     1      35.720 -20.848 -19.559  0.00  0.00    +0.060 C 
ATOM      5  C   UNL     1      34.200 -22.171 -18.853  0.00  0.00    +0.225 C 
ATOM      6  C   UNL     1      34.534 -19.509 -21.240  0.00  0.00    +0.053 C 
ATOM      7  C   UNL     1      35.726 -18.815 -21.472  0.00  0.00    +0.147 C 
ATOM      8  C   UNL     1      36.908 -20.139 -19.805  0.00  0.00    +0.019 C 
ATOM      9  C   UNL     1      36.893 -19.123 -20.769  0.00  0.00    +0.039 C 
ATOM     10  H   UNL     1      32.678 -21.422 -20.097  0.00  0.00    +0.150 HD
ATOM     11  H   UNL     1      36.103 -22.300 -18.057  0.00  0.00    +0.150 HD
ENDROOT
BRANCH   5  12
ATOM     12  N   UNL     1      33.440 -23.106 -18.243  0.00  0.00    -0.303 N 
ATOM     13  H   UNL     1      33.174 -23.861 -18.816  0.00  0.00    +0.150 HD
BRANCH  12  15
ATOM     14 CL   UNL     1      31.489 -23.395 -12.655  0.00  0.00    -0.082 Cl
ATOM     15  C   UNL     1      32.961 -23.174 -16.904  0.00  0.00    +0.047 C 
ATOM     16  C   UNL     1      31.599 -23.074 -16.658  0.00  0.00    +0.019 C 
ATOM     17  C   UNL     1      31.131 -23.141 -15.345  0.00  0.00    +0.083 C 
ATOM     18  C   UNL     1      33.865 -23.339 -15.863  0.00  0.00    +0.015 C 
ATOM     19  C   UNL     1      32.031 -23.307 -14.291  0.00  0.00    +0.062 C 
ATOM     20  C   UNL     1      33.398 -23.406 -14.551  0.00  0.00    +0.013 C 
BRANCH  17  24
ATOM     21  F   UNL     1      29.359 -22.086 -14.187  0.00  0.00    -0.166 F 
ATOM     22  F   UNL     1      28.980 -22.705 -16.236  0.00  0.00    -0.166 F 
ATOM     23  F   UNL     1      29.149 -24.204 -14.663  0.00  0.00    -0.166 F 
ATOM     24  C   UNL     1      29.659 -23.032 -15.110  0.00  0.00    +0.419 C 
ENDBRANCH  17  24
ENDBRANCH  12  15
ENDBRANCH   5  12
BRANCH   7  25
ATOM     25  O   UNL     1      35.747 -17.818 -22.402  0.00  0.00    -0.453 OA
BRANCH  25  27
ATOM     26  N   UNL     1      34.060 -14.168 -21.354  0.00  0.00    -0.239 NA
ATOM     27  C   UNL     1      35.185 -16.603 -22.053  0.00  0.00    +0.149 C 
ATOM     28  C   UNL     1      34.804 -15.726 -23.046  0.00  0.00    +0.061 C 
ATOM     29  C   UNL     1      35.017 -16.295 -20.720  0.00  0.00    +0.058 C 
ATOM     30  C   UNL     1      34.247 -14.522 -22.645  0.00  0.00    +0.137 C 
ATOM     31  C   UNL     1      34.451 -15.066 -20.422  0.00  0.00    +0.102 C 
BRANCH  30  34
ATOM     32  O   UNL     1      33.157 -13.899 -24.625  0.00  0.00    -0.268 OA
ATOM     33  N   UNL     1      34.171 -12.211 -23.402  0.00  0.00    -0.298 N 
ATOM     34  C   UNL     1      33.821 -13.546 -23.634  0.00  0.00    +0.264 C 
ATOM     35  C   UNL     1      33.802 -11.123 -24.280  0.00  0.00    +0.111 C 
ATOM     36  H   UNL     1      34.699 -12.001 -22.597  0.00  0.00    +0.150 HD
ENDBRANCH  30  34
ENDBRANCH  25  27
ENDBRANCH   7  25
TORSDOF 6
ENDMDL
MODEL 5
REMARK VINA RESULT:     -12.5      5.608     10.243
REMARK  Name = 11167118
REMARK  6 active torsions:
REMARK  status: ('A' for Active; 'I' for Inactive)
REMARK    1  A    between atoms: N_2  and  C_6
REMARK    2  A    between atoms: N_2  and  C_15
REMARK    3  A    between atoms: C_8  and  O_25
REMARK    4  A    between atoms: C_17  and  C_24
REMARK    5  A    between atoms: O_25  and  C_27
REMARK    6  A    between atoms: C_30  and  C_34
REMARK                            x       y       z     vdW  Elec       q    Type
REMARK                         _______ _______ _______ _____ _____    ______ ____
ROOT
ATOM      1  N   UNL     1      36.027 -20.030 -20.218  0.00  0.00    -0.302 N 
ATOM      2  N   UNL     1      33.948 -19.680 -20.919  0.00  0.00    -0.302 N 
ATOM      3  C   UNL     1      35.244 -20.876 -19.477  0.00  0.00    +0.063 C 
ATOM      4  C   UNL     1      33.950 -20.639 -19.933  0.00  0.00    +0.060 C 
ATOM      5  C   UNL     1      35.209 -19.337 -21.066  0.00  0.00    +0.225 C 
ATOM      6  C   UNL     1      35.546 -21.801 -18.475  0.00  0.00    +0.053 C 
ATOM      7  C   UNL     1      34.471 -22.507 -17.926  0.00  0.00    +0.147 C 
ATOM      8  C   UNL     1      32.882 -21.357 -19.370  0.00  0.00    +0.019 C 
ATOM      9  C   UNL     1      33.162 -22.291 -18.364  0.00  0.00    +0.039 C 
ATOM     10  H   UNL     1      37.005 -19.938 -20.152  0.00  0.00    +0.150 HD
ATOM     11  H   UNL     1      33.171 -19.327 -21.411  0.00  0.00    +0.150 HD
ENDROOT
BRANCH   5  12
ATOM     12  N   UNL     1      35.768 -18.435 -21.902  0.00  0.00    -0.303 N 
ATOM     13  H   UNL     1      36.735 -18.549 -22.046  0.00  0.00    +0.150 HD
BRANCH  12  15
ATOM     14 CL   UNL     1      33.329 -13.927 -24.876  0.00  0.00    -0.082 Cl
ATOM     15  C   UNL     1      35.182 -17.347 -22.607  0.00  0.00    +0.047 C 
ATOM     16  C   UNL     1      34.912 -16.162 -21.937  0.00  0.00    +0.019 C 
ATOM     17  C   UNL     1      34.338 -15.095 -22.629  0.00  0.00    +0.083 C 
ATOM     18  C   UNL     1      34.889 -17.486 -23.957  0.00  0.00    +0.015 C 
ATOM     19  C   UNL     1      34.039 -15.224 -23.986  0.00  0.00    +0.062 C 
ATOM     20  C   UNL     1      34.314 -16.420 -24.650  0.00  0.00    +0.013 C 
BRANCH  17  24
ATOM     21  F   UNL     1      34.547 -12.742 -22.523  0.00  0.00    -0.166 F 
ATOM     22  F   UNL     1      32.733 -13.618 -21.705  0.00  0.00    -0.166 F 
ATOM     23  F   UNL     1      34.626 -13.858 -20.651  0.00  0.00    -0.166 F 
ATOM     24  C   UNL     1      34.060 -13.831 -21.882  0.00  0.00    +0.419 C 
ENDBRANCH  17  24
ENDBRANCH  12  15
ENDBRANCH   5  12
BRANCH   7  25
ATOM     25  O   UNL     1      34.707 -23.424 -16.944  0.00  0.00    -0.453 OA
BRANCH  25  27
ATOM     26  N   UNL     1      31.992 -23.622 -13.804  0.00  0.00    -0.239 NA
ATOM     27  C   UNL     1      33.803 -23.490 -15.899  0.00  0.00    +0.149 C 
ATOM     28  C   UNL     1      32.457 -23.595 -16.177  0.00  0.00    +0.061 C 
ATOM     29  C   UNL     1      34.268 -23.450 -14.602  0.00  0.00    +0.058 C 
ATOM     30  C   UNL     1      31.592 -23.658 -15.095  0.00  0.00    +0.137 C 
ATOM     31  C   UNL     1      33.323 -23.519 -13.590  0.00  0.00    +0.102 C 
BRANCH  30  34
ATOM     32  O   UNL     1      29.476 -24.547 -14.620  0.00  0.00    -0.268 OA
ATOM     33  N   UNL     1      29.597 -22.949 -16.294  0.00  0.00    -0.298 N 
ATOM     34  C   UNL     1      30.160 -23.768 -15.308  0.00  0.00    +0.264 C 
ATOM     35  C   UNL     1      28.186 -22.927 -16.608  0.00  0.00    +0.111 C 
ATOM     36  H   UNL     1      30.196 -22.355 -16.803  0.00  0.00    +0.150 HD
ENDBRANCH  30  34
ENDBRANCH  25  27
ENDBRANCH   7  25
TORSDOF 6
ENDMDL
MODEL 6
REMARK VINA RESULT:     -12.4      1.150      1.775
REMARK  Name = 11167118
REMARK  6 active torsions:
REMARK  status: ('A' for Active; 'I' for Inactive)
REMARK    1  A    between atoms: N_2  and  C_6
REMARK    2  A    between atoms: N_2  and  C_15
REMARK    3  A    between atoms: C_8  and  O_25
REMARK    4  A    between atoms: C_17  and  C_24
REMARK    5  A    between atoms: O_25  and  C_27
REMARK    6  A    between atoms: C_30  and  C_34
REMARK                            x       y       z     vdW  Elec       q    Type
REMARK                         _______ _______ _______ _____ _____    ______ ____
ROOT
ATOM      1  N   UNL     1      35.235 -22.116 -18.145  0.00  0.00    -0.302 N 
ATOM      2  N   UNL     1      33.021 -22.136 -18.331  0.00  0.00    -0.302 N 
ATOM      3  C   UNL     1      34.950 -21.285 -19.197  0.00  0.00    +0.063 C 
ATOM      4  C   UNL     1      33.561 -21.314 -19.293  0.00  0.00    +0.060 C 
ATOM      5  C   UNL     1      34.052 -22.600 -17.660  0.00  0.00    +0.225 C 
ATOM      6  C   UNL     1      35.761 -20.532 -20.048  0.00  0.00    +0.053 C 
ATOM      7  C   UNL     1      35.113 -19.781 -21.034  0.00  0.00    +0.147 C 
ATOM      8  C   UNL     1      32.927 -20.554 -20.290  0.00  0.00    +0.019 C 
ATOM      9  C   UNL     1      33.722 -19.790 -21.155  0.00  0.00    +0.039 C 
ATOM     10  H   UNL     1      36.133 -22.327 -17.800  0.00  0.00    +0.150 HD
ATOM     11  H   UNL     1      32.069 -22.334 -18.177  0.00  0.00    +0.150 HD
ENDROOT
BRANCH   5  12
ATOM     12  N   UNL     1      34.090 -23.449 -16.610  0.00  0.00    -0.303 N 
ATOM     13  H   UNL     1      34.890 -24.020 -16.568  0.00  0.00    +0.150 HD
BRANCH  12  15
ATOM     14 CL   UNL     1      30.234 -24.296 -12.191  0.00  0.00    -0.082 Cl
ATOM     15  C   UNL     1      33.156 -23.648 -15.554  0.00  0.00    +0.047 C 
ATOM     16  C   UNL     1      31.817 -23.343 -15.757  0.00  0.00    +0.019 C 
ATOM     17  C   UNL     1      30.902 -23.539 -14.723  0.00  0.00    +0.083 C 
ATOM     18  C   UNL     1      33.598 -24.146 -14.336  0.00  0.00    +0.015 C 
ATOM     19  C   UNL     1      31.336 -24.039 -13.494  0.00  0.00    +0.062 C 
ATOM     20  C   UNL     1      32.684 -24.342 -13.301  0.00  0.00    +0.013 C 
BRANCH  17  24
ATOM     21  F   UNL     1      29.240 -22.860 -16.261  0.00  0.00    -0.166 F 
ATOM     22  F   UNL     1      28.639 -24.238 -14.690  0.00  0.00    -0.166 F 
ATOM     23  F   UNL     1      29.073 -22.158 -14.203  0.00  0.00    -0.166 F 
ATOM     24  C   UNL     1      29.468 -23.203 -14.970  0.00  0.00    +0.419 C 
ENDBRANCH  17  24
ENDBRANCH  12  15
ENDBRANCH   5  12
BRANCH   7  25
ATOM     25  O   UNL     1      35.856 -19.027 -21.893  0.00  0.00    -0.453 OA
BRANCH  25  27
ATOM     26  N   UNL     1      33.817 -16.603 -24.584  0.00  0.00    -0.239 NA
ATOM     27  C   UNL     1      35.177 -18.220 -22.789  0.00  0.00    +0.149 C 
ATOM     28  C   UNL     1      35.109 -16.863 -22.557  0.00  0.00    +0.061 C 
ATOM     29  C   UNL     1      34.584 -18.790 -23.895  0.00  0.00    +0.058 C 
ATOM     30  C   UNL     1      34.418 -16.098 -23.483  0.00  0.00    +0.137 C 
ATOM     31  C   UNL     1      33.916 -17.940 -24.762  0.00  0.00    +0.102 C 
BRANCH  30  34
ATOM     32  O   UNL     1      34.806 -14.103 -22.314  0.00  0.00    -0.268 OA
ATOM     33  N   UNL     1      33.628 -13.948 -24.304  0.00  0.00    -0.298 N 
ATOM     34  C   UNL     1      34.302 -14.661 -23.306  0.00  0.00    +0.264 C 
ATOM     35  C   UNL     1      33.450 -12.513 -24.283  0.00  0.00    +0.111 C 
ATOM     36  H   UNL     1      33.252 -14.452 -25.063  0.00  0.00    +0.150 HD
ENDBRANCH  30  34
ENDBRANCH  25  27
ENDBRANCH   7  25
TORSDOF 6
ENDMDL
MODEL 7
REMARK VINA RESULT:     -12.3      3.896      4.626
REMARK  Name = 11167118
REMARK  6 active torsions:
REMARK  status: ('A' for Active; 'I' for Inactive)
REMARK    1  A    between atoms: N_2  and  C_6
REMARK    2  A    between atoms: N_2  and  C_15
REMARK    3  A    between atoms: C_8  and  O_25
REMARK    4  A    between atoms: C_17  and  C_24
REMARK    5  A    between atoms: O_25  and  C_27
REMARK    6  A    between atoms: C_30  and  C_34
REMARK                            x       y       z     vdW  Elec       q    Type
REMARK                         _______ _______ _______ _____ _____    ______ ____
ROOT
ATOM      1  N   UNL     1      35.180 -22.482 -17.653  0.00  0.00    -0.302 N 
ATOM      2  N   UNL     1      32.966 -22.497 -17.852  0.00  0.00    -0.302 N 
ATOM      3  C   UNL     1      34.900 -21.635 -18.695  0.00  0.00    +0.063 C 
ATOM      4  C   UNL     1      33.512 -21.662 -18.799  0.00  0.00    +0.060 C 
ATOM      5  C   UNL     1      33.994 -22.972 -17.182  0.00  0.00    +0.225 C 
ATOM      6  C   UNL     1      35.717 -20.871 -19.530  0.00  0.00    +0.053 C 
ATOM      7  C   UNL     1      35.076 -20.106 -20.509  0.00  0.00    +0.147 C 
ATOM      8  C   UNL     1      32.884 -20.887 -19.789  0.00  0.00    +0.019 C 
ATOM      9  C   UNL     1      33.685 -20.112 -20.638  0.00  0.00    +0.039 C 
ATOM     10  H   UNL     1      36.076 -22.697 -17.306  0.00  0.00    +0.150 HD
ATOM     11  H   UNL     1      32.014 -22.697 -17.706  0.00  0.00    +0.150 HD
ENDROOT
BRANCH   5  12
ATOM     12  N   UNL     1      34.025 -23.835 -16.144  0.00  0.00    -0.303 N 
ATOM     13  H   UNL     1      33.256 -24.448 -16.092  0.00  0.00    +0.150 HD
BRANCH  12  15
ATOM     14 CL   UNL     1      38.038 -24.487 -11.834  0.00  0.00    -0.082 Cl
ATOM     15  C   UNL     1      34.992 -24.000 -15.113  0.00  0.00    +0.047 C 
ATOM     16  C   UNL     1      35.850 -25.090 -15.148  0.00  0.00    +0.019 C 
ATOM     17  C   UNL     1      36.798 -25.252 -14.137  0.00  0.00    +0.083 C 
ATOM     18  C   UNL     1      35.062 -23.068 -14.087  0.00  0.00    +0.015 C 
ATOM     19  C   UNL     1      36.878 -24.321 -13.100  0.00  0.00    +0.062 C 
ATOM     20  C   UNL     1      36.010 -23.229 -13.075  0.00  0.00    +0.013 C 
BRANCH  17  24
ATOM     21  F   UNL     1      37.526 -27.159 -15.331  0.00  0.00    -0.166 F 
ATOM     22  F   UNL     1      39.017 -26.080 -14.175  0.00  0.00    -0.166 F 
ATOM     23  F   UNL     1      37.502 -27.267 -13.153  0.00  0.00    -0.166 F 
ATOM     24  C   UNL     1      37.710 -26.434 -14.201  0.00  0.00    +0.419 C 
ENDBRANCH  17  24
ENDBRANCH  12  15
ENDBRANCH   5  12
BRANCH   7  25
ATOM     25  O   UNL     1      35.823 -19.340 -21.354  0.00  0.00    -0.453 OA
BRANCH  25  27
ATOM     26  N   UNL     1      33.978 -17.892 -24.784  0.00  0.00    -0.239 NA
ATOM     27  C   UNL     1      35.209 -18.858 -22.496  0.00  0.00    +0.149 C 
ATOM     28  C   UNL     1      35.038 -17.498 -22.647  0.00  0.00    +0.061 C 
ATOM     29  C   UNL     1      34.782 -19.746 -23.459  0.00  0.00    +0.058 C 
ATOM     30  C   UNL     1      34.418 -17.065 -23.808  0.00  0.00    +0.137 C 
ATOM     31  C   UNL     1      34.172 -19.215 -24.584  0.00  0.00    +0.102 C 
BRANCH  30  34
ATOM     32  O   UNL     1      33.882 -15.231 -25.167  0.00  0.00    -0.268 OA
ATOM     33  N   UNL     1      34.347 -14.794 -22.939  0.00  0.00    -0.298 N 
ATOM     34  C   UNL     1      34.202 -15.647 -24.039  0.00  0.00    +0.264 C 
ATOM     35  C   UNL     1      34.144 -13.364 -23.002  0.00  0.00    +0.111 C 
ATOM     36  H   UNL     1      34.603 -15.189 -22.074  0.00  0.00    +0.150 HD
ENDBRANCH  30  34
ENDBRANCH  25  27
ENDBRANCH   7  25
TORSDOF 6
ENDMDL
MODEL 8
REMARK VINA RESULT:     -12.3      4.171      7.083
REMARK  Name = 11167118
REMARK  6 active torsions:
REMARK  status: ('A' for Active; 'I' for Inactive)
REMARK    1  A    between atoms: N_2  and  C_6
REMARK    2  A    between atoms: N_2  and  C_15
REMARK    3  A    between atoms: C_8  and  O_25
REMARK    4  A    between atoms: C_17  and  C_24
REMARK    5  A    between atoms: O_25  and  C_27
REMARK    6  A    between atoms: C_30  and  C_34
REMARK                            x       y       z     vdW  Elec       q    Type
REMARK                         _______ _______ _______ _____ _____    ______ ____
ROOT
ATOM      1  N   UNL     1      35.255 -16.126 -21.788  0.00  0.00    -0.302 N 
ATOM      2  N   UNL     1      35.122 -17.021 -23.818  0.00  0.00    -0.302 N 
ATOM      3  C   UNL     1      34.515 -15.242 -22.530  0.00  0.00    +0.063 C 
ATOM      4  C   UNL     1      34.447 -15.823 -23.793  0.00  0.00    +0.060 C 
ATOM      5  C   UNL     1      35.595 -17.172 -22.600  0.00  0.00    +0.225 C 
ATOM      6  C   UNL     1      33.918 -14.020 -22.215  0.00  0.00    +0.053 C 
ATOM      7  C   UNL     1      33.223 -13.376 -23.243  0.00  0.00    +0.147 C 
ATOM      8  C   UNL     1      33.745 -15.162 -24.815  0.00  0.00    +0.019 C 
ATOM      9  C   UNL     1      33.137 -13.934 -24.521  0.00  0.00    +0.039 C 
ATOM     10  H   UNL     1      35.498 -16.025 -20.839  0.00  0.00    +0.150 HD
ATOM     11  H   UNL     1      35.230 -17.634 -24.581  0.00  0.00    +0.150 HD
ENDROOT
BRANCH   5  12
ATOM     12  N   UNL     1      36.332 -18.175 -22.076  0.00  0.00    -0.303 N 
ATOM     13  H   UNL     1      37.256 -18.228 -22.413  0.00  0.00    +0.150 HD
BRANCH  12  15
ATOM     14 CL   UNL     1      34.937 -22.312 -18.069  0.00  0.00    -0.082 Cl
ATOM     15  C   UNL     1      35.987 -19.168 -21.116  0.00  0.00    +0.047 C 
ATOM     16  C   UNL     1      34.664 -19.569 -20.991  0.00  0.00    +0.019 C 
ATOM     17  C   UNL     1      34.327 -20.542 -20.050  0.00  0.00    +0.083 C 
ATOM     18  C   UNL     1      36.980 -19.721 -20.319  0.00  0.00    +0.015 C 
ATOM     19  C   UNL     1      35.316 -21.105 -19.243  0.00  0.00    +0.062 C 
ATOM     20  C   UNL     1      36.643 -20.694 -19.377  0.00  0.00    +0.013 C 
BRANCH  17  24
ATOM     21  F   UNL     1      32.743 -22.298 -20.018  0.00  0.00    -0.166 F 
ATOM     22  F   UNL     1      32.338 -20.569 -18.765  0.00  0.00    -0.166 F 
ATOM     23  F   UNL     1      32.152 -20.408 -20.930  0.00  0.00    -0.166 F 
ATOM     24  C   UNL     1      32.895 -20.954 -19.938  0.00  0.00    +0.419 C 
ENDBRANCH  17  24
ENDBRANCH  12  15
ENDBRANCH   5  12
BRANCH   7  25
ATOM     25  O   UNL     1      32.620 -12.179 -22.994  0.00  0.00    -0.453 OA
BRANCH  25  27
ATOM     26  N   UNL     1      34.688  -8.725 -24.025  0.00  0.00    -0.239 NA
ATOM     27  C   UNL     1      33.309 -11.029 -23.337  0.00  0.00    +0.149 C 
ATOM     28  C   UNL     1      33.027  -9.851 -22.677  0.00  0.00    +0.061 C 
ATOM     29  C   UNL     1      34.262 -11.085 -24.330  0.00  0.00    +0.058 C 
ATOM     30  C   UNL     1      33.743  -8.728 -23.057  0.00  0.00    +0.137 C 
ATOM     31  C   UNL     1      34.924  -9.907 -24.638  0.00  0.00    +0.102 C 
BRANCH  30  34
ATOM     32  O   UNL     1      34.159  -6.444 -22.729  0.00  0.00    -0.268 OA
ATOM     33  N   UNL     1      32.493  -7.410 -21.439  0.00  0.00    -0.298 N 
ATOM     34  C   UNL     1      33.502  -7.451 -22.408  0.00  0.00    +0.264 C 
ATOM     35  C   UNL     1      32.119  -6.211 -20.722  0.00  0.00    +0.111 C 
ATOM     36  H   UNL     1      32.011  -8.244 -21.233  0.00  0.00    +0.150 HD
ENDBRANCH  30  34
ENDBRANCH  25  27
ENDBRANCH   7  25
TORSDOF 6
ENDMDL
MODEL 9
REMARK VINA RESULT:     -12.2      2.618      3.211
REMARK  Name = 11167118
REMARK  6 active torsions:
REMARK  status: ('A' for Active; 'I' for Inactive)
REMARK    1  A    between atoms: N_2  and  C_6
REMARK    2  A    between atoms: N_2  and  C_15
REMARK    3  A    between atoms: C_8  and  O_25
REMARK    4  A    between atoms: C_17  and  C_24
REMARK    5  A    between atoms: O_25  and  C_27
REMARK    6  A    between atoms: C_30  and  C_34
REMARK                            x       y       z     vdW  Elec       q    Type
REMARK                         _______ _______ _______ _____ _____    ______ ____
ROOT
ATOM      1  N   UNL     1      33.266 -20.919 -20.035  0.00  0.00    -0.302 N 
ATOM      2  N   UNL     1      35.095 -21.597 -18.971  0.00  0.00    -0.302 N 
ATOM      3  C   UNL     1      34.284 -20.148 -20.531  0.00  0.00    +0.063 C 
ATOM      4  C   UNL     1      35.416 -20.590 -19.850  0.00  0.00    +0.060 C 
ATOM      5  C   UNL     1      33.799 -21.770 -19.107  0.00  0.00    +0.225 C 
ATOM      6  C   UNL     1      34.314 -19.131 -21.487  0.00  0.00    +0.053 C 
ATOM      7  C   UNL     1      35.558 -18.550 -21.750  0.00  0.00    +0.147 C 
ATOM      8  C   UNL     1      36.658 -19.995 -20.128  0.00  0.00    +0.019 C 
ATOM      9  C   UNL     1      36.711 -18.973 -21.084  0.00  0.00    +0.039 C 
ATOM     10  H   UNL     1      32.319 -20.870 -20.300  0.00  0.00    +0.150 HD
ATOM     11  H   UNL     1      35.703 -22.085 -18.369  0.00  0.00    +0.150 HD
ENDROOT
BRANCH   5  12
ATOM     12  N   UNL     1      32.971 -22.634 -18.480  0.00  0.00    -0.303 N 
ATOM     13  H   UNL     1      32.317 -23.079 -19.066  0.00  0.00    +0.150 HD
BRANCH  12  15
ATOM     14 CL   UNL     1      32.607 -24.164 -12.767  0.00  0.00    -0.082 Cl
ATOM     15  C   UNL     1      32.894 -23.004 -17.107  0.00  0.00    +0.047 C 
ATOM     16  C   UNL     1      34.050 -23.362 -16.429  0.00  0.00    +0.019 C 
ATOM     17  C   UNL     1      33.974 -23.723 -15.083  0.00  0.00    +0.083 C 
ATOM     18  C   UNL     1      31.662 -23.000 -16.467  0.00  0.00    +0.015 C 
ATOM     19  C   UNL     1      32.741 -23.723 -14.430  0.00  0.00    +0.062 C 
ATOM     20  C   UNL     1      31.585 -23.362 -15.122  0.00  0.00    +0.013 C 
BRANCH  17  24
ATOM     21  F   UNL     1      35.504 -23.280 -13.336  0.00  0.00    -0.166 F 
ATOM     22  F   UNL     1      35.188 -25.362 -13.878  0.00  0.00    -0.166 F 
ATOM     23  F   UNL     1      36.298 -24.047 -15.216  0.00  0.00    -0.166 F 
ATOM     24  C   UNL     1      35.235 -24.103 -14.378  0.00  0.00    +0.419 C 
ENDBRANCH  17  24
ENDBRANCH  12  15
ENDBRANCH   5  12
BRANCH   7  25
ATOM     25  O   UNL     1      35.647 -17.551 -22.675  0.00  0.00    -0.453 OA
BRANCH  25  27
ATOM     26  N   UNL     1      34.056 -13.846 -21.668  0.00  0.00    -0.239 NA
ATOM     27  C   UNL     1      35.117 -16.318 -22.339  0.00  0.00    +0.149 C 
ATOM     28  C   UNL     1      34.735 -15.453 -23.343  0.00  0.00    +0.061 C 
ATOM     29  C   UNL     1      34.982 -15.980 -21.010  0.00  0.00    +0.058 C 
ATOM     30  C   UNL     1      34.211 -14.230 -22.956  0.00  0.00    +0.137 C 
ATOM     31  C   UNL     1      34.447 -14.734 -20.726  0.00  0.00    +0.102 C 
BRANCH  30  34
ATOM     32  O   UNL     1      33.185 -13.638 -24.979  0.00  0.00    -0.268 OA
ATOM     33  N   UNL     1      34.064 -11.918 -23.698  0.00  0.00    -0.298 N 
ATOM     34  C   UNL     1      33.786 -13.265 -23.956  0.00  0.00    +0.264 C 
ATOM     35  C   UNL     1      33.686 -10.839 -24.584  0.00  0.00    +0.111 C 
ATOM     36  H   UNL     1      34.544 -11.691 -22.869  0.00  0.00    +0.150 HD
ENDBRANCH  30  34
ENDBRANCH  25  27
ENDBRANCH   7  25
TORSDOF 6
ENDMDL
