MODEL 1
REMARK VINA RESULT:     -11.2      0.000      0.000
REMARK  Name = 10050566
REMARK  9 active torsions:
REMARK  status: ('A' for Active; 'I' for Inactive)
REMARK    1  A    between atoms: C_2  and  N_11
REMARK    2  A    between atoms: C_3  and  O_22
REMARK    3  A    between atoms: C_12  and  C_14
REMARK    4  A    between atoms: C_19  and  O_20
REMARK    5  A    between atoms: O_22  and  C_24
REMARK    6  A    between atoms: C_24  and  C_25
REMARK    7  A    between atoms: C_30  and  C_32
REMARK    8  A    between atoms: C_32  and  C_33
REMARK    9  A    between atoms: C_34  and  O_39
REMARK                            x       y       z     vdW  Elec       q    Type
REMARK                         _______ _______ _______ _____ _____    ______ ____
ROOT
ATOM      1  N   UNL     1      30.687 -24.877 -14.988  0.00  0.00    +0.385 N 
ATOM      2  C   UNL     1      32.793 -23.802 -15.805  0.00  0.00    +0.091 C 
ATOM      3  C   UNL     1      33.303 -23.447 -14.397  0.00  0.00    +0.185 C 
ATOM      4  C   UNL     1      32.304 -22.751 -13.465  0.00  0.00    +0.043 C 
ATOM      5  C   UNL     1      31.278 -23.963 -15.965  0.00  0.00    -0.058 C 
ATOM      6  C   UNL     1      31.232 -23.659 -12.856  0.00  0.00    -0.020 C 
ATOM      7  C   UNL     1      30.167 -24.155 -13.826  0.00  0.00    -0.082 C 
ATOM      8  H   UNL     1      31.401 -25.536 -14.676  0.00  0.00    -0.084 HD
ATOM      9  H   UNL     1      29.912 -25.367 -15.435  0.00  0.00    -0.084 HD
ENDROOT
BRANCH   2  11
ATOM     10  O   UNL     1      33.665 -24.294 -18.494  0.00  0.00    -0.270 OA
ATOM     11  N   UNL     1      33.260 -22.813 -16.758  0.00  0.00    -0.301 N 
ATOM     12  C   UNL     1      33.660 -23.155 -18.036  0.00  0.00    +0.246 C 
ATOM     13  H   UNL     1      33.294 -21.867 -16.485  0.00  0.00    +0.150 HD
BRANCH  12  14
ATOM     14  C   UNL     1      34.137 -22.030 -18.881  0.00  0.00    +0.054 C 
ATOM     15  C   UNL     1      33.207 -21.247 -19.534  0.00  0.00    +0.008 C 
ATOM     16  C   UNL     1      35.493 -21.803 -18.986  0.00  0.00    +0.008 C 
ATOM     17  C   UNL     1      33.654 -20.191 -20.328  0.00  0.00    +0.037 C 
ATOM     18  C   UNL     1      35.941 -20.746 -19.778  0.00  0.00    +0.037 C 
ATOM     19  C   UNL     1      35.020 -19.940 -20.450  0.00  0.00    +0.134 C 
BRANCH  19  20
ATOM     20  O   UNL     1      35.457 -18.908 -21.222  0.00  0.00    -0.506 OA
ATOM     21  H   UNL     1      35.245 -18.884 -22.134  0.00  0.00    +0.292 HD
ENDBRANCH  19  20
ENDBRANCH  12  14
ENDBRANCH   2  11
BRANCH   3  22
ATOM     22  O   UNL     1      33.818 -24.625 -13.769  0.00  0.00    -0.448 OA
BRANCH  22  24
ATOM     23  O   UNL     1      34.446 -23.993 -11.647  0.00  0.00    -0.245 OA
ATOM     24  C   UNL     1      34.704 -24.412 -12.764  0.00  0.00    +0.341 C 
BRANCH  24  25
ATOM     25  C   UNL     1      36.078 -24.763 -13.205  0.00  0.00    +0.076 C 
ATOM     26  C   UNL     1      36.635 -24.073 -14.262  0.00  0.00    +0.007 C 
ATOM     27  C   UNL     1      36.754 -25.769 -12.546  0.00  0.00    +0.007 C 
ATOM     28  C   UNL     1      37.926 -24.403 -14.677  0.00  0.00    +0.003 C 
ATOM     29  C   UNL     1      38.043 -26.099 -12.961  0.00  0.00    +0.003 C 
ATOM     30  C   UNL     1      38.630 -25.416 -14.027  0.00  0.00    +0.039 C 
BRANCH  30  32
ATOM     31  O   UNL     1      40.895 -24.936 -14.358  0.00  0.00    -0.286 OA
ATOM     32  C   UNL     1      39.975 -25.760 -14.460  0.00  0.00    +0.198 C 
BRANCH  32  33
ATOM     33  C   UNL     1      40.311 -27.096 -15.039  0.00  0.00    +0.073 C 
ATOM     34  C   UNL     1      41.224 -27.903 -14.399  0.00  0.00    +0.137 C 
ATOM     35  C   UNL     1      39.681 -27.466 -16.206  0.00  0.00    +0.006 C 
ATOM     36  C   UNL     1      41.523 -29.146 -14.956  0.00  0.00    +0.037 C 
ATOM     37  C   UNL     1      39.980 -28.709 -16.763  0.00  0.00    +0.000 C 
ATOM     38  C   UNL     1      40.902 -29.548 -16.138  0.00  0.00    +0.003 C 
BRANCH  34  39
ATOM     39  O   UNL     1      41.841 -27.527 -13.244  0.00  0.00    -0.505 OA
ATOM     40  H   UNL     1      42.024 -28.164 -12.580  0.00  0.00    +0.292 HD
ENDBRANCH  34  39
ENDBRANCH  32  33
ENDBRANCH  30  32
ENDBRANCH  24  25
ENDBRANCH  22  24
ENDBRANCH   3  22
TORSDOF 9
ENDMDL
MODEL 2
REMARK VINA RESULT:     -11.0      9.955     15.052
REMARK  Name = 10050566
REMARK  9 active torsions:
REMARK  status: ('A' for Active; 'I' for Inactive)
REMARK    1  A    between atoms: C_2  and  N_11
REMARK    2  A    between atoms: C_3  and  O_22
REMARK    3  A    between atoms: C_12  and  C_14
REMARK    4  A    between atoms: C_19  and  O_20
REMARK    5  A    between atoms: O_22  and  C_24
REMARK    6  A    between atoms: C_24  and  C_25
REMARK    7  A    between atoms: C_30  and  C_32
REMARK    8  A    between atoms: C_32  and  C_33
REMARK    9  A    between atoms: C_34  and  O_39
REMARK                            x       y       z     vdW  Elec       q    Type
REMARK                         _______ _______ _______ _____ _____    ______ ____
ROOT
ATOM      1  N   UNL     1      35.962 -10.313 -25.702  0.00  0.00    +0.385 N 
ATOM      2  C   UNL     1      34.376  -9.590 -23.907  0.00  0.00    +0.091 C 
ATOM      3  C   UNL     1      33.507 -10.857 -23.995  0.00  0.00    +0.185 C 
ATOM      4  C   UNL     1      33.060 -11.282 -25.399  0.00  0.00    +0.043 C 
ATOM      5  C   UNL     1      35.164  -9.211 -25.165  0.00  0.00    -0.058 C 
ATOM      6  C   UNL     1      34.136 -11.952 -26.256  0.00  0.00    -0.020 C 
ATOM      7  C   UNL     1      35.243 -11.030 -26.755  0.00  0.00    -0.082 C 
ATOM      8  H   UNL     1      36.179 -10.963 -24.946  0.00  0.00    -0.084 HD
ATOM      9  H   UNL     1      36.815  -9.925 -26.103  0.00  0.00    -0.084 HD
ENDROOT
BRANCH   2  11
ATOM     10  O   UNL     1      35.257  -7.231 -22.532  0.00  0.00    -0.270 OA
ATOM     11  N   UNL     1      33.555  -8.461 -23.513  0.00  0.00    -0.301 N 
ATOM     12  C   UNL     1      34.079  -7.367 -22.851  0.00  0.00    +0.246 C 
ATOM     13  H   UNL     1      32.593  -8.474 -23.723  0.00  0.00    +0.150 HD
BRANCH  12  14
ATOM     14  C   UNL     1      33.102  -6.306 -22.493  0.00  0.00    +0.054 C 
ATOM     15  C   UNL     1      32.918  -5.250 -23.362  0.00  0.00    +0.008 C 
ATOM     16  C   UNL     1      32.411  -6.409 -21.304  0.00  0.00    +0.008 C 
ATOM     17  C   UNL     1      32.002  -4.254 -23.026  0.00  0.00    +0.037 C 
ATOM     18  C   UNL     1      31.494  -5.414 -20.969  0.00  0.00    +0.037 C 
ATOM     19  C   UNL     1      31.290  -4.335 -21.830  0.00  0.00    +0.134 C 
BRANCH  19  20
ATOM     20  O   UNL     1      30.393  -3.365 -21.504  0.00  0.00    -0.506 OA
ATOM     21  H   UNL     1      30.235  -3.158 -20.603  0.00  0.00    +0.292 HD
ENDBRANCH  19  20
ENDBRANCH  12  14
ENDBRANCH   2  11
BRANCH   3  22
ATOM     22  O   UNL     1      34.182 -11.940 -23.349  0.00  0.00    -0.448 OA
BRANCH  22  24
ATOM     23  O   UNL     1      32.425 -12.442 -21.949  0.00  0.00    -0.245 OA
ATOM     24  C   UNL     1      33.395 -12.767 -22.616  0.00  0.00    +0.341 C 
BRANCH  24  25
ATOM     25  C   UNL     1      33.876 -14.167 -22.724  0.00  0.00    +0.076 C 
ATOM     26  C   UNL     1      33.753 -14.823 -23.932  0.00  0.00    +0.007 C 
ATOM     27  C   UNL     1      34.431 -14.770 -21.614  0.00  0.00    +0.007 C 
ATOM     28  C   UNL     1      34.204 -16.140 -24.033  0.00  0.00    +0.003 C 
ATOM     29  C   UNL     1      34.882 -16.086 -21.715  0.00  0.00    +0.003 C 
ATOM     30  C   UNL     1      34.769 -16.771 -22.926  0.00  0.00    +0.039 C 
BRANCH  30  32
ATOM     31  O   UNL     1      35.400 -18.664 -24.144  0.00  0.00    -0.286 OA
ATOM     32  C   UNL     1      35.238 -18.143 -23.031  0.00  0.00    +0.198 C 
BRANCH  32  33
ATOM     33  C   UNL     1      35.542 -18.979 -21.830  0.00  0.00    +0.073 C 
ATOM     34  C   UNL     1      36.828 -19.024 -21.342  0.00  0.00    +0.137 C 
ATOM     35  C   UNL     1      34.504 -19.678 -21.256  0.00  0.00    +0.006 C 
ATOM     36  C   UNL     1      37.090 -19.810 -20.222  0.00  0.00    +0.037 C 
ATOM     37  C   UNL     1      34.766 -20.463 -20.134  0.00  0.00    +0.000 C 
ATOM     38  C   UNL     1      36.060 -20.530 -19.618  0.00  0.00    +0.003 C 
BRANCH  34  39
ATOM     39  O   UNL     1      37.849 -18.328 -21.919  0.00  0.00    -0.505 OA
ATOM     40  H   UNL     1      38.714 -18.688 -21.930  0.00  0.00    +0.292 HD
ENDBRANCH  34  39
ENDBRANCH  32  33
ENDBRANCH  30  32
ENDBRANCH  24  25
ENDBRANCH  22  24
ENDBRANCH   3  22
TORSDOF 9
ENDMDL
MODEL 3
REMARK VINA RESULT:     -10.9      3.920      8.966
REMARK  Name = 10050566
REMARK  9 active torsions:
REMARK  status: ('A' for Active; 'I' for Inactive)
REMARK    1  A    between atoms: C_2  and  N_11
REMARK    2  A    between atoms: C_3  and  O_22
REMARK    3  A    between atoms: C_12  and  C_14
REMARK    4  A    between atoms: C_19  and  O_20
REMARK    5  A    between atoms: O_22  and  C_24
REMARK    6  A    between atoms: C_24  and  C_25
REMARK    7  A    between atoms: C_30  and  C_32
REMARK    8  A    between atoms: C_32  and  C_33
REMARK    9  A    between atoms: C_34  and  O_39
REMARK                            x       y       z     vdW  Elec       q    Type
REMARK                         _______ _______ _______ _____ _____    ______ ____
ROOT
ATOM      1  N   UNL     1      34.948 -25.316 -14.088  0.00  0.00    +0.385 N 
ATOM      2  C   UNL     1      33.028 -24.357 -15.374  0.00  0.00    +0.091 C 
ATOM      3  C   UNL     1      33.806 -23.116 -15.846  0.00  0.00    +0.185 C 
ATOM      4  C   UNL     1      34.574 -22.342 -14.768  0.00  0.00    +0.043 C 
ATOM      5  C   UNL     1      33.516 -25.021 -14.082  0.00  0.00    -0.058 C 
ATOM      6  C   UNL     1      35.879 -22.989 -14.299  0.00  0.00    -0.020 C 
ATOM      7  C   UNL     1      35.718 -24.246 -13.452  0.00  0.00    -0.082 C 
ATOM      8  H   UNL     1      35.261 -25.421 -15.054  0.00  0.00    -0.084 HD
ATOM      9  H   UNL     1      35.101 -26.177 -13.562  0.00  0.00    -0.084 HD
ENDROOT
BRANCH   2  11
ATOM     10  O   UNL     1      31.483 -22.653 -17.089  0.00  0.00    -0.270 OA
ATOM     11  N   UNL     1      31.623 -24.028 -15.228  0.00  0.00    -0.301 N 
ATOM     12  C   UNL     1      30.969 -23.193 -16.113  0.00  0.00    +0.246 C 
ATOM     13  H   UNL     1      31.120 -24.410 -14.473  0.00  0.00    +0.150 HD
BRANCH  12  14
ATOM     14  C   UNL     1      29.537 -22.932 -15.810  0.00  0.00    +0.054 C 
ATOM     15  C   UNL     1      28.607 -23.076 -16.818  0.00  0.00    +0.008 C 
ATOM     16  C   UNL     1      29.184 -22.555 -14.531  0.00  0.00    +0.008 C 
ATOM     17  C   UNL     1      27.263 -22.832 -16.535  0.00  0.00    +0.037 C 
ATOM     18  C   UNL     1      27.841 -22.312 -14.247  0.00  0.00    +0.037 C 
ATOM     19  C   UNL     1      26.880 -22.450 -15.249  0.00  0.00    +0.134 C 
BRANCH  19  20
ATOM     20  O   UNL     1      25.569 -22.214 -14.971  0.00  0.00    -0.506 OA
ATOM     21  H   UNL     1      24.951 -22.918 -14.997  0.00  0.00    +0.292 HD
ENDBRANCH  19  20
ENDBRANCH  12  14
ENDBRANCH   2  11
BRANCH   3  22
ATOM     22  O   UNL     1      34.692 -23.486 -16.906  0.00  0.00    -0.448 OA
BRANCH  22  24
ATOM     23  O   UNL     1      33.455 -24.346 -18.646  0.00  0.00    -0.245 OA
ATOM     24  C   UNL     1      34.153 -23.475 -18.151  0.00  0.00    +0.341 C 
BRANCH  24  25
ATOM     25  C   UNL     1      34.532 -22.230 -18.865  0.00  0.00    +0.076 C 
ATOM     26  C   UNL     1      33.543 -21.484 -19.474  0.00  0.00    +0.007 C 
ATOM     27  C   UNL     1      35.860 -21.857 -18.899  0.00  0.00    +0.007 C 
ATOM     28  C   UNL     1      33.899 -20.314 -20.146  0.00  0.00    +0.003 C 
ATOM     29  C   UNL     1      36.216 -20.689 -19.571  0.00  0.00    +0.003 C 
ATOM     30  C   UNL     1      35.235 -19.916 -20.195  0.00  0.00    +0.039 C 
BRANCH  30  32
ATOM     31  O   UNL     1      36.392 -17.892 -20.376  0.00  0.00    -0.286 OA
ATOM     32  C   UNL     1      35.606 -18.698 -20.896  0.00  0.00    +0.198 C 
BRANCH  32  33
ATOM     33  C   UNL     1      35.070 -18.358 -22.249  0.00  0.00    +0.073 C 
ATOM     34  C   UNL     1      34.916 -17.038 -22.606  0.00  0.00    +0.137 C 
ATOM     35  C   UNL     1      34.751 -19.399 -23.092  0.00  0.00    +0.006 C 
ATOM     36  C   UNL     1      34.415 -16.743 -23.873  0.00  0.00    +0.037 C 
ATOM     37  C   UNL     1      34.250 -19.103 -24.359  0.00  0.00    +0.000 C 
ATOM     38  C   UNL     1      34.081 -17.775 -24.750  0.00  0.00    +0.003 C 
BRANCH  34  39
ATOM     39  O   UNL     1      35.235 -16.015 -21.764  0.00  0.00    -0.505 OA
ATOM     40  H   UNL     1      35.245 -15.133 -22.080  0.00  0.00    +0.292 HD
ENDBRANCH  34  39
ENDBRANCH  32  33
ENDBRANCH  30  32
ENDBRANCH  24  25
ENDBRANCH  22  24
ENDBRANCH   3  22
TORSDOF 9
ENDMDL
MODEL 4
REMARK VINA RESULT:     -10.2     11.261     18.252
REMARK  Name = 10050566
REMARK  9 active torsions:
REMARK  status: ('A' for Active; 'I' for Inactive)
REMARK    1  A    between atoms: C_2  and  N_11
REMARK    2  A    between atoms: C_3  and  O_22
REMARK    3  A    between atoms: C_12  and  C_14
REMARK    4  A    between atoms: C_19  and  O_20
REMARK    5  A    between atoms: O_22  and  C_24
REMARK    6  A    between atoms: C_24  and  C_25
REMARK    7  A    between atoms: C_30  and  C_32
REMARK    8  A    between atoms: C_32  and  C_33
REMARK    9  A    between atoms: C_34  and  O_39
REMARK                            x       y       z     vdW  Elec       q    Type
REMARK                         _______ _______ _______ _____ _____    ______ ____
ROOT
ATOM      1  N   UNL     1      33.228 -12.241 -26.036  0.00  0.00    +0.385 N 
ATOM      2  C   UNL     1      33.116 -13.544 -23.903  0.00  0.00    +0.091 C 
ATOM      3  C   UNL     1      33.270 -12.308 -22.998  0.00  0.00    +0.185 C 
ATOM      4  C   UNL     1      34.414 -11.347 -23.344  0.00  0.00    +0.043 C 
ATOM      5  C   UNL     1      33.688 -13.430 -25.320  0.00  0.00    -0.058 C 
ATOM      6  C   UNL     1      34.166 -10.440 -24.552  0.00  0.00    -0.020 C 
ATOM      7  C   UNL     1      34.180 -11.137 -25.908  0.00  0.00    -0.082 C 
ATOM      8  H   UNL     1      32.329 -11.950 -25.652  0.00  0.00    -0.084 HD
ATOM      9  H   UNL     1      33.141 -12.476 -27.025  0.00  0.00    -0.084 HD
ENDROOT
BRANCH   2  11
ATOM     10  O   UNL     1      33.926 -15.988 -25.169  0.00  0.00    -0.270 OA
ATOM     11  N   UNL     1      33.703 -14.701 -23.254  0.00  0.00    -0.301 N 
ATOM     12  C   UNL     1      34.060 -15.835 -23.958  0.00  0.00    +0.246 C 
ATOM     13  H   UNL     1      33.851 -14.678 -22.281  0.00  0.00    +0.150 HD
BRANCH  12  14
ATOM     14  C   UNL     1      34.623 -16.944 -23.144  0.00  0.00    +0.054 C 
ATOM     15  C   UNL     1      35.213 -16.647 -21.933  0.00  0.00    +0.008 C 
ATOM     16  C   UNL     1      34.538 -18.234 -23.625  0.00  0.00    +0.008 C 
ATOM     17  C   UNL     1      35.742 -17.686 -21.168  0.00  0.00    +0.037 C 
ATOM     18  C   UNL     1      35.066 -19.274 -22.860  0.00  0.00    +0.037 C 
ATOM     19  C   UNL     1      35.668 -19.000 -21.632  0.00  0.00    +0.134 C 
BRANCH  19  20
ATOM     20  O   UNL     1      36.182 -20.015 -20.885  0.00  0.00    -0.506 OA
ATOM     21  H   UNL     1      36.750 -19.824 -20.164  0.00  0.00    +0.292 HD
ENDBRANCH  19  20
ENDBRANCH  12  14
ENDBRANCH   2  11
BRANCH   3  22
ATOM     22  O   UNL     1      32.030 -11.596 -22.954  0.00  0.00    -0.448 OA
BRANCH  22  24
ATOM     23  O   UNL     1      31.513 -11.456 -20.715  0.00  0.00    -0.245 OA
ATOM     24  C   UNL     1      31.771 -10.944 -21.793  0.00  0.00    +0.341 C 
BRANCH  24  25
ATOM     25  C   UNL     1      31.838  -9.475 -22.001  0.00  0.00    +0.076 C 
ATOM     26  C   UNL     1      31.198  -8.926 -23.094  0.00  0.00    +0.007 C 
ATOM     27  C   UNL     1      32.539  -8.705 -21.097  0.00  0.00    +0.007 C 
ATOM     28  C   UNL     1      31.262  -7.546 -23.290  0.00  0.00    +0.003 C 
ATOM     29  C   UNL     1      32.604  -7.326 -21.292  0.00  0.00    +0.003 C 
ATOM     30  C   UNL     1      31.964  -6.746 -22.389  0.00  0.00    +0.039 C 
BRANCH  30  32
ATOM     31  O   UNL     1      31.594  -4.533 -21.730  0.00  0.00    -0.286 OA
ATOM     32  C   UNL     1      32.031  -5.308 -22.593  0.00  0.00    +0.198 C 
BRANCH  32  33
ATOM     33  C   UNL     1      32.616  -4.701 -23.828  0.00  0.00    +0.073 C 
ATOM     34  C   UNL     1      31.938  -3.695 -24.476  0.00  0.00    +0.137 C 
ATOM     35  C   UNL     1      33.828  -5.184 -24.267  0.00  0.00    +0.006 C 
ATOM     36  C   UNL     1      32.501  -3.142 -25.625  0.00  0.00    +0.037 C 
ATOM     37  C   UNL     1      34.392  -4.631 -25.416  0.00  0.00    +0.000 C 
ATOM     38  C   UNL     1      33.728  -3.611 -26.096  0.00  0.00    +0.003 C 
BRANCH  34  39
ATOM     39  O   UNL     1      30.738  -3.224 -24.032  0.00  0.00    -0.505 OA
ATOM     40  H   UNL     1      30.681  -2.367 -23.656  0.00  0.00    +0.292 HD
ENDBRANCH  34  39
ENDBRANCH  32  33
ENDBRANCH  30  32
ENDBRANCH  24  25
ENDBRANCH  22  24
ENDBRANCH   3  22
TORSDOF 9
ENDMDL
MODEL 5
REMARK VINA RESULT:      -9.5      8.717     13.611
REMARK  Name = 10050566
REMARK  9 active torsions:
REMARK  status: ('A' for Active; 'I' for Inactive)
REMARK    1  A    between atoms: C_2  and  N_11
REMARK    2  A    between atoms: C_3  and  O_22
REMARK    3  A    between atoms: C_12  and  C_14
REMARK    4  A    between atoms: C_19  and  O_20
REMARK    5  A    between atoms: O_22  and  C_24
REMARK    6  A    between atoms: C_24  and  C_25
REMARK    7  A    between atoms: C_30  and  C_32
REMARK    8  A    between atoms: C_32  and  C_33
REMARK    9  A    between atoms: C_34  and  O_39
REMARK                            x       y       z     vdW  Elec       q    Type
REMARK                         _______ _______ _______ _____ _____    ______ ____
ROOT
ATOM      1  N   UNL     1      31.268 -12.451 -20.836  0.00  0.00    +0.385 N 
ATOM      2  C   UNL     1      32.293 -11.397 -22.859  0.00  0.00    +0.091 C 
ATOM      3  C   UNL     1      33.353 -12.497 -23.046  0.00  0.00    +0.185 C 
ATOM      4  C   UNL     1      34.154 -12.891 -21.799  0.00  0.00    +0.043 C 
ATOM      5  C   UNL     1      31.743 -11.208 -21.442  0.00  0.00    -0.058 C 
ATOM      6  C   UNL     1      33.409 -13.770 -20.791  0.00  0.00    -0.020 C 
ATOM      7  C   UNL     1      32.302 -13.073 -20.009  0.00  0.00    -0.082 C 
ATOM      8  H   UNL     1      31.001 -13.100 -21.577  0.00  0.00    -0.084 HD
ATOM      9  H   UNL     1      30.469 -12.232 -20.240  0.00  0.00    -0.084 HD
ENDROOT
BRANCH   2  11
ATOM     10  O   UNL     1      31.078  -8.817 -22.535  0.00  0.00    -0.270 OA
ATOM     11  N   UNL     1      32.818 -10.128 -23.329  0.00  0.00    -0.301 N 
ATOM     12  C   UNL     1      32.152  -8.936 -23.120  0.00  0.00    +0.246 C 
ATOM     13  H   UNL     1      33.675 -10.117 -23.813  0.00  0.00    +0.150 HD
BRANCH  12  14
ATOM     14  C   UNL     1      32.807  -7.728 -23.687  0.00  0.00    +0.054 C 
ATOM     15  C   UNL     1      32.016  -6.690 -24.134  0.00  0.00    +0.008 C 
ATOM     16  C   UNL     1      34.184  -7.683 -23.748  0.00  0.00    +0.008 C 
ATOM     17  C   UNL     1      32.630  -5.556 -24.666  0.00  0.00    +0.037 C 
ATOM     18  C   UNL     1      34.798  -6.549 -24.279  0.00  0.00    +0.037 C 
ATOM     19  C   UNL     1      34.020  -5.486 -24.739  0.00  0.00    +0.134 C 
BRANCH  19  20
ATOM     20  O   UNL     1      34.620  -4.379 -25.255  0.00  0.00    -0.506 OA
ATOM     21  H   UNL     1      35.553  -4.292 -25.220  0.00  0.00    +0.292 HD
ENDBRANCH  19  20
ENDBRANCH  12  14
ENDBRANCH   2  11
BRANCH   3  22
ATOM     22  O   UNL     1      32.739 -13.655 -23.618  0.00  0.00    -0.448 OA
BRANCH  22  24
ATOM     23  O   UNL     1      33.685 -14.021 -25.683  0.00  0.00    -0.245 OA
ATOM     24  C   UNL     1      33.492 -14.334 -24.519  0.00  0.00    +0.341 C 
BRANCH  24  25
ATOM     25  C   UNL     1      34.073 -15.548 -23.894  0.00  0.00    +0.076 C 
ATOM     26  C   UNL     1      33.866 -16.772 -24.498  0.00  0.00    +0.007 C 
ATOM     27  C   UNL     1      34.801 -15.417 -22.729  0.00  0.00    +0.007 C 
ATOM     28  C   UNL     1      34.411 -17.914 -23.910  0.00  0.00    +0.003 C 
ATOM     29  C   UNL     1      35.346 -16.558 -22.142  0.00  0.00    +0.003 C 
ATOM     30  C   UNL     1      35.151 -17.808 -22.732  0.00  0.00    +0.039 C 
BRANCH  30  32
ATOM     31  O   UNL     1      36.857 -19.378 -22.430  0.00  0.00    -0.286 OA
ATOM     32  C   UNL     1      35.719 -18.998 -22.120  0.00  0.00    +0.198 C 
BRANCH  32  33
ATOM     33  C   UNL     1      34.976 -19.809 -21.108  0.00  0.00    +0.073 C 
ATOM     34  C   UNL     1      35.670 -20.431 -20.095  0.00  0.00    +0.137 C 
ATOM     35  C   UNL     1      33.608 -19.897 -21.235  0.00  0.00    +0.006 C 
ATOM     36  C   UNL     1      34.959 -21.182 -19.161  0.00  0.00    +0.037 C 
ATOM     37  C   UNL     1      32.896 -20.648 -20.301  0.00  0.00    +0.000 C 
ATOM     38  C   UNL     1      33.572 -21.291 -19.264  0.00  0.00    +0.003 C 
BRANCH  34  39
ATOM     39  O   UNL     1      37.025 -20.336 -19.978  0.00  0.00    -0.505 OA
ATOM     40  H   UNL     1      37.407 -20.036 -19.176  0.00  0.00    +0.292 HD
ENDBRANCH  34  39
ENDBRANCH  32  33
ENDBRANCH  30  32
ENDBRANCH  24  25
ENDBRANCH  22  24
ENDBRANCH   3  22
TORSDOF 9
ENDMDL
MODEL 6
REMARK VINA RESULT:      -9.0      3.258      9.361
REMARK  Name = 10050566
REMARK  9 active torsions:
REMARK  status: ('A' for Active; 'I' for Inactive)
REMARK    1  A    between atoms: C_2  and  N_11
REMARK    2  A    between atoms: C_3  and  O_22
REMARK    3  A    between atoms: C_12  and  C_14
REMARK    4  A    between atoms: C_19  and  O_20
REMARK    5  A    between atoms: O_22  and  C_24
REMARK    6  A    between atoms: C_24  and  C_25
REMARK    7  A    between atoms: C_30  and  C_32
REMARK    8  A    between atoms: C_32  and  C_33
REMARK    9  A    between atoms: C_34  and  O_39
REMARK                            x       y       z     vdW  Elec       q    Type
REMARK                         _______ _______ _______ _____ _____    ______ ____
ROOT
ATOM      1  N   UNL     1      36.735 -25.256 -14.995  0.00  0.00    +0.385 N 
ATOM      2  C   UNL     1      34.881 -24.026 -16.138  0.00  0.00    +0.091 C 
ATOM      3  C   UNL     1      35.578 -22.656 -16.061  0.00  0.00    +0.185 C 
ATOM      4  C   UNL     1      36.144 -22.254 -14.694  0.00  0.00    +0.043 C 
ATOM      5  C   UNL     1      35.289 -25.062 -15.085  0.00  0.00    -0.058 C 
ATOM      6  C   UNL     1      37.448 -22.948 -14.294  0.00  0.00    -0.020 C 
ATOM      7  C   UNL     1      37.321 -24.426 -13.942  0.00  0.00    -0.082 C 
ATOM      8  H   UNL     1      37.160 -25.007 -15.888  0.00  0.00    -0.084 HD
ATOM      9  H   UNL     1      36.914 -26.234 -14.768  0.00  0.00    -0.084 HD
ENDROOT
BRANCH   2  11
ATOM     10  O   UNL     1      33.260 -23.913 -13.773  0.00  0.00    -0.270 OA
ATOM     11  N   UNL     1      33.442 -23.846 -16.083  0.00  0.00    -0.301 N 
ATOM     12  C   UNL     1      32.753 -23.805 -14.886  0.00  0.00    +0.246 C 
ATOM     13  H   UNL     1      32.941 -23.750 -16.925  0.00  0.00    +0.150 HD
BRANCH  12  14
ATOM     14  C   UNL     1      31.280 -23.641 -15.000  0.00  0.00    +0.054 C 
ATOM     15  C   UNL     1      30.472 -24.190 -14.026  0.00  0.00    +0.008 C 
ATOM     16  C   UNL     1      30.767 -22.948 -16.076  0.00  0.00    +0.008 C 
ATOM     17  C   UNL     1      29.090 -24.037 -14.132  0.00  0.00    +0.037 C 
ATOM     18  C   UNL     1      29.385 -22.794 -16.183  0.00  0.00    +0.037 C 
ATOM     19  C   UNL     1      28.547 -23.339 -15.210  0.00  0.00    +0.134 C 
BRANCH  19  20
ATOM     20  O   UNL     1      27.198 -23.188 -15.313  0.00  0.00    -0.506 OA
ATOM     21  H   UNL     1      26.836 -22.689 -16.019  0.00  0.00    +0.292 HD
ENDBRANCH  19  20
ENDBRANCH  12  14
ENDBRANCH   2  11
BRANCH   3  22
ATOM     22  O   UNL     1      36.607 -22.592 -17.054  0.00  0.00    -0.448 OA
BRANCH  22  24
ATOM     23  O   UNL     1      37.880 -20.732 -16.588  0.00  0.00    -0.245 OA
ATOM     24  C   UNL     1      37.107 -21.355 -17.299  0.00  0.00    +0.341 C 
BRANCH  24  25
ATOM     25  C   UNL     1      36.581 -20.832 -18.585  0.00  0.00    +0.076 C 
ATOM     26  C   UNL     1      37.320 -19.893 -19.275  0.00  0.00    +0.007 C 
ATOM     27  C   UNL     1      35.369 -21.299 -19.049  0.00  0.00    +0.007 C 
ATOM     28  C   UNL     1      36.825 -19.400 -20.482  0.00  0.00    +0.003 C 
ATOM     29  C   UNL     1      34.873 -20.806 -20.256  0.00  0.00    +0.003 C 
ATOM     30  C   UNL     1      35.602 -19.856 -20.974  0.00  0.00    +0.039 C 
BRANCH  30  32
ATOM     31  O   UNL     1      34.746 -20.123 -23.134  0.00  0.00    -0.286 OA
ATOM     32  C   UNL     1      35.085 -19.342 -22.232  0.00  0.00    +0.198 C 
BRANCH  32  33
ATOM     33  C   UNL     1      34.941 -17.879 -22.499  0.00  0.00    +0.073 C 
ATOM     34  C   UNL     1      34.627 -17.449 -23.768  0.00  0.00    +0.137 C 
ATOM     35  C   UNL     1      35.129 -17.013 -21.446  0.00  0.00    +0.006 C 
ATOM     36  C   UNL     1      34.496 -16.080 -23.997  0.00  0.00    +0.037 C 
ATOM     37  C   UNL     1      34.997 -15.644 -21.674  0.00  0.00    +0.000 C 
ATOM     38  C   UNL     1      34.682 -15.177 -22.950  0.00  0.00    +0.003 C 
BRANCH  34  39
ATOM     39  O   UNL     1      34.443 -18.315 -24.804  0.00  0.00    -0.505 OA
ATOM     40  H   UNL     1      34.939 -19.110 -24.845  0.00  0.00    +0.292 HD
ENDBRANCH  34  39
ENDBRANCH  32  33
ENDBRANCH  30  32
ENDBRANCH  24  25
ENDBRANCH  22  24
ENDBRANCH   3  22
TORSDOF 9
ENDMDL
MODEL 7
REMARK VINA RESULT:      -9.0     10.966     17.890
REMARK  Name = 10050566
REMARK  9 active torsions:
REMARK  status: ('A' for Active; 'I' for Inactive)
REMARK    1  A    between atoms: C_2  and  N_11
REMARK    2  A    between atoms: C_3  and  O_22
REMARK    3  A    between atoms: C_12  and  C_14
REMARK    4  A    between atoms: C_19  and  O_20
REMARK    5  A    between atoms: O_22  and  C_24
REMARK    6  A    between atoms: C_24  and  C_25
REMARK    7  A    between atoms: C_30  and  C_32
REMARK    8  A    between atoms: C_32  and  C_33
REMARK    9  A    between atoms: C_34  and  O_39
REMARK                            x       y       z     vdW  Elec       q    Type
REMARK                         _______ _______ _______ _____ _____    ______ ____
ROOT
ATOM      1  N   UNL     1      33.160 -12.475 -26.139  0.00  0.00    +0.385 N 
ATOM      2  C   UNL     1      33.084 -13.719 -23.970  0.00  0.00    +0.091 C 
ATOM      3  C   UNL     1      33.219 -12.456 -23.101  0.00  0.00    +0.185 C 
ATOM      4  C   UNL     1      34.342 -11.484 -23.480  0.00  0.00    +0.043 C 
ATOM      5  C   UNL     1      33.646 -13.635 -25.393  0.00  0.00    -0.058 C 
ATOM      6  C   UNL     1      34.071 -10.616 -24.711  0.00  0.00    -0.020 C 
ATOM      7  C   UNL     1      34.091 -11.350 -26.047  0.00  0.00    -0.082 C 
ATOM      8  H   UNL     1      32.257 -12.190 -25.759  0.00  0.00    -0.084 HD
ATOM      9  H   UNL     1      33.073 -12.739 -27.121  0.00  0.00    -0.084 HD
ENDROOT
BRANCH   2  11
ATOM     10  O   UNL     1      34.147 -16.084 -25.201  0.00  0.00    -0.270 OA
ATOM     11  N   UNL     1      33.696 -14.847 -23.293  0.00  0.00    -0.301 N 
ATOM     12  C   UNL     1      34.179 -15.943 -23.981  0.00  0.00    +0.246 C 
ATOM     13  H   UNL     1      33.769 -14.830 -22.311  0.00  0.00    +0.150 HD
BRANCH  12  14
ATOM     14  C   UNL     1      34.752 -17.026 -23.140  0.00  0.00    +0.054 C 
ATOM     15  C   UNL     1      34.618 -18.334 -23.558  0.00  0.00    +0.008 C 
ATOM     16  C   UNL     1      35.398 -16.690 -21.969  0.00  0.00    +0.008 C 
ATOM     17  C   UNL     1      35.156 -19.351 -22.770  0.00  0.00    +0.037 C 
ATOM     18  C   UNL     1      35.936 -17.707 -21.181  0.00  0.00    +0.037 C 
ATOM     19  C   UNL     1      35.815 -19.038 -21.581  0.00  0.00    +0.134 C 
BRANCH  19  20
ATOM     20  O   UNL     1      36.341 -20.030 -20.813  0.00  0.00    -0.506 OA
ATOM     21  H   UNL     1      36.979 -19.825 -20.157  0.00  0.00    +0.292 HD
ENDBRANCH  19  20
ENDBRANCH  12  14
ENDBRANCH   2  11
BRANCH   3  22
ATOM     22  O   UNL     1      31.966 -11.767 -23.069  0.00  0.00    -0.448 OA
BRANCH  22  24
ATOM     23  O   UNL     1      31.110 -12.022 -20.949  0.00  0.00    -0.245 OA
ATOM     24  C   UNL     1      31.566 -11.334 -21.848  0.00  0.00    +0.341 C 
BRANCH  24  25
ATOM     25  C   UNL     1      31.757  -9.866 -21.733  0.00  0.00    +0.076 C 
ATOM     26  C   UNL     1      31.961  -9.316 -20.484  0.00  0.00    +0.007 C 
ATOM     27  C   UNL     1      31.722  -9.097 -22.878  0.00  0.00    +0.007 C 
ATOM     28  C   UNL     1      32.138  -7.936 -20.376  0.00  0.00    +0.003 C 
ATOM     29  C   UNL     1      31.900  -7.718 -22.771  0.00  0.00    +0.003 C 
ATOM     30  C   UNL     1      32.108  -7.137 -21.519  0.00  0.00    +0.039 C 
BRANCH  30  32
ATOM     31  O   UNL     1      32.479  -5.178 -20.297  0.00  0.00    -0.286 OA
ATOM     32  C   UNL     1      32.293  -5.700 -21.406  0.00  0.00    +0.198 C 
BRANCH  32  33
ATOM     33  C   UNL     1      32.268  -4.794 -22.595  0.00  0.00    +0.073 C 
ATOM     34  C   UNL     1      33.229  -4.927 -23.570  0.00  0.00    +0.137 C 
ATOM     35  C   UNL     1      31.265  -3.853 -22.662  0.00  0.00    +0.006 C 
ATOM     36  C   UNL     1      33.187  -4.072 -24.671  0.00  0.00    +0.037 C 
ATOM     37  C   UNL     1      31.223  -2.998 -23.763  0.00  0.00    +0.000 C 
ATOM     38  C   UNL     1      32.184  -3.107 -24.767  0.00  0.00    +0.003 C 
BRANCH  34  39
ATOM     39  O   UNL     1      34.217  -5.862 -23.494  0.00  0.00    -0.505 OA
ATOM     40  H   UNL     1      34.413  -6.399 -24.237  0.00  0.00    +0.292 HD
ENDBRANCH  34  39
ENDBRANCH  32  33
ENDBRANCH  30  32
ENDBRANCH  24  25
ENDBRANCH  22  24
ENDBRANCH   3  22
TORSDOF 9
ENDMDL
MODEL 8
REMARK VINA RESULT:      -8.7     11.067     18.059
REMARK  Name = 10050566
REMARK  9 active torsions:
REMARK  status: ('A' for Active; 'I' for Inactive)
REMARK    1  A    between atoms: C_2  and  N_11
REMARK    2  A    between atoms: C_3  and  O_22
REMARK    3  A    between atoms: C_12  and  C_14
REMARK    4  A    between atoms: C_19  and  O_20
REMARK    5  A    between atoms: O_22  and  C_24
REMARK    6  A    between atoms: C_24  and  C_25
REMARK    7  A    between atoms: C_30  and  C_32
REMARK    8  A    between atoms: C_32  and  C_33
REMARK    9  A    between atoms: C_34  and  O_39
REMARK                            x       y       z     vdW  Elec       q    Type
REMARK                         _______ _______ _______ _____ _____    ______ ____
ROOT
ATOM      1  N   UNL     1      33.190 -12.637 -19.995  0.00  0.00    +0.385 N 
ATOM      2  C   UNL     1      34.086 -13.799 -22.021  0.00  0.00    +0.091 C 
ATOM      3  C   UNL     1      33.425 -12.830 -23.019  0.00  0.00    +0.185 C 
ATOM      4  C   UNL     1      31.937 -12.537 -22.801  0.00  0.00    +0.043 C 
ATOM      5  C   UNL     1      33.421 -13.925 -20.647  0.00  0.00    -0.058 C 
ATOM      6  C   UNL     1      31.618 -11.579 -21.650  0.00  0.00    -0.020 C 
ATOM      7  C   UNL     1      31.836 -12.143 -20.250  0.00  0.00    -0.082 C 
ATOM      8  H   UNL     1      33.863 -11.958 -20.353  0.00  0.00    -0.084 HD
ATOM      9  H   UNL     1      33.301 -12.762 -18.989  0.00  0.00    -0.084 HD
ENDROOT
BRANCH   2  11
ATOM     10  O   UNL     1      35.314 -16.112 -20.851  0.00  0.00    -0.270 OA
ATOM     11  N   UNL     1      34.186 -15.119 -22.615  0.00  0.00    -0.301 N 
ATOM     12  C   UNL     1      34.800 -16.172 -21.965  0.00  0.00    +0.246 C 
ATOM     13  H   UNL     1      33.803 -15.269 -23.510  0.00  0.00    +0.150 HD
BRANCH  12  14
ATOM     14  C   UNL     1      34.844 -17.452 -22.718  0.00  0.00    +0.054 C 
ATOM     15  C   UNL     1      35.441 -18.549 -22.131  0.00  0.00    +0.008 C 
ATOM     16  C   UNL     1      34.288 -17.504 -23.979  0.00  0.00    +0.008 C 
ATOM     17  C   UNL     1      35.483 -19.751 -22.837  0.00  0.00    +0.037 C 
ATOM     18  C   UNL     1      34.329 -18.706 -24.685  0.00  0.00    +0.037 C 
ATOM     19  C   UNL     1      34.927 -19.829 -24.114  0.00  0.00    +0.134 C 
BRANCH  19  20
ATOM     20  O   UNL     1      34.965 -21.003 -24.802  0.00  0.00    -0.506 OA
ATOM     21  H   UNL     1      35.107 -21.809 -24.345  0.00  0.00    +0.292 HD
ENDBRANCH  19  20
ENDBRANCH  12  14
ENDBRANCH   2  11
BRANCH   3  22
ATOM     22  O   UNL     1      34.165 -11.606 -23.051  0.00  0.00    -0.448 OA
BRANCH  22  24
ATOM     23  O   UNL     1      33.988 -11.146 -25.299  0.00  0.00    -0.245 OA
ATOM     24  C   UNL     1      33.936 -10.811 -24.126  0.00  0.00    +0.341 C 
BRANCH  24  25
ATOM     25  C   UNL     1      33.603  -9.433 -23.687  0.00  0.00    +0.076 C 
ATOM     26  C   UNL     1      34.624  -8.599 -23.278  0.00  0.00    +0.007 C 
ATOM     27  C   UNL     1      32.284  -9.028 -23.699  0.00  0.00    +0.007 C 
ATOM     28  C   UNL     1      34.311  -7.304 -22.863  0.00  0.00    +0.003 C 
ATOM     29  C   UNL     1      31.971  -7.734 -23.285  0.00  0.00    +0.003 C 
ATOM     30  C   UNL     1      32.985  -6.871 -22.867  0.00  0.00    +0.039 C 
BRANCH  30  32
ATOM     31  O   UNL     1      32.588  -5.252 -21.227  0.00  0.00    -0.286 OA
ATOM     32  C   UNL     1      32.659  -5.522 -22.436  0.00  0.00    +0.198 C 
BRANCH  32  33
ATOM     33  C   UNL     1      32.397  -4.413 -23.403  0.00  0.00    +0.073 C 
ATOM     34  C   UNL     1      31.457  -3.455 -23.099  0.00  0.00    +0.137 C 
ATOM     35  C   UNL     1      33.122  -4.399 -24.574  0.00  0.00    +0.006 C 
ATOM     36  C   UNL     1      31.228  -2.430 -24.015  0.00  0.00    +0.037 C 
ATOM     37  C   UNL     1      32.893  -3.373 -25.490  0.00  0.00    +0.000 C 
ATOM     38  C   UNL     1      31.945  -2.388 -25.211  0.00  0.00    +0.003 C 
BRANCH  34  39
ATOM     39  O   UNL     1      30.746  -3.478 -21.937  0.00  0.00    -0.505 OA
ATOM     40  H   UNL     1      30.710  -4.262 -21.424  0.00  0.00    +0.292 HD
ENDBRANCH  34  39
ENDBRANCH  32  33
ENDBRANCH  30  32
ENDBRANCH  24  25
ENDBRANCH  22  24
ENDBRANCH   3  22
TORSDOF 9
ENDMDL
