MODEL 1
REMARK VINA RESULT:     -11.2      0.000      0.000
REMARK  Name = 11507920
REMARK  4 active torsions:
REMARK  status: ('A' for Active; 'I' for Inactive)
REMARK    1  A    between atoms: C_1  and  C_8
REMARK    2  A    between atoms: C_2  and  C_17
REMARK    3  A    between atoms: C_17  and  N_18
REMARK    4  A    between atoms: N_18  and  C_21
REMARK                            x       y       z     vdW  Elec       q    Type
REMARK                         _______ _______ _______ _____ _____    ______ ____
ROOT
ATOM      1  C   UNL     1      34.679 -19.095 -21.906  0.00  0.00    -0.000 C 
ATOM      2  C   UNL     1      34.956 -16.855 -22.767  0.00  0.00    -0.003 C 
ATOM      3  C   UNL     1      34.980 -17.750 -21.696  0.00  0.00    -0.003 C 
ATOM      4  C   UNL     1      34.351 -19.547 -23.183  0.00  0.00    -0.000 C 
ATOM      5  C   UNL     1      34.628 -17.306 -24.046  0.00  0.00    -0.003 C 
ATOM      6  C   UNL     1      34.325 -18.653 -24.254  0.00  0.00    -0.000 C 
ENDROOT
BRANCH   1   8
ATOM      7  N   UNL     1      32.561 -22.034 -18.509  0.00  0.00    -0.312 N 
ATOM      8  C   UNL     1      34.703 -20.023 -20.794  0.00  0.00    +0.001 C 
ATOM      9  C   UNL     1      33.566 -21.404 -19.206  0.00  0.00    +0.048 C 
ATOM     10  C   UNL     1      34.777 -21.816 -18.645  0.00  0.00    +0.015 C 
ATOM     11  C   UNL     1      33.498 -20.509 -20.280  0.00  0.00    +0.015 C 
ATOM     12  C   UNL     1      35.926 -20.417 -20.254  0.00  0.00    +0.000 C 
ATOM     13  C   UNL     1      35.979 -21.312 -19.180  0.00  0.00    +0.001 C 
ATOM     14  C   UNL     1      34.461 -22.715 -17.588  0.00  0.00    +0.017 C 
ATOM     15  C   UNL     1      33.092 -22.828 -17.529  0.00  0.00    +0.062 C 
ATOM     16  H   UNL     1      31.598 -21.929 -18.689  0.00  0.00    +0.152 HD
ENDBRANCH   1   8
BRANCH   2  17
ATOM     17  C   UNL     1      35.278 -15.416 -22.545  0.00  0.00    +0.114 C 
BRANCH  17  18
ATOM     18  N   UNL     1      34.305 -14.539 -23.144  0.00  0.00    -0.327 N 
ATOM     19  H   UNL     1      34.190 -14.571 -24.121  0.00  0.00    +0.147 HD
BRANCH  18  21
ATOM     20  N   UNL     1      32.353 -11.519 -22.255  0.00  0.00    -0.228 NA
ATOM     21  C   UNL     1      33.519 -13.650 -22.423  0.00  0.00    +0.077 C 
ATOM     22  C   UNL     1      33.118 -12.410 -22.925  0.00  0.00    +0.139 C 
ATOM     23  C   UNL     1      33.084 -13.972 -21.130  0.00  0.00    +0.019 C 
ATOM     24  C   UNL     1      32.297 -13.081 -20.410  0.00  0.00    +0.022 C 
ATOM     25  C   UNL     1      31.961 -11.879 -21.012  0.00  0.00    +0.100 C 
ATOM     26  N   UNL     1      33.546 -12.062 -24.230  0.00  0.00    -0.342 N 
ATOM     27  H   UNL     1      33.283 -11.196 -24.619  0.00  0.00    +0.144 HD
ATOM     28  H   UNL     1      34.104 -12.684 -24.749  0.00  0.00    +0.144 HD
ENDBRANCH  18  21
ENDBRANCH  17  18
ENDBRANCH   2  17
TORSDOF 4
ENDMDL
MODEL 2
REMARK VINA RESULT:     -11.2      2.417      8.994
REMARK  Name = 11507920
REMARK  4 active torsions:
REMARK  status: ('A' for Active; 'I' for Inactive)
REMARK    1  A    between atoms: C_1  and  C_8
REMARK    2  A    between atoms: C_2  and  C_17
REMARK    3  A    between atoms: C_17  and  N_18
REMARK    4  A    between atoms: N_18  and  C_21
REMARK                            x       y       z     vdW  Elec       q    Type
REMARK                         _______ _______ _______ _____ _____    ______ ____
ROOT
ATOM      1  C   UNL     1      35.204 -20.245 -20.333  0.00  0.00    -0.000 C 
ATOM      2  C   UNL     1      34.277 -21.776 -18.712  0.00  0.00    -0.003 C 
ATOM      3  C   UNL     1      34.101 -20.889 -19.775  0.00  0.00    -0.003 C 
ATOM      4  C   UNL     1      36.482 -20.485 -19.832  0.00  0.00    -0.000 C 
ATOM      5  C   UNL     1      35.556 -22.017 -18.209  0.00  0.00    -0.003 C 
ATOM      6  C   UNL     1      36.659 -21.371 -18.768  0.00  0.00    -0.000 C 
ENDROOT
BRANCH   1   8
ATOM      7  N   UNL     1      35.118 -15.728 -22.397  0.00  0.00    -0.312 N 
ATOM      8  C   UNL     1      35.022 -19.323 -21.436  0.00  0.00    +0.001 C 
ATOM      9  C   UNL     1      35.013 -17.098 -22.313  0.00  0.00    +0.048 C 
ATOM     10  C   UNL     1      34.662 -17.562 -23.583  0.00  0.00    +0.015 C 
ATOM     11  C   UNL     1      35.199 -17.954 -21.221  0.00  0.00    +0.015 C 
ATOM     12  C   UNL     1      34.671 -19.815 -22.692  0.00  0.00    +0.000 C 
ATOM     13  C   UNL     1      34.488 -18.947 -23.775  0.00  0.00    +0.001 C 
ATOM     14  C   UNL     1      34.562 -16.423 -24.429  0.00  0.00    +0.017 C 
ATOM     15  C   UNL     1      34.847 -15.312 -23.672  0.00  0.00    +0.062 C 
ATOM     16  H   UNL     1      35.354 -15.134 -21.648  0.00  0.00    +0.152 HD
ENDBRANCH   1   8
BRANCH   2  17
ATOM     17  C   UNL     1      33.098 -22.466 -18.112  0.00  0.00    +0.114 C 
BRANCH  17  18
ATOM     18  N   UNL     1      33.415 -23.097 -16.857  0.00  0.00    -0.327 N 
ATOM     19  H   UNL     1      34.314 -23.482 -16.744  0.00  0.00    +0.147 HD
BRANCH  18  21
ATOM     20  N   UNL     1      32.100 -23.355 -13.403  0.00  0.00    -0.228 NA
ATOM     21  C   UNL     1      32.524 -23.193 -15.796  0.00  0.00    +0.077 C 
ATOM     22  C   UNL     1      32.935 -23.262 -14.463  0.00  0.00    +0.139 C 
ATOM     23  C   UNL     1      31.143 -23.225 -16.027  0.00  0.00    +0.019 C 
ATOM     24  C   UNL     1      30.253 -23.321 -14.963  0.00  0.00    +0.022 C 
ATOM     25  C   UNL     1      30.777 -23.382 -13.681  0.00  0.00    +0.100 C 
ATOM     26  N   UNL     1      34.328 -23.233 -14.203  0.00  0.00    -0.342 N 
ATOM     27  H   UNL     1      34.657 -23.279 -13.276  0.00  0.00    +0.144 HD
ATOM     28  H   UNL     1      34.967 -23.166 -14.949  0.00  0.00    +0.144 HD
ENDBRANCH  18  21
ENDBRANCH  17  18
ENDBRANCH   2  17
TORSDOF 4
ENDMDL
MODEL 3
REMARK VINA RESULT:     -11.0      1.400      2.237
REMARK  Name = 11507920
REMARK  4 active torsions:
REMARK  status: ('A' for Active; 'I' for Inactive)
REMARK    1  A    between atoms: C_1  and  C_8
REMARK    2  A    between atoms: C_2  and  C_17
REMARK    3  A    between atoms: C_17  and  N_18
REMARK    4  A    between atoms: N_18  and  C_21
REMARK                            x       y       z     vdW  Elec       q    Type
REMARK                         _______ _______ _______ _____ _____    ______ ____
ROOT
ATOM      1  C   UNL     1      35.021 -17.875 -22.453  0.00  0.00    -0.000 C 
ATOM      2  C   UNL     1      34.576 -15.602 -23.137  0.00  0.00    -0.003 C 
ATOM      3  C   UNL     1      35.002 -16.511 -22.168  0.00  0.00    -0.003 C 
ATOM      4  C   UNL     1      34.613 -18.334 -23.704  0.00  0.00    -0.000 C 
ATOM      5  C   UNL     1      34.168 -16.060 -24.390  0.00  0.00    -0.003 C 
ATOM      6  C   UNL     1      34.186 -17.426 -24.674  0.00  0.00    -0.000 C 
ENDROOT
BRANCH   1   8
ATOM      7  N   UNL     1      34.342 -21.584 -19.220  0.00  0.00    -0.312 N 
ATOM      8  C   UNL     1      35.462 -18.818 -21.446  0.00  0.00    +0.001 C 
ATOM      9  C   UNL     1      35.009 -20.607 -19.924  0.00  0.00    +0.048 C 
ATOM     10  C   UNL     1      36.340 -20.631 -19.500  0.00  0.00    +0.015 C 
ATOM     11  C   UNL     1      34.542 -19.713 -20.894  0.00  0.00    +0.015 C 
ATOM     12  C   UNL     1      36.796 -18.819 -21.042  0.00  0.00    +0.000 C 
ATOM     13  C   UNL     1      37.250 -19.719 -20.071  0.00  0.00    +0.001 C 
ATOM     14  C   UNL     1      36.446 -21.656 -18.519  0.00  0.00    +0.017 C 
ATOM     15  C   UNL     1      35.203 -22.223 -18.369  0.00  0.00    +0.062 C 
ATOM     16  H   UNL     1      33.385 -21.794 -19.315  0.00  0.00    +0.152 HD
ENDBRANCH   1   8
BRANCH   2  17
ATOM     17  C   UNL     1      34.556 -14.142 -22.834  0.00  0.00    +0.114 C 
BRANCH  17  18
ATOM     18  N   UNL     1      33.288 -13.536 -23.152  0.00  0.00    -0.327 N 
ATOM     19  H   UNL     1      32.556 -14.121 -23.453  0.00  0.00    +0.147 HD
BRANCH  18  21
ATOM     20  N   UNL     1      31.933 -10.298 -21.968  0.00  0.00    -0.228 NA
ATOM     21  C   UNL     1      33.040 -12.173 -23.060  0.00  0.00    +0.077 C 
ATOM     22  C   UNL     1      32.199 -11.618 -22.092  0.00  0.00    +0.139 C 
ATOM     23  C   UNL     1      33.639 -11.278 -23.955  0.00  0.00    +0.019 C 
ATOM     24  C   UNL     1      33.389  -9.913 -23.860  0.00  0.00    +0.022 C 
ATOM     25  C   UNL     1      32.537  -9.478 -22.858  0.00  0.00    +0.100 C 
ATOM     26  N   UNL     1      31.580 -12.504 -21.175  0.00  0.00    -0.342 N 
ATOM     27  H   UNL     1      30.981 -12.151 -20.478  0.00  0.00    +0.144 HD
ATOM     28  H   UNL     1      31.749 -13.472 -21.233  0.00  0.00    +0.144 HD
ENDBRANCH  18  21
ENDBRANCH  17  18
ENDBRANCH   2  17
TORSDOF 4
ENDMDL
MODEL 4
REMARK VINA RESULT:     -10.8      2.754      5.116
REMARK  Name = 11507920
REMARK  4 active torsions:
REMARK  status: ('A' for Active; 'I' for Inactive)
REMARK    1  A    between atoms: C_1  and  C_8
REMARK    2  A    between atoms: C_2  and  C_17
REMARK    3  A    between atoms: C_17  and  N_18
REMARK    4  A    between atoms: N_18  and  C_21
REMARK                            x       y       z     vdW  Elec       q    Type
REMARK                         _______ _______ _______ _____ _____    ______ ____
ROOT
ATOM      1  C   UNL     1      34.266 -21.922 -18.175  0.00  0.00    -0.000 C 
ATOM      2  C   UNL     1      34.553 -20.602 -20.178  0.00  0.00    -0.003 C 
ATOM      3  C   UNL     1      33.717 -21.201 -19.235  0.00  0.00    -0.003 C 
ATOM      4  C   UNL     1      35.650 -22.046 -18.057  0.00  0.00    -0.000 C 
ATOM      5  C   UNL     1      35.938 -20.726 -20.060  0.00  0.00    -0.003 C 
ATOM      6  C   UNL     1      36.486 -21.449 -19.000  0.00  0.00    -0.000 C 
ENDROOT
BRANCH   1   8
ATOM      7  N   UNL     1      29.840 -23.085 -16.246  0.00  0.00    -0.312 N 
ATOM      8  C   UNL     1      33.398 -22.544 -17.197  0.00  0.00    +0.001 C 
ATOM      9  C   UNL     1      31.210 -23.038 -16.366  0.00  0.00    +0.048 C 
ATOM     10  C   UNL     1      31.741 -23.756 -15.293  0.00  0.00    +0.015 C 
ATOM     11  C   UNL     1      32.013 -22.422 -17.333  0.00  0.00    +0.015 C 
ATOM     12  C   UNL     1      33.957 -23.254 -16.136  0.00  0.00    +0.000 C 
ATOM     13  C   UNL     1      33.142 -23.866 -15.176  0.00  0.00    +0.001 C 
ATOM     14  C   UNL     1      30.642 -24.235 -14.527  0.00  0.00    +0.017 C 
ATOM     15  C   UNL     1      29.487 -23.806 -15.138  0.00  0.00    +0.062 C 
ATOM     16  H   UNL     1      29.205 -22.661 -16.868  0.00  0.00    +0.152 HD
ENDBRANCH   1   8
BRANCH   2  17
ATOM     17  C   UNL     1      33.968 -19.831 -21.312  0.00  0.00    +0.114 C 
BRANCH  17  18
ATOM     18  N   UNL     1      34.978 -19.284 -22.181  0.00  0.00    -0.327 N 
ATOM     19  H   UNL     1      35.834 -19.765 -22.258  0.00  0.00    +0.147 HD
BRANCH  18  21
ATOM     20  N   UNL     1      34.086 -16.983 -24.942  0.00  0.00    -0.228 NA
ATOM     21  C   UNL     1      34.816 -18.117 -22.915  0.00  0.00    +0.077 C 
ATOM     22  C   UNL     1      34.262 -18.097 -24.197  0.00  0.00    +0.139 C 
ATOM     23  C   UNL     1      35.210 -16.882 -22.385  0.00  0.00    +0.019 C 
ATOM     24  C   UNL     1      35.046 -15.715 -23.122  0.00  0.00    +0.022 C 
ATOM     25  C   UNL     1      34.483 -15.818 -24.384  0.00  0.00    +0.100 C 
ATOM     26  N   UNL     1      33.856 -19.335 -24.756  0.00  0.00    -0.342 N 
ATOM     27  H   UNL     1      33.461 -19.362 -25.657  0.00  0.00    +0.144 HD
ATOM     28  H   UNL     1      33.969 -20.168 -24.243  0.00  0.00    +0.144 HD
ENDBRANCH  18  21
ENDBRANCH  17  18
ENDBRANCH   2  17
TORSDOF 4
ENDMDL
MODEL 5
REMARK VINA RESULT:     -10.8      3.926      7.004
REMARK  Name = 11507920
REMARK  4 active torsions:
REMARK  status: ('A' for Active; 'I' for Inactive)
REMARK    1  A    between atoms: C_1  and  C_8
REMARK    2  A    between atoms: C_2  and  C_17
REMARK    3  A    between atoms: C_17  and  N_18
REMARK    4  A    between atoms: N_18  and  C_21
REMARK                            x       y       z     vdW  Elec       q    Type
REMARK                         _______ _______ _______ _____ _____    ______ ____
ROOT
ATOM      1  C   UNL     1      34.302 -22.908 -16.159  0.00  0.00    -0.000 C 
ATOM      2  C   UNL     1      35.775 -22.082 -17.886  0.00  0.00    -0.003 C 
ATOM      3  C   UNL     1      34.499 -22.454 -17.463  0.00  0.00    -0.003 C 
ATOM      4  C   UNL     1      35.380 -22.991 -15.278  0.00  0.00    -0.000 C 
ATOM      5  C   UNL     1      36.854 -22.166 -17.006  0.00  0.00    -0.003 C 
ATOM      6  C   UNL     1      36.656 -22.621 -15.701  0.00  0.00    -0.000 C 
ENDROOT
BRANCH   1   8
ATOM      7  N   UNL     1      29.351 -23.038 -16.518  0.00  0.00    -0.312 N 
ATOM      8  C   UNL     1      32.978 -23.295 -15.720  0.00  0.00    +0.001 C 
ATOM      9  C   UNL     1      30.602 -23.285 -16.001  0.00  0.00    +0.048 C 
ATOM     10  C   UNL     1      30.427 -24.055 -14.850  0.00  0.00    +0.015 C 
ATOM     11  C   UNL     1      31.864 -22.890 -16.460  0.00  0.00    +0.015 C 
ATOM     12  C   UNL     1      32.833 -24.064 -14.566  0.00  0.00    +0.000 C 
ATOM     13  C   UNL     1      31.565 -24.451 -14.119  0.00  0.00    +0.001 C 
ATOM     14  C   UNL     1      29.028 -24.261 -14.695  0.00  0.00    +0.017 C 
ATOM     15  C   UNL     1      28.393 -23.624 -15.735  0.00  0.00    +0.062 C 
ATOM     16  H   UNL     1      29.170 -22.515 -17.333  0.00  0.00    +0.152 HD
ENDBRANCH   1   8
BRANCH   2  17
ATOM     17  C   UNL     1      35.988 -21.597 -19.280  0.00  0.00    +0.114 C 
BRANCH  17  18
ATOM     18  N   UNL     1      35.190 -20.437 -19.583  0.00  0.00    -0.327 N 
ATOM     19  H   UNL     1      34.527 -20.142 -18.917  0.00  0.00    +0.147 HD
BRANCH  18  21
ATOM     20  N   UNL     1      36.520 -18.136 -22.163  0.00  0.00    -0.228 NA
ATOM     21  C   UNL     1      35.301 -19.709 -20.760  0.00  0.00    +0.077 C 
ATOM     22  C   UNL     1      36.375 -18.859 -21.030  0.00  0.00    +0.139 C 
ATOM     23  C   UNL     1      34.314 -19.804 -21.750  0.00  0.00    +0.019 C 
ATOM     24  C   UNL     1      34.428 -19.075 -22.929  0.00  0.00    +0.022 C 
ATOM     25  C   UNL     1      35.539 -18.263 -23.086  0.00  0.00    +0.100 C 
ATOM     26  N   UNL     1      37.386 -18.745 -20.042  0.00  0.00    -0.342 N 
ATOM     27  H   UNL     1      38.159 -18.156 -20.196  0.00  0.00    +0.144 HD
ATOM     28  H   UNL     1      37.315 -19.256 -19.204  0.00  0.00    +0.144 HD
ENDBRANCH  18  21
ENDBRANCH  17  18
ENDBRANCH   2  17
TORSDOF 4
ENDMDL
MODEL 6
REMARK VINA RESULT:     -10.7      1.930      8.605
REMARK  Name = 11507920
REMARK  4 active torsions:
REMARK  status: ('A' for Active; 'I' for Inactive)
REMARK    1  A    between atoms: C_1  and  C_8
REMARK    2  A    between atoms: C_2  and  C_17
REMARK    3  A    between atoms: C_17  and  N_18
REMARK    4  A    between atoms: N_18  and  C_21
REMARK                            x       y       z     vdW  Elec       q    Type
REMARK                         _______ _______ _______ _____ _____    ______ ____
ROOT
ATOM      1  C   UNL     1      34.061 -14.901 -22.942  0.00  0.00    -0.000 C 
ATOM      2  C   UNL     1      35.162 -16.889 -22.123  0.00  0.00    -0.003 C 
ATOM      3  C   UNL     1      34.608 -15.630 -21.887  0.00  0.00    -0.003 C 
ATOM      4  C   UNL     1      34.068 -15.428 -24.233  0.00  0.00    -0.000 C 
ATOM      5  C   UNL     1      35.169 -17.417 -23.414  0.00  0.00    -0.003 C 
ATOM      6  C   UNL     1      34.623 -16.686 -24.470  0.00  0.00    -0.000 C 
ENDROOT
BRANCH   1   8
ATOM      7  N   UNL     1      33.342 -10.091 -23.950  0.00  0.00    -0.312 N 
ATOM      8  C   UNL     1      33.487 -13.594 -22.697  0.00  0.00    +0.001 C 
ATOM      9  C   UNL     1      33.221 -11.291 -23.286  0.00  0.00    +0.048 C 
ATOM     10  C   UNL     1      32.366 -11.077 -22.202  0.00  0.00    +0.015 C 
ATOM     11  C   UNL     1      33.796 -12.537 -23.558  0.00  0.00    +0.015 C 
ATOM     12  C   UNL     1      32.638 -13.410 -21.608  0.00  0.00    +0.000 C 
ATOM     13  C   UNL     1      32.070 -12.157 -21.347  0.00  0.00    +0.001 C 
ATOM     14  C   UNL     1      31.979  -9.708 -22.241  0.00  0.00    +0.017 C 
ATOM     15  C   UNL     1      32.596  -9.129 -23.325  0.00  0.00    +0.062 C 
ATOM     16  H   UNL     1      33.886  -9.947 -24.757  0.00  0.00    +0.152 HD
ENDBRANCH   1   8
BRANCH   2  17
ATOM     17  C   UNL     1      35.747 -17.671 -20.996  0.00  0.00    +0.114 C 
BRANCH  17  18
ATOM     18  N   UNL     1      35.693 -19.091 -21.229  0.00  0.00    -0.327 N 
ATOM     19  H   UNL     1      36.252 -19.465 -21.948  0.00  0.00    +0.147 HD
BRANCH  18  21
ATOM     20  N   UNL     1      34.671 -21.697 -18.803  0.00  0.00    -0.228 NA
ATOM     21  C   UNL     1      34.898 -19.964 -20.498  0.00  0.00    +0.077 C 
ATOM     22  C   UNL     1      35.412 -20.834 -19.535  0.00  0.00    +0.139 C 
ATOM     23  C   UNL     1      33.513 -20.004 -20.703  0.00  0.00    +0.019 C 
ATOM     24  C   UNL     1      32.718 -20.878 -19.970  0.00  0.00    +0.022 C 
ATOM     25  C   UNL     1      33.340 -21.696 -19.040  0.00  0.00    +0.100 C 
ATOM     26  N   UNL     1      36.811 -20.813 -19.311  0.00  0.00    -0.342 N 
ATOM     27  H   UNL     1      37.211 -21.412 -18.639  0.00  0.00    +0.144 HD
ATOM     28  H   UNL     1      37.383 -20.198 -19.825  0.00  0.00    +0.144 HD
ENDBRANCH  18  21
ENDBRANCH  17  18
ENDBRANCH   2  17
TORSDOF 4
ENDMDL
MODEL 7
REMARK VINA RESULT:     -10.7      3.436      8.848
REMARK  Name = 11507920
REMARK  4 active torsions:
REMARK  status: ('A' for Active; 'I' for Inactive)
REMARK    1  A    between atoms: C_1  and  C_8
REMARK    2  A    between atoms: C_2  and  C_17
REMARK    3  A    between atoms: C_17  and  N_18
REMARK    4  A    between atoms: N_18  and  C_21
REMARK                            x       y       z     vdW  Elec       q    Type
REMARK                         _______ _______ _______ _____ _____    ______ ____
ROOT
ATOM      1  C   UNL     1      35.376 -20.565 -19.793  0.00  0.00    -0.000 C 
ATOM      2  C   UNL     1      34.364 -22.309 -18.463  0.00  0.00    -0.003 C 
ATOM      3  C   UNL     1      34.279 -21.371 -19.493  0.00  0.00    -0.003 C 
ATOM      4  C   UNL     1      36.558 -20.693 -19.064  0.00  0.00    -0.000 C 
ATOM      5  C   UNL     1      35.546 -22.438 -17.733  0.00  0.00    -0.003 C 
ATOM      6  C   UNL     1      36.643 -21.629 -18.033  0.00  0.00    -0.000 C 
ENDROOT
BRANCH   1   8
ATOM      7  N   UNL     1      33.723 -18.885 -24.165  0.00  0.00    -0.312 N 
ATOM      8  C   UNL     1      35.288 -19.591 -20.861  0.00  0.00    +0.001 C 
ATOM      9  C   UNL     1      34.422 -18.893 -22.979  0.00  0.00    +0.048 C 
ATOM     10  C   UNL     1      35.133 -17.693 -22.914  0.00  0.00    +0.015 C 
ATOM     11  C   UNL     1      34.480 -19.860 -21.969  0.00  0.00    +0.015 C 
ATOM     12  C   UNL     1      36.009 -18.402 -20.769  0.00  0.00    +0.000 C 
ATOM     13  C   UNL     1      35.942 -17.443 -21.787  0.00  0.00    +0.001 C 
ATOM     14  C   UNL     1      34.835 -16.966 -24.100  0.00  0.00    +0.017 C 
ATOM     15  C   UNL     1      33.966 -17.725 -24.849  0.00  0.00    +0.062 C 
ATOM     16  H   UNL     1      33.133 -19.610 -24.475  0.00  0.00    +0.152 HD
ENDBRANCH   1   8
BRANCH   2  17
ATOM     17  C   UNL     1      33.192 -23.173 -18.141  0.00  0.00    +0.114 C 
BRANCH  17  18
ATOM     18  N   UNL     1      32.244 -22.509 -17.283  0.00  0.00    -0.327 N 
ATOM     19  H   UNL     1      31.817 -21.686 -17.612  0.00  0.00    +0.147 HD
BRANCH  18  21
ATOM     20  N   UNL     1      30.196 -23.575 -14.386  0.00  0.00    -0.228 NA
ATOM     21  C   UNL     1      31.897 -22.965 -16.018  0.00  0.00    +0.077 C 
ATOM     22  C   UNL     1      30.573 -23.133 -15.607  0.00  0.00    +0.139 C 
ATOM     23  C   UNL     1      32.888 -23.283 -15.080  0.00  0.00    +0.019 C 
ATOM     24  C   UNL     1      32.539 -23.739 -13.814  0.00  0.00    +0.022 C 
ATOM     25  C   UNL     1      31.191 -23.867 -13.519  0.00  0.00    +0.100 C 
ATOM     26  N   UNL     1      29.552 -22.816 -16.538  0.00  0.00    -0.342 N 
ATOM     27  H   UNL     1      28.606 -22.923 -16.286  0.00  0.00    +0.144 HD
ATOM     28  H   UNL     1      29.788 -22.492 -17.437  0.00  0.00    +0.144 HD
ENDBRANCH  18  21
ENDBRANCH  17  18
ENDBRANCH   2  17
TORSDOF 4
ENDMDL
MODEL 8
REMARK VINA RESULT:     -10.7      4.507     11.376
REMARK  Name = 11507920
REMARK  4 active torsions:
REMARK  status: ('A' for Active; 'I' for Inactive)
REMARK    1  A    between atoms: C_1  and  C_8
REMARK    2  A    between atoms: C_2  and  C_17
REMARK    3  A    between atoms: C_17  and  N_18
REMARK    4  A    between atoms: N_18  and  C_21
REMARK                            x       y       z     vdW  Elec       q    Type
REMARK                         _______ _______ _______ _____ _____    ______ ____
ROOT
ATOM      1  C   UNL     1      32.248  -8.961 -21.515  0.00  0.00    -0.000 C 
ATOM      2  C   UNL     1      32.050 -11.365 -21.389  0.00  0.00    -0.003 C 
ATOM      3  C   UNL     1      32.322 -10.212 -22.126  0.00  0.00    -0.003 C 
ATOM      4  C   UNL     1      31.900  -8.860 -20.169  0.00  0.00    -0.000 C 
ATOM      5  C   UNL     1      31.702 -11.265 -20.042  0.00  0.00    -0.003 C 
ATOM      6  C   UNL     1      31.626 -10.012 -19.432  0.00  0.00    -0.000 C 
ENDROOT
BRANCH   1   8
ATOM      7  N   UNL     1      30.974  -4.794 -23.899  0.00  0.00    -0.312 N 
ATOM      8  C   UNL     1      32.529  -7.764 -22.281  0.00  0.00    +0.001 C 
ATOM      9  C   UNL     1      31.791  -5.783 -23.398  0.00  0.00    +0.048 C 
ATOM     10  C   UNL     1      33.100  -5.457 -23.762  0.00  0.00    +0.015 C 
ATOM     11  C   UNL     1      31.476  -6.928 -22.659  0.00  0.00    +0.015 C 
ATOM     12  C   UNL     1      33.845  -7.465 -22.630  0.00  0.00    +0.000 C 
ATOM     13  C   UNL     1      34.146  -6.316 -23.370  0.00  0.00    +0.001 C 
ATOM     14  C   UNL     1      33.038  -4.240 -24.496  0.00  0.00    +0.017 C 
ATOM     15  C   UNL     1      31.719  -3.858 -24.563  0.00  0.00    +0.062 C 
ATOM     16  H   UNL     1      29.996  -4.765 -23.793  0.00  0.00    +0.152 HD
ENDBRANCH   1   8
BRANCH   2  17
ATOM     17  C   UNL     1      32.129 -12.704 -22.041  0.00  0.00    +0.114 C 
BRANCH  17  18
ATOM     18  N   UNL     1      33.340 -12.871 -22.803  0.00  0.00    -0.327 N 
ATOM     19  H   UNL     1      33.875 -12.070 -23.004  0.00  0.00    +0.147 HD
BRANCH  18  21
ATOM     20  N   UNL     1      34.025 -15.714 -25.075  0.00  0.00    -0.228 NA
ATOM     21  C   UNL     1      33.795 -14.096 -23.270  0.00  0.00    +0.077 C 
ATOM     22  C   UNL     1      33.597 -14.531 -24.582  0.00  0.00    +0.139 C 
ATOM     23  C   UNL     1      34.493 -14.966 -22.422  0.00  0.00    +0.019 C 
ATOM     24  C   UNL     1      34.948 -16.193 -22.892  0.00  0.00    +0.022 C 
ATOM     25  C   UNL     1      34.692 -16.517 -24.215  0.00  0.00    +0.100 C 
ATOM     26  N   UNL     1      32.892 -13.668 -25.459  0.00  0.00    -0.342 N 
ATOM     27  H   UNL     1      32.732 -13.939 -26.392  0.00  0.00    +0.144 HD
ATOM     28  H   UNL     1      32.564 -12.798 -25.137  0.00  0.00    +0.144 HD
ENDBRANCH  18  21
ENDBRANCH  17  18
ENDBRANCH   2  17
TORSDOF 4
ENDMDL
MODEL 9
REMARK VINA RESULT:     -10.7      2.816      4.961
REMARK  Name = 11507920
REMARK  4 active torsions:
REMARK  status: ('A' for Active; 'I' for Inactive)
REMARK    1  A    between atoms: C_1  and  C_8
REMARK    2  A    between atoms: C_2  and  C_17
REMARK    3  A    between atoms: C_17  and  N_18
REMARK    4  A    between atoms: N_18  and  C_21
REMARK                            x       y       z     vdW  Elec       q    Type
REMARK                         _______ _______ _______ _____ _____    ______ ____
ROOT
ATOM      1  C   UNL     1      34.448 -21.608 -18.510  0.00  0.00    -0.000 C 
ATOM      2  C   UNL     1      34.867 -20.142 -20.383  0.00  0.00    -0.003 C 
ATOM      3  C   UNL     1      35.336 -20.865 -19.285  0.00  0.00    -0.003 C 
ATOM      4  C   UNL     1      33.091 -21.630 -18.828  0.00  0.00    -0.000 C 
ATOM      5  C   UNL     1      33.509 -20.162 -20.702  0.00  0.00    -0.003 C 
ATOM      6  C   UNL     1      32.621 -20.906 -19.924  0.00  0.00    -0.000 C 
ENDROOT
BRANCH   1   8
ATOM      7  N   UNL     1      37.979 -23.178 -15.389  0.00  0.00    -0.312 N 
ATOM      8  C   UNL     1      34.935 -22.357 -17.370  0.00  0.00    +0.001 C 
ATOM      9  C   UNL     1      36.723 -23.043 -15.936  0.00  0.00    +0.048 C 
ATOM     10  C   UNL     1      35.853 -23.815 -15.162  0.00  0.00    +0.015 C 
ATOM     11  C   UNL     1      36.293 -22.305 -17.044  0.00  0.00    +0.015 C 
ATOM     12  C   UNL     1      34.044 -23.120 -16.617  0.00  0.00    +0.000 C 
ATOM     13  C   UNL     1      34.488 -23.854 -15.511  0.00  0.00    +0.001 C 
ATOM     14  C   UNL     1      36.632 -24.416 -14.134  0.00  0.00    +0.017 C 
ATOM     15  C   UNL     1      37.933 -24.005 -14.300  0.00  0.00    +0.062 C 
ATOM     16  H   UNL     1      38.792 -22.741 -15.732  0.00  0.00    +0.152 HD
ENDBRANCH   1   8
BRANCH   2  17
ATOM     17  C   UNL     1      35.815 -19.346 -21.214  0.00  0.00    +0.114 C 
BRANCH  17  18
ATOM     18  N   UNL     1      35.367 -19.209 -22.576  0.00  0.00    -0.327 N 
ATOM     19  H   UNL     1      35.361 -20.011 -23.145  0.00  0.00    +0.147 HD
BRANCH  18  21
ATOM     20  N   UNL     1      33.659 -16.798 -24.809  0.00  0.00    -0.228 NA
ATOM     21  C   UNL     1      34.942 -18.009 -23.131  0.00  0.00    +0.077 C 
ATOM     22  C   UNL     1      34.095 -17.944 -24.240  0.00  0.00    +0.139 C 
ATOM     23  C   UNL     1      35.354 -16.787 -22.586  0.00  0.00    +0.019 C 
ATOM     24  C   UNL     1      34.927 -15.587 -23.144  0.00  0.00    +0.022 C 
ATOM     25  C   UNL     1      34.087 -15.646 -24.245  0.00  0.00    +0.100 C 
ATOM     26  N   UNL     1      33.665 -19.168 -24.811  0.00  0.00    -0.342 N 
ATOM     27  H   UNL     1      33.068 -19.163 -25.594  0.00  0.00    +0.144 HD
ATOM     28  H   UNL     1      33.962 -20.023 -24.425  0.00  0.00    +0.144 HD
ENDBRANCH  18  21
ENDBRANCH  17  18
ENDBRANCH   2  17
TORSDOF 4
ENDMDL
