MODEL 1
REMARK VINA RESULT:     -12.2      0.000      0.000
REMARK  Name = 11538992
REMARK  4 active torsions:
REMARK  status: ('A' for Active; 'I' for Inactive)
REMARK    1  A    between atoms: C_1  and  N_7
REMARK    2  A    between atoms: C_3  and  C_24
REMARK    3  A    between atoms: C_4  and  N_30
REMARK    4  A    between atoms: C_15  and  C_20
REMARK                            x       y       z     vdW  Elec       q    Type
REMARK                         _______ _______ _______ _____ _____    ______ ____
ROOT
ATOM      1  C   UNL     1      33.340 -11.632 -23.395  0.00  0.00    -0.059 C 
ATOM      2  C   UNL     1      34.427 -10.558 -23.505  0.00  0.00    -0.042 C 
ATOM      3  C   UNL     1      32.958  -8.938 -22.201  0.00  0.00    +0.005 C 
ATOM      4  C   UNL     1      33.824  -9.143 -23.471  0.00  0.00    -0.064 C 
ATOM      5  C   UNL     1      32.500 -11.436 -22.130  0.00  0.00    -0.021 C 
ATOM      6  C   UNL     1      31.886 -10.039 -22.084  0.00  0.00    +0.000 C 
ENDROOT
BRANCH   1   7
ATOM      7  N   UNL     1      33.954 -12.960 -23.380  0.00  0.00    +0.394 N 
ATOM      8  N   UNL     1      34.379 -15.705 -23.199  0.00  0.00    -0.299 N 
ATOM      9  N   UNL     1      33.871 -16.156 -25.272  0.00  0.00    -0.136 NA
ATOM     10  N   UNL     1      34.396 -17.295 -24.682  0.00  0.00    -0.125 NA
ATOM     11  C   UNL     1      33.785 -13.600 -22.063  0.00  0.00    -0.052 C 
ATOM     12  C   UNL     1      33.388 -13.801 -24.455  0.00  0.00    -0.009 C 
ATOM     13  C   UNL     1      34.568 -14.920 -22.002  0.00  0.00    +0.086 C 
ATOM     14  C   UNL     1      33.872 -15.204 -24.364  0.00  0.00    +0.122 A 
ATOM     15  C   UNL     1      34.696 -17.000 -23.435  0.00  0.00    +0.238 A 
ATOM     16  H   UNL     1      34.955 -12.854 -23.550  0.00  0.00    -0.079 HD
BRANCH  15  20
ATOM     17  F   UNL     1      36.580 -18.280 -22.703  0.00  0.00    -0.163 F 
ATOM     18  F   UNL     1      35.360 -17.356 -21.165  0.00  0.00    -0.163 F 
ATOM     19  F   UNL     1      34.601 -19.070 -22.270  0.00  0.00    -0.163 F 
ATOM     20  C   UNL     1      35.291 -17.894 -22.428  0.00  0.00    +0.452 C 
ENDBRANCH  15  20
ENDBRANCH   1   7
BRANCH   3  24
ATOM     21  F   UNL     1      32.678  -7.470 -19.788  0.00  0.00    -0.204 F 
ATOM     22  F   UNL     1      30.762  -5.137 -24.349  0.00  0.00    -0.202 F 
ATOM     23  F   UNL     1      30.558  -3.836 -21.954  0.00  0.00    -0.202 F 
ATOM     24  C   UNL     1      32.310  -7.562 -22.131  0.00  0.00    +0.005 C 
ATOM     25  C   UNL     1      32.210  -6.904 -20.909  0.00  0.00    +0.138 C 
ATOM     26  C   UNL     1      31.825  -6.971 -23.293  0.00  0.00    +0.030 C 
ATOM     27  C   UNL     1      31.231  -5.711 -23.234  0.00  0.00    +0.167 C 
ATOM     28  C   UNL     1      31.616  -5.644 -20.850  0.00  0.00    +0.061 C 
ATOM     29  C   UNL     1      31.127  -5.047 -22.011  0.00  0.00    +0.170 C 
ENDBRANCH   3  24
BRANCH   4  30
ATOM     30  N   UNL     1      34.903  -8.152 -23.530  0.00  0.00    +0.382 N 
ATOM     31  H   UNL     1      34.531  -7.263 -23.863  0.00  0.00    -0.089 HD
ATOM     32  H   UNL     1      35.629  -8.477 -24.168  0.00  0.00    -0.089 HD
ATOM     33  H   UNL     1      35.301  -8.027 -22.598  0.00  0.00    -0.089 HD
ENDBRANCH   4  30
TORSDOF 4
ENDMDL
MODEL 2
REMARK VINA RESULT:     -12.0      8.008     12.011
REMARK  Name = 11538992
REMARK  4 active torsions:
REMARK  status: ('A' for Active; 'I' for Inactive)
REMARK    1  A    between atoms: C_1  and  N_7
REMARK    2  A    between atoms: C_3  and  C_24
REMARK    3  A    between atoms: C_4  and  N_30
REMARK    4  A    between atoms: C_15  and  C_20
REMARK                            x       y       z     vdW  Elec       q    Type
REMARK                         _______ _______ _______ _____ _____    ______ ____
ROOT
ATOM      1  C   UNL     1      34.904 -22.232 -18.728  0.00  0.00    -0.059 C 
ATOM      2  C   UNL     1      36.130 -21.314 -18.773  0.00  0.00    -0.042 C 
ATOM      3  C   UNL     1      34.852 -19.679 -20.247  0.00  0.00    +0.005 C 
ATOM      4  C   UNL     1      36.164 -20.485 -20.068  0.00  0.00    -0.064 C 
ATOM      5  C   UNL     1      33.610 -21.428 -18.886  0.00  0.00    -0.021 C 
ATOM      6  C   UNL     1      33.623 -20.606 -20.173  0.00  0.00    +0.000 C 
ENDROOT
BRANCH   1   7
ATOM      7  N   UNL     1      34.879 -22.965 -17.462  0.00  0.00    +0.394 N 
ATOM      8  N   UNL     1      34.654 -23.644 -14.772  0.00  0.00    -0.299 N 
ATOM      9  N   UNL     1      32.494 -23.947 -14.788  0.00  0.00    -0.136 NA
ATOM     10  N   UNL     1      32.997 -24.373 -13.569  0.00  0.00    -0.125 NA
ATOM     11  C   UNL     1      35.888 -22.432 -16.528  0.00  0.00    -0.052 C 
ATOM     12  C   UNL     1      33.528 -22.917 -16.866  0.00  0.00    -0.009 C 
ATOM     13  C   UNL     1      35.968 -23.306 -15.267  0.00  0.00    +0.086 C 
ATOM     14  C   UNL     1      33.509 -23.513 -15.504  0.00  0.00    +0.122 A 
ATOM     15  C   UNL     1      34.299 -24.183 -13.583  0.00  0.00    +0.238 A 
ATOM     16  H   UNL     1      35.112 -23.941 -17.650  0.00  0.00    -0.079 HD
BRANCH  15  20
ATOM     17  F   UNL     1      36.214 -25.419 -12.856  0.00  0.00    -0.163 F 
ATOM     18  F   UNL     1      35.971 -23.419 -12.053  0.00  0.00    -0.163 F 
ATOM     19  F   UNL     1      34.661 -25.022 -11.388  0.00  0.00    -0.163 F 
ATOM     20  C   UNL     1      35.255 -24.500 -12.508  0.00  0.00    +0.452 C 
ENDBRANCH  15  20
ENDBRANCH   1   7
BRANCH   3  24
ATOM     21  F   UNL     1      35.539 -16.927 -20.359  0.00  0.00    -0.204 F 
ATOM     22  F   UNL     1      34.043 -19.305 -25.052  0.00  0.00    -0.202 F 
ATOM     23  F   UNL     1      34.730 -16.661 -25.015  0.00  0.00    -0.202 F 
ATOM     24  C   UNL     1      34.819 -18.862 -21.532  0.00  0.00    +0.005 C 
ATOM     25  C   UNL     1      35.170 -17.516 -21.506  0.00  0.00    +0.138 C 
ATOM     26  C   UNL     1      34.439 -19.470 -22.723  0.00  0.00    +0.030 C 
ATOM     27  C   UNL     1      34.408 -18.726 -23.902  0.00  0.00    +0.167 C 
ATOM     28  C   UNL     1      35.140 -16.771 -22.685  0.00  0.00    +0.061 C 
ATOM     29  C   UNL     1      34.758 -17.375 -23.882  0.00  0.00    +0.170 C 
ENDBRANCH   3  24
BRANCH   4  30
ATOM     30  N   UNL     1      37.325 -19.590 -20.043  0.00  0.00    +0.382 N 
ATOM     31  H   UNL     1      38.080 -20.027 -19.514  0.00  0.00    -0.089 HD
ATOM     32  H   UNL     1      37.066 -18.709 -19.599  0.00  0.00    -0.089 HD
ATOM     33  H   UNL     1      37.638 -19.411 -20.997  0.00  0.00    -0.089 HD
ENDBRANCH   4  30
TORSDOF 4
ENDMDL
MODEL 3
REMARK VINA RESULT:     -11.7      0.841      1.573
REMARK  Name = 11538992
REMARK  4 active torsions:
REMARK  status: ('A' for Active; 'I' for Inactive)
REMARK    1  A    between atoms: C_1  and  N_7
REMARK    2  A    between atoms: C_3  and  C_24
REMARK    3  A    between atoms: C_4  and  N_30
REMARK    4  A    between atoms: C_15  and  C_20
REMARK                            x       y       z     vdW  Elec       q    Type
REMARK                         _______ _______ _______ _____ _____    ______ ____
ROOT
ATOM      1  C   UNL     1      33.365 -11.997 -23.411  0.00  0.00    -0.059 C 
ATOM      2  C   UNL     1      34.437 -10.912 -23.566  0.00  0.00    -0.042 C 
ATOM      3  C   UNL     1      32.997  -9.299 -22.222  0.00  0.00    +0.005 C 
ATOM      4  C   UNL     1      33.820  -9.504 -23.519  0.00  0.00    -0.064 C 
ATOM      5  C   UNL     1      32.568 -11.801 -22.119  0.00  0.00    -0.021 C 
ATOM      6  C   UNL     1      31.941 -10.410 -22.061  0.00  0.00    +0.000 C 
ENDROOT
BRANCH   1   7
ATOM      7  N   UNL     1      33.994 -13.318 -23.409  0.00  0.00    +0.394 N 
ATOM      8  N   UNL     1      34.464 -16.053 -23.181  0.00  0.00    -0.299 N 
ATOM      9  N   UNL     1      33.779 -16.574 -25.186  0.00  0.00    -0.136 NA
ATOM     10  N   UNL     1      34.367 -17.689 -24.609  0.00  0.00    -0.125 NA
ATOM     11  C   UNL     1      33.948 -13.917 -22.063  0.00  0.00    -0.052 C 
ATOM     12  C   UNL     1      33.344 -14.199 -24.403  0.00  0.00    -0.009 C 
ATOM     13  C   UNL     1      34.749 -15.228 -22.030  0.00  0.00    +0.086 C 
ATOM     14  C   UNL     1      33.850 -15.593 -24.311  0.00  0.00    +0.122 A 
ATOM     15  C   UNL     1      34.773 -17.351 -23.403  0.00  0.00    +0.238 A 
ATOM     16  H   UNL     1      34.974 -13.209 -23.670  0.00  0.00    -0.079 HD
BRANCH  15  20
ATOM     17  F   UNL     1      36.833 -18.207 -22.539  0.00  0.00    -0.163 F 
ATOM     18  F   UNL     1      35.233 -17.868 -21.114  0.00  0.00    -0.163 F 
ATOM     19  F   UNL     1      35.108 -19.530 -22.512  0.00  0.00    -0.163 F 
ATOM     20  C   UNL     1      35.464 -18.207 -22.425  0.00  0.00    +0.452 C 
ENDBRANCH  15  20
ENDBRANCH   1   7
BRANCH   3  24
ATOM     21  F   UNL     1      31.360  -8.232 -24.280  0.00  0.00    -0.204 F 
ATOM     22  F   UNL     1      32.109  -5.123 -19.844  0.00  0.00    -0.202 F 
ATOM     23  F   UNL     1      30.557  -4.220 -21.903  0.00  0.00    -0.202 F 
ATOM     24  C   UNL     1      32.338  -7.929 -22.139  0.00  0.00    +0.005 C 
ATOM     25  C   UNL     1      31.548  -7.475 -23.190  0.00  0.00    +0.138 C 
ATOM     26  C   UNL     1      32.530  -7.141 -21.008  0.00  0.00    +0.030 C 
ATOM     27  C   UNL     1      31.928  -5.886 -20.929  0.00  0.00    +0.167 C 
ATOM     28  C   UNL     1      30.946  -6.220 -23.110  0.00  0.00    +0.061 C 
ATOM     29  C   UNL     1      31.136  -5.425 -21.981  0.00  0.00    +0.170 C 
ENDBRANCH   3  24
BRANCH   4  30
ATOM     30  N   UNL     1      34.887  -8.502 -23.621  0.00  0.00    +0.382 N 
ATOM     31  H   UNL     1      35.526  -8.606 -22.833  0.00  0.00    -0.089 HD
ATOM     32  H   UNL     1      34.479  -7.568 -23.607  0.00  0.00    -0.089 HD
ATOM     33  H   UNL     1      35.399  -8.638 -24.493  0.00  0.00    -0.089 HD
ENDBRANCH   4  30
TORSDOF 4
ENDMDL
MODEL 4
REMARK VINA RESULT:     -11.7      7.147     11.295
REMARK  Name = 11538992
REMARK  4 active torsions:
REMARK  status: ('A' for Active; 'I' for Inactive)
REMARK    1  A    between atoms: C_1  and  N_7
REMARK    2  A    between atoms: C_3  and  C_24
REMARK    3  A    between atoms: C_4  and  N_30
REMARK    4  A    between atoms: C_15  and  C_20
REMARK                            x       y       z     vdW  Elec       q    Type
REMARK                         _______ _______ _______ _____ _____    ______ ____
ROOT
ATOM      1  C   UNL     1      35.494 -21.600 -19.367  0.00  0.00    -0.059 C 
ATOM      2  C   UNL     1      36.653 -20.601 -19.450  0.00  0.00    -0.042 C 
ATOM      3  C   UNL     1      35.167 -18.984 -20.737  0.00  0.00    +0.005 C 
ATOM      4  C   UNL     1      36.537 -19.708 -20.697  0.00  0.00    -0.064 C 
ATOM      5  C   UNL     1      34.144 -20.878 -19.388  0.00  0.00    -0.021 C 
ATOM      6  C   UNL     1      34.008 -19.994 -20.626  0.00  0.00    +0.000 C 
ENDROOT
BRANCH   1   7
ATOM      7  N   UNL     1      35.610 -22.395 -18.145  0.00  0.00    +0.394 N 
ATOM      8  N   UNL     1      35.583 -23.233 -15.490  0.00  0.00    -0.299 N 
ATOM      9  N   UNL     1      33.475 -23.792 -15.444  0.00  0.00    -0.136 NA
ATOM     10  N   UNL     1      34.077 -24.217 -14.270  0.00  0.00    -0.125 NA
ATOM     11  C   UNL     1      36.588 -21.793 -17.220  0.00  0.00    -0.052 C 
ATOM     12  C   UNL     1      34.290 -22.540 -17.497  0.00  0.00    -0.009 C 
ATOM     13  C   UNL     1      36.825 -22.715 -16.014  0.00  0.00    +0.086 C 
ATOM     14  C   UNL     1      34.401 -23.203 -16.171  0.00  0.00    +0.122 A 
ATOM     15  C   UNL     1      35.346 -23.872 -14.321  0.00  0.00    +0.238 A 
ATOM     16  H   UNL     1      35.948 -23.325 -18.396  0.00  0.00    -0.079 HD
BRANCH  15  20
ATOM     17  F   UNL     1      37.451 -24.856 -13.752  0.00  0.00    -0.163 F 
ATOM     18  F   UNL     1      36.940 -22.990 -12.771  0.00  0.00    -0.163 F 
ATOM     19  F   UNL     1      35.911 -24.824 -12.217  0.00  0.00    -0.163 F 
ATOM     20  C   UNL     1      36.378 -24.126 -13.302  0.00  0.00    +0.452 C 
ENDBRANCH  15  20
ENDBRANCH   1   7
BRANCH   3  24
ATOM     21  F   UNL     1      34.706 -20.030 -23.335  0.00  0.00    -0.204 F 
ATOM     22  F   UNL     1      34.935 -14.587 -22.858  0.00  0.00    -0.202 F 
ATOM     23  F   UNL     1      34.498 -15.731 -25.301  0.00  0.00    -0.202 F 
ATOM     24  C   UNL     1      34.987 -18.108 -21.970  0.00  0.00    +0.005 C 
ATOM     25  C   UNL     1      34.764 -18.697 -23.211  0.00  0.00    +0.138 C 
ATOM     26  C   UNL     1      35.045 -16.724 -21.845  0.00  0.00    +0.030 C 
ATOM     27  C   UNL     1      34.880 -15.920 -22.972  0.00  0.00    +0.167 C 
ATOM     28  C   UNL     1      34.599 -17.892 -24.338  0.00  0.00    +0.061 C 
ATOM     29  C   UNL     1      34.658 -16.504 -24.219  0.00  0.00    +0.170 C 
ENDBRANCH   3  24
BRANCH   4  30
ATOM     30  N   UNL     1      37.638 -18.739 -20.706  0.00  0.00    +0.382 N 
ATOM     31  H   UNL     1      37.398 -17.958 -21.316  0.00  0.00    -0.089 HD
ATOM     32  H   UNL     1      38.485 -19.190 -21.049  0.00  0.00    -0.089 HD
ATOM     33  H   UNL     1      37.796 -18.395 -19.758  0.00  0.00    -0.089 HD
ENDBRANCH   4  30
TORSDOF 4
ENDMDL
MODEL 5
REMARK VINA RESULT:     -11.6      1.439      2.313
REMARK  Name = 11538992
REMARK  4 active torsions:
REMARK  status: ('A' for Active; 'I' for Inactive)
REMARK    1  A    between atoms: C_1  and  N_7
REMARK    2  A    between atoms: C_3  and  C_24
REMARK    3  A    between atoms: C_4  and  N_30
REMARK    4  A    between atoms: C_15  and  C_20
REMARK                            x       y       z     vdW  Elec       q    Type
REMARK                         _______ _______ _______ _____ _____    ______ ____
ROOT
ATOM      1  C   UNL     1      34.011 -12.247 -22.454  0.00  0.00    -0.059 C 
ATOM      2  C   UNL     1      32.551 -12.238 -21.990  0.00  0.00    -0.042 C 
ATOM      3  C   UNL     1      32.287  -9.862 -22.864  0.00  0.00    +0.005 C 
ATOM      4  C   UNL     1      32.075 -10.813 -21.658  0.00  0.00    -0.064 C 
ATOM      5  C   UNL     1      34.210 -11.321 -23.657  0.00  0.00    -0.021 C 
ATOM      6  C   UNL     1      33.752  -9.898 -23.342  0.00  0.00    +0.000 C 
ENDROOT
BRANCH   1   7
ATOM      7  N   UNL     1      34.410 -13.609 -22.808  0.00  0.00    +0.394 N 
ATOM      8  N   UNL     1      34.437 -16.360 -23.237  0.00  0.00    -0.299 N 
ATOM      9  N   UNL     1      33.541 -16.294 -25.225  0.00  0.00    -0.136 NA
ATOM     10  N   UNL     1      33.974 -17.586 -24.972  0.00  0.00    -0.125 NA
ATOM     11  C   UNL     1      34.358 -14.493 -21.629  0.00  0.00    -0.052 C 
ATOM     12  C   UNL     1      33.558 -14.129 -23.898  0.00  0.00    -0.009 C 
ATOM     13  C   UNL     1      34.932 -15.877 -21.969  0.00  0.00    +0.086 C 
ATOM     14  C   UNL     1      33.832 -15.565 -24.168  0.00  0.00    +0.122 A 
ATOM     15  C   UNL     1      34.511 -17.601 -23.771  0.00  0.00    +0.238 A 
ATOM     16  H   UNL     1      35.376 -13.586 -23.139  0.00  0.00    -0.079 HD
BRANCH  15  20
ATOM     17  F   UNL     1      36.452 -18.607 -22.799  0.00  0.00    -0.163 F 
ATOM     18  F   UNL     1      34.544 -19.051 -21.868  0.00  0.00    -0.163 F 
ATOM     19  F   UNL     1      35.037 -19.920 -23.800  0.00  0.00    -0.163 F 
ATOM     20  C   UNL     1      35.116 -18.754 -23.082  0.00  0.00    +0.452 C 
ENDBRANCH  15  20
ENDBRANCH   1   7
BRANCH   3  24
ATOM     21  F   UNL     1      31.034  -8.199 -24.793  0.00  0.00    -0.204 F 
ATOM     22  F   UNL     1      31.907  -6.037 -19.845  0.00  0.00    -0.202 F 
ATOM     23  F   UNL     1      30.709  -4.549 -21.799  0.00  0.00    -0.202 F 
ATOM     24  C   UNL     1      31.861  -8.428 -22.580  0.00  0.00    +0.005 C 
ATOM     25  C   UNL     1      31.251  -7.675 -23.578  0.00  0.00    +0.138 C 
ATOM     26  C   UNL     1      32.084  -7.882 -21.320  0.00  0.00    +0.030 C 
ATOM     27  C   UNL     1      31.695  -6.569 -21.056  0.00  0.00    +0.167 C 
ATOM     28  C   UNL     1      30.862  -6.362 -23.314  0.00  0.00    +0.061 C 
ATOM     29  C   UNL     1      31.084  -5.809 -22.054  0.00  0.00    +0.170 C 
ENDBRANCH   3  24
BRANCH   4  30
ATOM     30  N   UNL     1      30.662 -10.850 -21.267  0.00  0.00    +0.382 N 
ATOM     31  H   UNL     1      30.539 -11.513 -20.502  0.00  0.00    -0.089 HD
ATOM     32  H   UNL     1      30.097 -11.142 -22.064  0.00  0.00    -0.089 HD
ATOM     33  H   UNL     1      30.369  -9.921 -20.963  0.00  0.00    -0.089 HD
ENDBRANCH   4  30
TORSDOF 4
ENDMDL
MODEL 6
REMARK VINA RESULT:     -11.4      1.354      2.088
REMARK  Name = 11538992
REMARK  4 active torsions:
REMARK  status: ('A' for Active; 'I' for Inactive)
REMARK    1  A    between atoms: C_1  and  N_7
REMARK    2  A    between atoms: C_3  and  C_24
REMARK    3  A    between atoms: C_4  and  N_30
REMARK    4  A    between atoms: C_15  and  C_20
REMARK                            x       y       z     vdW  Elec       q    Type
REMARK                         _______ _______ _______ _____ _____    ______ ____
ROOT
ATOM      1  C   UNL     1      32.825 -12.690 -22.866  0.00  0.00    -0.059 C 
ATOM      2  C   UNL     1      34.022 -11.823 -23.270  0.00  0.00    -0.042 C 
ATOM      3  C   UNL     1      32.882  -9.781 -22.265  0.00  0.00    +0.005 C 
ATOM      4  C   UNL     1      33.603 -10.362 -23.508  0.00  0.00    -0.064 C 
ATOM      5  C   UNL     1      32.128 -12.122 -21.627  0.00  0.00    -0.021 C 
ATOM      6  C   UNL     1      31.696 -10.674 -21.850  0.00  0.00    +0.000 C 
ENDROOT
BRANCH   1   7
ATOM      7  N   UNL     1      33.270 -14.057 -22.600  0.00  0.00    +0.394 N 
ATOM      8  N   UNL     1      34.826 -16.313 -22.110  0.00  0.00    -0.299 N 
ATOM      9  N   UNL     1      34.970 -16.032 -19.951  0.00  0.00    -0.136 NA
ATOM     10  N   UNL     1      35.497 -17.272 -20.277  0.00  0.00    -0.125 NA
ATOM     11  C   UNL     1      34.140 -14.546 -23.685  0.00  0.00    -0.052 C 
ATOM     12  C   UNL     1      33.960 -14.129 -21.295  0.00  0.00    -0.009 C 
ATOM     13  C   UNL     1      34.471 -16.032 -23.481  0.00  0.00    +0.086 C 
ATOM     14  C   UNL     1      34.566 -15.468 -21.069  0.00  0.00    +0.122 A 
ATOM     15  C   UNL     1      35.398 -17.420 -21.581  0.00  0.00    +0.238 A 
ATOM     16  H   UNL     1      32.448 -14.662 -22.561  0.00  0.00    -0.079 HD
BRANCH  15  20
ATOM     17  F   UNL     1      35.448 -19.797 -21.848  0.00  0.00    -0.163 F 
ATOM     18  F   UNL     1      35.314 -18.606 -23.656  0.00  0.00    -0.163 F 
ATOM     19  F   UNL     1      37.178 -18.674 -22.537  0.00  0.00    -0.163 F 
ATOM     20  C   UNL     1      35.818 -18.585 -22.378  0.00  0.00    +0.452 C 
ENDBRANCH  15  20
ENDBRANCH   1   7
BRANCH   3  24
ATOM     21  F   UNL     1      33.129  -7.783 -20.263  0.00  0.00    -0.204 F 
ATOM     22  F   UNL     1      30.859  -6.277 -25.006  0.00  0.00    -0.202 F 
ATOM     23  F   UNL     1      31.159  -4.455 -22.990  0.00  0.00    -0.202 F 
ATOM     24  C   UNL     1      32.417  -8.343 -22.458  0.00  0.00    +0.005 C 
ATOM     25  C   UNL     1      32.573  -7.421 -21.428  0.00  0.00    +0.138 C 
ATOM     26  C   UNL     1      31.841  -7.964 -23.665  0.00  0.00    +0.030 C 
ATOM     27  C   UNL     1      31.414  -6.648 -23.846  0.00  0.00    +0.167 C 
ATOM     28  C   UNL     1      32.146  -6.105 -21.608  0.00  0.00    +0.061 C 
ATOM     29  C   UNL     1      31.567  -5.719 -22.816  0.00  0.00    +0.170 C 
ENDBRANCH   3  24
BRANCH   4  30
ATOM     30  N   UNL     1      34.787  -9.564 -23.843  0.00  0.00    +0.382 N 
ATOM     31  H   UNL     1      35.236  -9.247 -22.984  0.00  0.00    -0.089 HD
ATOM     32  H   UNL     1      34.507  -8.757 -24.399  0.00  0.00    -0.089 HD
ATOM     33  H   UNL     1      35.442 -10.135 -24.378  0.00  0.00    -0.089 HD
ENDBRANCH   4  30
TORSDOF 4
ENDMDL
MODEL 7
REMARK VINA RESULT:     -10.7      7.552     11.790
REMARK  Name = 11538992
REMARK  4 active torsions:
REMARK  status: ('A' for Active; 'I' for Inactive)
REMARK    1  A    between atoms: C_1  and  N_7
REMARK    2  A    between atoms: C_3  and  C_24
REMARK    3  A    between atoms: C_4  and  N_30
REMARK    4  A    between atoms: C_15  and  C_20
REMARK                            x       y       z     vdW  Elec       q    Type
REMARK                         _______ _______ _______ _____ _____    ______ ____
ROOT
ATOM      1  C   UNL     1      36.043 -20.912 -18.458  0.00  0.00    -0.059 C 
ATOM      2  C   UNL     1      34.707 -21.207 -19.147  0.00  0.00    -0.042 C 
ATOM      3  C   UNL     1      35.458 -19.865 -21.177  0.00  0.00    +0.005 C 
ATOM      4  C   UNL     1      34.329 -20.093 -20.139  0.00  0.00    -0.064 C 
ATOM      5  C   UNL     1      37.159 -20.707 -19.487  0.00  0.00    -0.021 C 
ATOM      6  C   UNL     1      36.803 -19.597 -20.474  0.00  0.00    +0.000 C 
ENDROOT
BRANCH   1   7
ATOM      7  N   UNL     1      36.394 -22.015 -17.563  0.00  0.00    +0.394 N 
ATOM      8  N   UNL     1      36.785 -23.611 -15.316  0.00  0.00    -0.299 N 
ATOM      9  N   UNL     1      34.770 -24.445 -15.270  0.00  0.00    -0.136 NA
ATOM     10  N   UNL     1      35.554 -25.117 -14.345  0.00  0.00    -0.125 NA
ATOM     11  C   UNL     1      37.410 -21.590 -16.582  0.00  0.00    -0.052 C 
ATOM     12  C   UNL     1      35.187 -22.532 -16.885  0.00  0.00    -0.009 C 
ATOM     13  C   UNL     1      37.890 -22.791 -15.753  0.00  0.00    +0.086 C 
ATOM     14  C   UNL     1      35.530 -23.541 -15.850  0.00  0.00    +0.122 A 
ATOM     15  C   UNL     1      36.763 -24.599 -14.392  0.00  0.00    +0.238 A 
ATOM     16  H   UNL     1      36.795 -22.769 -18.122  0.00  0.00    -0.079 HD
BRANCH  15  20
ATOM     17  F   UNL     1      37.796 -26.210 -12.956  0.00  0.00    -0.163 F 
ATOM     18  F   UNL     1      39.093 -25.135 -14.323  0.00  0.00    -0.163 F 
ATOM     19  F   UNL     1      38.247 -24.114 -12.599  0.00  0.00    -0.163 F 
ATOM     20  C   UNL     1      37.934 -25.003 -13.596  0.00  0.00    +0.452 C 
ENDBRANCH  15  20
ENDBRANCH   1   7
BRANCH   3  24
ATOM     21  F   UNL     1      34.638 -20.341 -23.852  0.00  0.00    -0.204 F 
ATOM     22  F   UNL     1      35.088 -15.120 -22.286  0.00  0.00    -0.202 F 
ATOM     23  F   UNL     1      34.309 -15.724 -24.835  0.00  0.00    -0.202 F 
ATOM     24  C   UNL     1      35.148 -18.750 -22.166  0.00  0.00    +0.005 C 
ATOM     25  C   UNL     1      34.751 -19.064 -23.462  0.00  0.00    +0.138 C 
ATOM     26  C   UNL     1      35.263 -17.423 -21.764  0.00  0.00    +0.030 C 
ATOM     27  C   UNL     1      34.980 -16.399 -22.667  0.00  0.00    +0.167 C 
ATOM     28  C   UNL     1      34.468 -18.039 -24.365  0.00  0.00    +0.061 C 
ATOM     29  C   UNL     1      34.582 -16.708 -23.968  0.00  0.00    +0.170 C 
ENDBRANCH   3  24
BRANCH   4  30
ATOM     30  N   UNL     1      33.071 -20.443 -20.807  0.00  0.00    +0.382 N 
ATOM     31  H   UNL     1      32.641 -19.600 -21.185  0.00  0.00    -0.089 HD
ATOM     32  H   UNL     1      32.438 -20.876 -20.135  0.00  0.00    -0.089 HD
ATOM     33  H   UNL     1      33.260 -21.098 -21.567  0.00  0.00    -0.089 HD
ENDBRANCH   4  30
TORSDOF 4
ENDMDL
MODEL 8
REMARK VINA RESULT:     -10.6      8.213     12.367
REMARK  Name = 11538992
REMARK  4 active torsions:
REMARK  status: ('A' for Active; 'I' for Inactive)
REMARK    1  A    between atoms: C_1  and  N_7
REMARK    2  A    between atoms: C_3  and  C_24
REMARK    3  A    between atoms: C_4  and  N_30
REMARK    4  A    between atoms: C_15  and  C_20
REMARK                            x       y       z     vdW  Elec       q    Type
REMARK                         _______ _______ _______ _____ _____    ______ ____
ROOT
ATOM      1  C   UNL     1      35.744 -21.475 -17.922  0.00  0.00    -0.059 C 
ATOM      2  C   UNL     1      34.377 -21.662 -18.588  0.00  0.00    -0.042 C 
ATOM      3  C   UNL     1      35.233 -20.487 -20.678  0.00  0.00    +0.005 C 
ATOM      4  C   UNL     1      34.100 -20.557 -19.622  0.00  0.00    -0.064 C 
ATOM      5  C   UNL     1      36.862 -21.425 -18.968  0.00  0.00    -0.021 C 
ATOM      6  C   UNL     1      36.607 -20.326 -19.998  0.00  0.00    +0.000 C 
ENDROOT
BRANCH   1   7
ATOM      7  N   UNL     1      35.994 -22.570 -16.985  0.00  0.00    +0.394 N 
ATOM      8  N   UNL     1      36.343 -24.079 -14.671  0.00  0.00    -0.299 N 
ATOM      9  N   UNL     1      34.231 -24.534 -14.370  0.00  0.00    -0.136 NA
ATOM     10  N   UNL     1      34.982 -25.282 -13.477  0.00  0.00    -0.125 NA
ATOM     11  C   UNL     1      37.167 -22.279 -16.140  0.00  0.00    -0.052 C 
ATOM     12  C   UNL     1      34.795 -22.822 -16.157  0.00  0.00    -0.009 C 
ATOM     13  C   UNL     1      37.520 -23.496 -15.273  0.00  0.00    +0.086 C 
ATOM     14  C   UNL     1      35.069 -23.816 -15.087  0.00  0.00    +0.122 A 
ATOM     15  C   UNL     1      36.250 -24.993 -13.678  0.00  0.00    +0.238 A 
ATOM     16  H   UNL     1      36.196 -23.414 -17.521  0.00  0.00    -0.079 HD
BRANCH  15  20
ATOM     17  F   UNL     1      38.276 -26.263 -13.770  0.00  0.00    -0.163 F 
ATOM     18  F   UNL     1      38.211 -24.615 -12.361  0.00  0.00    -0.163 F 
ATOM     19  F   UNL     1      37.072 -26.425 -11.967  0.00  0.00    -0.163 F 
ATOM     20  C   UNL     1      37.413 -25.553 -12.970  0.00  0.00    +0.452 C 
ENDBRANCH  15  20
ENDBRANCH   1   7
BRANCH   3  24
ATOM     21  F   UNL     1      36.090 -17.809 -20.294  0.00  0.00    -0.204 F 
ATOM     22  F   UNL     1      33.578 -18.958 -25.015  0.00  0.00    -0.202 F 
ATOM     23  F   UNL     1      34.456 -16.419 -24.513  0.00  0.00    -0.202 F 
ATOM     24  C   UNL     1      35.024 -19.387 -21.710  0.00  0.00    +0.005 C 
ATOM     25  C   UNL     1      35.473 -18.097 -21.449  0.00  0.00    +0.138 C 
ATOM     26  C   UNL     1      34.385 -19.684 -22.910  0.00  0.00    +0.030 C 
ATOM     27  C   UNL     1      34.192 -18.680 -23.858  0.00  0.00    +0.167 C 
ATOM     28  C   UNL     1      35.280 -17.093 -22.397  0.00  0.00    +0.061 C 
ATOM     29  C   UNL     1      34.640 -17.383 -23.601  0.00  0.00    +0.170 C 
ENDBRANCH   3  24
BRANCH   4  30
ATOM     30  N   UNL     1      32.805 -20.807 -20.265  0.00  0.00    +0.382 N 
ATOM     31  H   UNL     1      32.892 -21.594 -20.908  0.00  0.00    -0.089 HD
ATOM     32  H   UNL     1      32.517 -19.976 -20.782  0.00  0.00    -0.089 HD
ATOM     33  H   UNL     1      32.108 -21.024 -19.553  0.00  0.00    -0.089 HD
ENDBRANCH   4  30
TORSDOF 4
ENDMDL
MODEL 9
REMARK VINA RESULT:     -10.1     14.935     16.269
REMARK  Name = 11538992
REMARK  4 active torsions:
REMARK  status: ('A' for Active; 'I' for Inactive)
REMARK    1  A    between atoms: C_1  and  N_7
REMARK    2  A    between atoms: C_3  and  C_24
REMARK    3  A    between atoms: C_4  and  N_30
REMARK    4  A    between atoms: C_15  and  C_20
REMARK                            x       y       z     vdW  Elec       q    Type
REMARK                         _______ _______ _______ _____ _____    ______ ____
ROOT
ATOM      1  C   UNL     1      33.162 -24.303 -13.890  0.00  0.00    -0.059 C 
ATOM      2  C   UNL     1      32.064 -25.365 -13.770  0.00  0.00    -0.042 C 
ATOM      3  C   UNL     1      30.590 -24.019 -15.350  0.00  0.00    +0.005 C 
ATOM      4  C   UNL     1      30.668 -24.756 -13.989  0.00  0.00    -0.064 C 
ATOM      5  C   UNL     1      33.093 -23.591 -15.243  0.00  0.00    -0.021 C 
ATOM      6  C   UNL     1      31.715 -22.972 -15.472  0.00  0.00    +0.000 C 
ENDROOT
BRANCH   1   7
ATOM      7  N   UNL     1      34.475 -24.927 -13.727  0.00  0.00    +0.394 N 
ATOM      8  N   UNL     1      37.195 -25.362 -13.319  0.00  0.00    -0.299 N 
ATOM      9  N   UNL     1      37.099 -25.402 -11.139  0.00  0.00    -0.136 NA
ATOM     10  N   UNL     1      38.368 -25.790 -11.539  0.00  0.00    -0.125 NA
ATOM     11  C   UNL     1      35.414 -24.449 -14.758  0.00  0.00    -0.052 C 
ATOM     12  C   UNL     1      35.003 -24.670 -12.370  0.00  0.00    -0.009 C 
ATOM     13  C   UNL     1      36.738 -25.225 -14.682  0.00  0.00    +0.086 C 
ATOM     14  C   UNL     1      36.402 -25.151 -12.227  0.00  0.00    +0.122 A 
ATOM     15  C   UNL     1      38.402 -25.761 -12.854  0.00  0.00    +0.238 A 
ATOM     16  H   UNL     1      34.370 -25.936 -13.844  0.00  0.00    -0.079 HD
BRANCH  15  20
ATOM     17  F   UNL     1      40.645 -26.569 -13.052  0.00  0.00    -0.163 F 
ATOM     18  F   UNL     1      39.269 -27.086 -14.647  0.00  0.00    -0.163 F 
ATOM     19  F   UNL     1      40.000 -25.045 -14.463  0.00  0.00    -0.163 F 
ATOM     20  C   UNL     1      39.540 -26.105 -13.723  0.00  0.00    +0.452 C 
ENDBRANCH  15  20
ENDBRANCH   1   7
BRANCH   3  24
ATOM     21  F   UNL     1      29.242 -22.427 -13.426  0.00  0.00    -0.204 F 
ATOM     22  F   UNL     1      26.759 -23.124 -18.250  0.00  0.00    -0.202 F 
ATOM     23  F   UNL     1      25.574 -21.614 -16.304  0.00  0.00    -0.202 F 
ATOM     24  C   UNL     1      29.237 -23.369 -15.605  0.00  0.00    +0.005 C 
ATOM     25  C   UNL     1      28.638 -22.602 -14.610  0.00  0.00    +0.138 C 
ATOM     26  C   UNL     1      28.608 -23.548 -16.833  0.00  0.00    +0.030 C 
ATOM     27  C   UNL     1      27.369 -22.955 -17.070  0.00  0.00    +0.167 C 
ATOM     28  C   UNL     1      27.399 -22.009 -14.847  0.00  0.00    +0.061 C 
ATOM     29  C   UNL     1      26.764 -22.185 -16.076  0.00  0.00    +0.170 C 
ENDBRANCH   3  24
BRANCH   4  30
ATOM     30  N   UNL     1      29.658 -25.817 -13.914  0.00  0.00    +0.382 N 
ATOM     31  H   UNL     1      28.970 -25.683 -14.655  0.00  0.00    -0.089 HD
ATOM     32  H   UNL     1      29.192 -25.779 -13.007  0.00  0.00    -0.089 HD
ATOM     33  H   UNL     1      30.108 -26.725 -14.027  0.00  0.00    -0.089 HD
ENDBRANCH   4  30
TORSDOF 4
ENDMDL
