MODEL 1
REMARK VINA RESULT:     -11.9      0.000      0.000
REMARK  Name = 23658582
REMARK  4 active torsions:
REMARK  status: ('A' for Active; 'I' for Inactive)
REMARK    1  A    between atoms: N_3  and  C_13
REMARK    2  A    between atoms: C_8  and  C_25
REMARK    3  A    between atoms: C_15  and  C_22
REMARK    4  A    between atoms: N_24  and  C_29
REMARK                            x       y       z     vdW  Elec       q    Type
REMARK                         _______ _______ _______ _____ _____    ______ ____
ROOT
ATOM      1 CL   UNL     1      35.226 -19.714 -23.820  0.00  0.00    -0.082 Cl
ATOM      2  O   UNL     1      34.706 -15.355 -21.079  0.00  0.00    -0.352 OA
ATOM      3  N   UNL     1      33.696 -12.988 -23.439  0.00  0.00    -0.295 N 
ATOM      4  N   UNL     1      34.336 -14.051 -21.389  0.00  0.00    -0.062 NA
ATOM      5  C   UNL     1      34.284 -15.329 -23.278  0.00  0.00    +0.072 A 
ATOM      6  C   UNL     1      34.673 -16.115 -22.207  0.00  0.00    +0.183 A 
ATOM      7  C   UNL     1      34.091 -14.058 -22.703  0.00  0.00    +0.174 A 
ATOM      8  C   UNL     1      34.979 -17.470 -22.298  0.00  0.00    +0.101 C 
ATOM      9  C   UNL     1      34.183 -15.913 -24.550  0.00  0.00    +0.007 C 
ATOM     10  C   UNL     1      34.874 -18.038 -23.572  0.00  0.00    +0.065 C 
ATOM     11  C   UNL     1      34.484 -17.276 -24.678  0.00  0.00    +0.012 C 
ATOM     12  H   UNL     1      33.651 -13.165 -24.406  0.00  0.00    +0.154 HD
ENDROOT
BRANCH   3  13
ATOM     13  C   UNL     1      33.337 -11.658 -23.082  0.00  0.00    +0.049 C 
ATOM     14  C   UNL     1      34.055 -10.579 -23.597  0.00  0.00    +0.018 C 
ATOM     15  C   UNL     1      33.702  -9.276 -23.248  0.00  0.00    +0.073 C 
ATOM     16  C   UNL     1      32.265 -11.433 -22.217  0.00  0.00    +0.015 C 
ATOM     17  C   UNL     1      32.631  -9.051 -22.383  0.00  0.00    +0.004 C 
ATOM     18  C   UNL     1      31.913 -10.131 -21.867  0.00  0.00    +0.001 C 
BRANCH  15  22
ATOM     19  F   UNL     1      33.682  -7.087 -24.213  0.00  0.00    -0.166 F 
ATOM     20  F   UNL     1      35.340  -7.568 -22.902  0.00  0.00    -0.166 F 
ATOM     21  F   UNL     1      35.228  -8.463 -24.880  0.00  0.00    -0.166 F 
ATOM     22  C   UNL     1      34.470  -8.122 -23.797  0.00  0.00    +0.419 C 
ENDBRANCH  15  22
ENDBRANCH   3  13
BRANCH   8  25
ATOM     23  O   UNL     1      36.225 -17.762 -20.337  0.00  0.00    -0.270 OA
ATOM     24  N   UNL     1      34.771 -19.471 -20.977  0.00  0.00    -0.278 N 
ATOM     25  C   UNL     1      35.380 -18.217 -21.118  0.00  0.00    +0.253 C 
ATOM     26  H   UNL     1      34.115 -19.710 -21.670  0.00  0.00    +0.155 HD
BRANCH  24  29
ATOM     27  N   UNL     1      36.475 -21.676 -18.538  0.00  0.00    -0.221 NA
ATOM     28  N   UNL     1      34.099 -22.047 -18.403  0.00  0.00    -0.221 NA
ATOM     29  C   UNL     1      34.980 -20.439 -19.962  0.00  0.00    +0.089 C 
ATOM     30  C   UNL     1      36.240 -20.761 -19.501  0.00  0.00    +0.117 C 
ATOM     31  C   UNL     1      33.936 -21.121 -19.371  0.00  0.00    +0.117 C 
ATOM     32  C   UNL     1      35.376 -22.272 -18.040  0.00  0.00    +0.199 C 
ENDBRANCH  24  29
ENDBRANCH   8  25
TORSDOF 4
ENDMDL
MODEL 2
REMARK VINA RESULT:     -11.5      6.822     11.380
REMARK  Name = 23658582
REMARK  4 active torsions:
REMARK  status: ('A' for Active; 'I' for Inactive)
REMARK    1  A    between atoms: N_3  and  C_13
REMARK    2  A    between atoms: C_8  and  C_25
REMARK    3  A    between atoms: C_15  and  C_22
REMARK    4  A    between atoms: N_24  and  C_29
REMARK                            x       y       z     vdW  Elec       q    Type
REMARK                         _______ _______ _______ _____ _____    ______ ____
ROOT
ATOM      1 CL   UNL     1      37.580 -19.702 -20.952  0.00  0.00    -0.082 Cl
ATOM      2  O   UNL     1      32.790 -20.974 -19.463  0.00  0.00    -0.352 OA
ATOM      3  N   UNL     1      33.286 -23.025 -16.681  0.00  0.00    -0.295 N 
ATOM      4  N   UNL     1      32.267 -21.754 -18.438  0.00  0.00    -0.062 NA
ATOM      5  C   UNL     1      34.545 -21.765 -18.318  0.00  0.00    +0.072 A 
ATOM      6  C   UNL     1      34.148 -20.982 -19.388  0.00  0.00    +0.183 A 
ATOM      7  C   UNL     1      33.328 -22.215 -17.770  0.00  0.00    +0.174 A 
ATOM      8  C   UNL     1      35.025 -20.317 -20.242  0.00  0.00    +0.101 C 
ATOM      9  C   UNL     1      35.914 -21.914 -18.054  0.00  0.00    +0.007 C 
ATOM     10  C   UNL     1      36.387 -20.476 -19.966  0.00  0.00    +0.065 C 
ATOM     11  C   UNL     1      36.826 -21.259 -18.893  0.00  0.00    +0.012 C 
ATOM     12  H   UNL     1      34.171 -23.333 -16.380  0.00  0.00    +0.154 HD
ENDROOT
BRANCH   3  13
ATOM     13  C   UNL     1      32.208 -23.518 -15.893  0.00  0.00    +0.049 C 
ATOM     14  C   UNL     1      30.892 -23.329 -16.315  0.00  0.00    +0.018 C 
ATOM     15  C   UNL     1      29.836 -23.812 -15.543  0.00  0.00    +0.073 C 
ATOM     16  C   UNL     1      32.468 -24.190 -14.699  0.00  0.00    +0.015 C 
ATOM     17  C   UNL     1      30.095 -24.483 -14.348  0.00  0.00    +0.004 C 
ATOM     18  C   UNL     1      31.412 -24.673 -13.927  0.00  0.00    +0.001 C 
BRANCH  15  22
ATOM     19  F   UNL     1      27.562 -23.336 -14.973  0.00  0.00    -0.166 F 
ATOM     20  F   UNL     1      28.279 -22.575 -16.872  0.00  0.00    -0.166 F 
ATOM     21  F   UNL     1      27.916 -24.704 -16.625  0.00  0.00    -0.166 F 
ATOM     22  C   UNL     1      28.429 -23.609 -15.992  0.00  0.00    +0.419 C 
ENDBRANCH  15  22
ENDBRANCH   3  13
BRANCH   8  25
ATOM     23  O   UNL     1      33.577 -19.918 -22.038  0.00  0.00    -0.270 OA
ATOM     24  N   UNL     1      35.197 -18.310 -21.558  0.00  0.00    -0.278 N 
ATOM     25  C   UNL     1      34.518 -19.516 -21.343  0.00  0.00    +0.253 C 
ATOM     26  H   UNL     1      35.928 -18.110 -20.930  0.00  0.00    +0.155 HD
BRANCH  24  29
ATOM     27  N   UNL     1      34.770 -15.035 -23.232  0.00  0.00    -0.221 NA
ATOM     28  N   UNL     1      34.481 -16.789 -24.858  0.00  0.00    -0.221 NA
ATOM     29  C   UNL     1      34.966 -17.339 -22.566  0.00  0.00    +0.089 C 
ATOM     30  C   UNL     1      34.985 -15.985 -22.299  0.00  0.00    +0.117 C 
ATOM     31  C   UNL     1      34.705 -17.686 -23.875  0.00  0.00    +0.117 C 
ATOM     32  C   UNL     1      34.527 -15.500 -24.472  0.00  0.00    +0.199 C 
ENDBRANCH  24  29
ENDBRANCH   8  25
TORSDOF 4
ENDMDL
MODEL 3
REMARK VINA RESULT:     -11.5      4.712      7.619
REMARK  Name = 23658582
REMARK  4 active torsions:
REMARK  status: ('A' for Active; 'I' for Inactive)
REMARK    1  A    between atoms: N_3  and  C_13
REMARK    2  A    between atoms: C_8  and  C_25
REMARK    3  A    between atoms: C_15  and  C_22
REMARK    4  A    between atoms: N_24  and  C_29
REMARK                            x       y       z     vdW  Elec       q    Type
REMARK                         _______ _______ _______ _____ _____    ______ ____
ROOT
ATOM      1 CL   UNL     1      36.593 -23.527 -15.341  0.00  0.00    -0.082 Cl
ATOM      2  O   UNL     1      33.503 -21.713 -19.076  0.00  0.00    -0.352 OA
ATOM      3  N   UNL     1      35.560 -19.564 -20.904  0.00  0.00    -0.295 N 
ATOM      4  N   UNL     1      33.677 -20.829 -20.134  0.00  0.00    -0.062 NA
ATOM      5  C   UNL     1      35.635 -21.032 -18.983  0.00  0.00    +0.072 A 
ATOM      6  C   UNL     1      34.674 -21.833 -18.392  0.00  0.00    +0.183 A 
ATOM      7  C   UNL     1      34.951 -20.435 -20.060  0.00  0.00    +0.174 A 
ATOM      8  C   UNL     1      34.896 -22.627 -17.269  0.00  0.00    +0.101 C 
ATOM      9  C   UNL     1      36.926 -21.001 -18.435  0.00  0.00    +0.007 C 
ATOM     10  C   UNL     1      36.187 -22.586 -16.735  0.00  0.00    +0.065 C 
ATOM     11  C   UNL     1      37.185 -21.788 -17.305  0.00  0.00    +0.012 C 
ATOM     12  H   UNL     1      36.478 -19.327 -20.637  0.00  0.00    +0.154 HD
ENDROOT
BRANCH   3  13
ATOM     13  C   UNL     1      35.127 -18.925 -22.100  0.00  0.00    +0.049 C 
ATOM     14  C   UNL     1      35.041 -17.535 -22.156  0.00  0.00    +0.018 C 
ATOM     15  C   UNL     1      34.617 -16.909 -23.328  0.00  0.00    +0.073 C 
ATOM     16  C   UNL     1      34.790 -19.690 -23.216  0.00  0.00    +0.015 C 
ATOM     17  C   UNL     1      34.279 -17.673 -24.444  0.00  0.00    +0.004 C 
ATOM     18  C   UNL     1      34.366 -19.065 -24.388  0.00  0.00    +0.001 C 
BRANCH  15  22
ATOM     19  F   UNL     1      33.272 -14.963 -23.688  0.00  0.00    -0.166 F 
ATOM     20  F   UNL     1      34.856 -14.804 -22.216  0.00  0.00    -0.166 F 
ATOM     21  F   UNL     1      35.346 -14.881 -24.333  0.00  0.00    -0.166 F 
ATOM     22  C   UNL     1      34.523 -15.421 -23.389  0.00  0.00    +0.419 C 
ENDBRANCH  15  22
ENDBRANCH   3  13
BRANCH   8  25
ATOM     23  O   UNL     1      33.282 -24.320 -17.392  0.00  0.00    -0.270 OA
ATOM     24  N   UNL     1      33.451 -23.109 -15.406  0.00  0.00    -0.278 N 
ATOM     25  C   UNL     1      33.824 -23.437 -16.715  0.00  0.00    +0.253 C 
ATOM     26  H   UNL     1      33.966 -22.386 -14.981  0.00  0.00    +0.155 HD
BRANCH  24  29
ATOM     27  N   UNL     1      31.754 -25.055 -12.751  0.00  0.00    -0.221 NA
ATOM     28  N   UNL     1      30.089 -24.013 -14.146  0.00  0.00    -0.221 NA
ATOM     29  C   UNL     1      32.426 -23.686 -14.613  0.00  0.00    +0.089 C 
ATOM     30  C   UNL     1      32.703 -24.491 -13.527  0.00  0.00    +0.117 C 
ATOM     31  C   UNL     1      31.088 -23.480 -14.879  0.00  0.00    +0.117 C 
ATOM     32  C   UNL     1      30.487 -24.779 -13.112  0.00  0.00    +0.199 C 
ENDBRANCH  24  29
ENDBRANCH   8  25
TORSDOF 4
ENDMDL
MODEL 4
REMARK VINA RESULT:     -11.2      1.820      2.454
REMARK  Name = 23658582
REMARK  4 active torsions:
REMARK  status: ('A' for Active; 'I' for Inactive)
REMARK    1  A    between atoms: N_3  and  C_13
REMARK    2  A    between atoms: C_8  and  C_25
REMARK    3  A    between atoms: C_15  and  C_22
REMARK    4  A    between atoms: N_24  and  C_29
REMARK                            x       y       z     vdW  Elec       q    Type
REMARK                         _______ _______ _______ _____ _____    ______ ____
ROOT
ATOM      1 CL   UNL     1      35.195 -20.162 -23.853  0.00  0.00    -0.082 Cl
ATOM      2  O   UNL     1      34.781 -15.744 -21.189  0.00  0.00    -0.352 OA
ATOM      3  N   UNL     1      33.841 -13.393 -23.593  0.00  0.00    -0.295 N 
ATOM      4  N   UNL     1      34.447 -14.437 -21.524  0.00  0.00    -0.062 NA
ATOM      5  C   UNL     1      34.367 -15.746 -23.390  0.00  0.00    +0.072 A 
ATOM      6  C   UNL     1      34.731 -16.522 -22.305  0.00  0.00    +0.183 A 
ATOM      7  C   UNL     1      34.205 -14.460 -22.837  0.00  0.00    +0.174 A 
ATOM      8  C   UNL     1      35.002 -17.887 -22.371  0.00  0.00    +0.101 C 
ATOM      9  C   UNL     1      34.254 -16.348 -24.652  0.00  0.00    +0.007 C 
ATOM     10  C   UNL     1      34.886 -18.473 -23.635  0.00  0.00    +0.065 C 
ATOM     11  C   UNL     1      34.519 -17.721 -24.756  0.00  0.00    +0.012 C 
ATOM     12  H   UNL     1      33.794 -13.586 -24.558  0.00  0.00    +0.154 HD
ENDROOT
BRANCH   3  13
ATOM     13  C   UNL     1      33.515 -12.048 -23.260  0.00  0.00    +0.049 C 
ATOM     14  C   UNL     1      32.714 -11.778 -22.151  0.00  0.00    +0.018 C 
ATOM     15  C   UNL     1      32.396 -10.460 -21.824  0.00  0.00    +0.073 C 
ATOM     16  C   UNL     1      33.999 -10.999 -24.042  0.00  0.00    +0.015 C 
ATOM     17  C   UNL     1      32.879  -9.412 -22.607  0.00  0.00    +0.004 C 
ATOM     18  C   UNL     1      33.681  -9.682 -23.716  0.00  0.00    +0.001 C 
BRANCH  15  22
ATOM     19  F   UNL     1      31.506  -8.850 -20.295  0.00  0.00    -0.166 F 
ATOM     20  F   UNL     1      30.230 -10.524 -20.812  0.00  0.00    -0.166 F 
ATOM     21  F   UNL     1      31.950 -10.832 -19.519  0.00  0.00    -0.166 F 
ATOM     22  C   UNL     1      31.538 -10.171 -20.640  0.00  0.00    +0.419 C 
ENDBRANCH  15  22
ENDBRANCH   3  13
BRANCH   8  25
ATOM     23  O   UNL     1      36.354 -18.274 -20.498  0.00  0.00    -0.270 OA
ATOM     24  N   UNL     1      34.591 -19.747 -20.901  0.00  0.00    -0.278 N 
ATOM     25  C   UNL     1      35.380 -18.623 -21.177  0.00  0.00    +0.253 C 
ATOM     26  H   UNL     1      33.845 -19.911 -21.522  0.00  0.00    +0.155 HD
BRANCH  24  29
ATOM     27  N   UNL     1      33.731 -22.124 -18.194  0.00  0.00    -0.221 NA
ATOM     28  N   UNL     1      36.129 -21.970 -18.370  0.00  0.00    -0.221 NA
ATOM     29  C   UNL     1      34.729 -20.679 -19.840  0.00  0.00    +0.089 C 
ATOM     30  C   UNL     1      33.637 -21.235 -19.205  0.00  0.00    +0.117 C 
ATOM     31  C   UNL     1      35.962 -21.086 -19.376  0.00  0.00    +0.117 C 
ATOM     32  C   UNL     1      34.988 -22.442 -17.832  0.00  0.00    +0.199 C 
ENDBRANCH  24  29
ENDBRANCH   8  25
TORSDOF 4
ENDMDL
MODEL 5
REMARK VINA RESULT:     -11.1      6.939     11.371
REMARK  Name = 23658582
REMARK  4 active torsions:
REMARK  status: ('A' for Active; 'I' for Inactive)
REMARK    1  A    between atoms: N_3  and  C_13
REMARK    2  A    between atoms: C_8  and  C_25
REMARK    3  A    between atoms: C_15  and  C_22
REMARK    4  A    between atoms: N_24  and  C_29
REMARK                            x       y       z     vdW  Elec       q    Type
REMARK                         _______ _______ _______ _____ _____    ______ ____
ROOT
ATOM      1 CL   UNL     1      37.827 -18.745 -22.088  0.00  0.00    -0.082 Cl
ATOM      2  O   UNL     1      33.206 -20.242 -20.300  0.00  0.00    -0.352 OA
ATOM      3  N   UNL     1      33.976 -22.289 -17.578  0.00  0.00    -0.295 N 
ATOM      4  N   UNL     1      32.788 -21.052 -19.251  0.00  0.00    -0.062 NA
ATOM      5  C   UNL     1      35.067 -20.961 -19.281  0.00  0.00    +0.072 A 
ATOM      6  C   UNL     1      34.566 -20.189 -20.315  0.00  0.00    +0.183 A 
ATOM      7  C   UNL     1      33.910 -21.469 -18.659  0.00  0.00    +0.174 A 
ATOM      8  C   UNL     1      35.355 -19.479 -21.218  0.00  0.00    +0.101 C 
ATOM      9  C   UNL     1      36.456 -21.051 -19.109  0.00  0.00    +0.007 C 
ATOM     10  C   UNL     1      36.737 -19.579 -21.033  0.00  0.00    +0.065 C 
ATOM     11  C   UNL     1      37.280 -20.349 -20.000  0.00  0.00    +0.012 C 
ATOM     12  H   UNL     1      34.892 -22.558 -17.339  0.00  0.00    +0.154 HD
ENDROOT
BRANCH   3  13
ATOM     13  C   UNL     1      32.975 -22.835 -16.726  0.00  0.00    +0.049 C 
ATOM     14  C   UNL     1      33.335 -23.407 -15.506  0.00  0.00    +0.018 C 
ATOM     15  C   UNL     1      32.354 -23.941 -14.670  0.00  0.00    +0.073 C 
ATOM     16  C   UNL     1      31.635 -22.795 -17.109  0.00  0.00    +0.015 C 
ATOM     17  C   UNL     1      31.014 -23.903 -15.054  0.00  0.00    +0.004 C 
ATOM     18  C   UNL     1      30.655 -23.329 -16.275  0.00  0.00    +0.001 C 
BRANCH  15  22
ATOM     19  F   UNL     1      31.905 -25.562 -12.969  0.00  0.00    -0.166 F 
ATOM     20  F   UNL     1      33.987 -25.109 -13.369  0.00  0.00    -0.166 F 
ATOM     21  F   UNL     1      32.739 -23.655 -12.342  0.00  0.00    -0.166 F 
ATOM     22  C   UNL     1      32.738 -24.556 -13.367  0.00  0.00    +0.419 C 
ENDBRANCH  15  22
ENDBRANCH   3  13
BRANCH   8  25
ATOM     23  O   UNL     1      34.088 -19.240 -23.173  0.00  0.00    -0.270 OA
ATOM     24  N   UNL     1      34.983 -17.316 -22.205  0.00  0.00    -0.278 N 
ATOM     25  C   UNL     1      34.741 -18.694 -22.275  0.00  0.00    +0.253 C 
ATOM     26  H   UNL     1      35.518 -17.013 -21.436  0.00  0.00    +0.155 HD
BRANCH  24  29
ATOM     27  N   UNL     1      33.939 -14.013 -23.511  0.00  0.00    -0.221 NA
ATOM     28  N   UNL     1      33.919 -15.611 -25.314  0.00  0.00    -0.221 NA
ATOM     29  C   UNL     1      34.556 -16.302 -23.099  0.00  0.00    +0.089 C 
ATOM     30  C   UNL     1      34.344 -15.002 -22.688  0.00  0.00    +0.117 C 
ATOM     31  C   UNL     1      34.325 -16.552 -24.436  0.00  0.00    +0.117 C 
ATOM     32  C   UNL     1      33.748 -14.382 -24.792  0.00  0.00    +0.199 C 
ENDBRANCH  24  29
ENDBRANCH   8  25
TORSDOF 4
ENDMDL
MODEL 6
REMARK VINA RESULT:     -11.0      5.288     10.038
REMARK  Name = 23658582
REMARK  4 active torsions:
REMARK  status: ('A' for Active; 'I' for Inactive)
REMARK    1  A    between atoms: N_3  and  C_13
REMARK    2  A    between atoms: C_8  and  C_25
REMARK    3  A    between atoms: C_15  and  C_22
REMARK    4  A    between atoms: N_24  and  C_29
REMARK                            x       y       z     vdW  Elec       q    Type
REMARK                         _______ _______ _______ _____ _____    ______ ____
ROOT
ATOM      1 CL   UNL     1      33.034 -12.381 -26.058  0.00  0.00    -0.082 Cl
ATOM      2  O   UNL     1      34.340 -14.497 -21.519  0.00  0.00    -0.352 OA
ATOM      3  N   UNL     1      35.080 -17.815 -22.315  0.00  0.00    -0.295 N 
ATOM      4  N   UNL     1      34.740 -15.767 -21.120  0.00  0.00    -0.062 NA
ATOM      5  C   UNL     1      34.366 -15.758 -23.370  0.00  0.00    +0.072 A 
ATOM      6  C   UNL     1      34.119 -14.495 -22.862  0.00  0.00    +0.183 A 
ATOM      7  C   UNL     1      34.748 -16.501 -22.236  0.00  0.00    +0.174 A 
ATOM      8  C   UNL     1      33.706 -13.408 -23.628  0.00  0.00    +0.101 C 
ATOM      9  C   UNL     1      34.198 -15.985 -24.744  0.00  0.00    +0.007 C 
ATOM     10  C   UNL     1      33.543 -13.649 -24.996  0.00  0.00    +0.065 C 
ATOM     11  C   UNL     1      33.783 -14.913 -25.546  0.00  0.00    +0.012 C 
ATOM     12  H   UNL     1      34.940 -18.208 -23.207  0.00  0.00    +0.154 HD
ENDROOT
BRANCH   3  13
ATOM     13  C   UNL     1      35.590 -18.735 -21.357  0.00  0.00    +0.049 C 
ATOM     14  C   UNL     1      34.759 -19.721 -20.826  0.00  0.00    +0.018 C 
ATOM     15  C   UNL     1      35.260 -20.624 -19.887  0.00  0.00    +0.073 C 
ATOM     16  C   UNL     1      36.922 -18.651 -20.949  0.00  0.00    +0.015 C 
ATOM     17  C   UNL     1      36.591 -20.540 -19.479  0.00  0.00    +0.004 C 
ATOM     18  C   UNL     1      37.422 -19.553 -20.011  0.00  0.00    +0.001 C 
BRANCH  15  22
ATOM     19  F   UNL     1      34.728 -22.947 -19.675  0.00  0.00    -0.166 F 
ATOM     20  F   UNL     1      34.342 -21.689 -17.952  0.00  0.00    -0.166 F 
ATOM     21  F   UNL     1      33.072 -21.538 -19.711  0.00  0.00    -0.166 F 
ATOM     22  C   UNL     1      34.372 -21.678 -19.317  0.00  0.00    +0.419 C 
ENDBRANCH  15  22
ENDBRANCH   3  13
BRANCH   8  25
ATOM     23  O   UNL     1      32.727 -12.011 -22.023  0.00  0.00    -0.270 OA
ATOM     24  N   UNL     1      34.105 -11.034 -23.633  0.00  0.00    -0.278 N 
ATOM     25  C   UNL     1      33.470 -12.115 -23.008  0.00  0.00    +0.253 C 
ATOM     26  H   UNL     1      34.669 -11.257 -24.408  0.00  0.00    +0.155 HD
BRANCH  24  29
ATOM     27  N   UNL     1      34.992  -7.450 -23.355  0.00  0.00    -0.221 NA
ATOM     28  N   UNL     1      32.901  -7.830 -22.220  0.00  0.00    -0.221 NA
ATOM     29  C   UNL     1      34.041  -9.660 -23.290  0.00  0.00    +0.089 C 
ATOM     30  C   UNL     1      35.021  -8.763 -23.663  0.00  0.00    +0.117 C 
ATOM     31  C   UNL     1      32.994  -9.132 -22.562  0.00  0.00    +0.117 C 
ATOM     32  C   UNL     1      33.919  -7.057 -22.642  0.00  0.00    +0.199 C 
ENDBRANCH  24  29
ENDBRANCH   8  25
TORSDOF 4
ENDMDL
MODEL 7
REMARK VINA RESULT:     -10.8      5.338      9.602
REMARK  Name = 23658582
REMARK  4 active torsions:
REMARK  status: ('A' for Active; 'I' for Inactive)
REMARK    1  A    between atoms: N_3  and  C_13
REMARK    2  A    between atoms: C_8  and  C_25
REMARK    3  A    between atoms: C_15  and  C_22
REMARK    4  A    between atoms: N_24  and  C_29
REMARK                            x       y       z     vdW  Elec       q    Type
REMARK                         _______ _______ _______ _____ _____    ______ ____
ROOT
ATOM      1 CL   UNL     1      33.040 -12.384 -26.044  0.00  0.00    -0.082 Cl
ATOM      2  O   UNL     1      34.402 -14.513 -21.527  0.00  0.00    -0.352 OA
ATOM      3  N   UNL     1      35.023 -17.856 -22.322  0.00  0.00    -0.295 N 
ATOM      4  N   UNL     1      34.775 -15.792 -21.130  0.00  0.00    -0.062 NA
ATOM      5  C   UNL     1      34.342 -15.784 -23.370  0.00  0.00    +0.072 A 
ATOM      6  C   UNL     1      34.146 -14.511 -22.864  0.00  0.00    +0.183 A 
ATOM      7  C   UNL     1      34.732 -16.532 -22.242  0.00  0.00    +0.174 A 
ATOM      8  C   UNL     1      33.745 -13.417 -23.626  0.00  0.00    +0.101 C 
ATOM      9  C   UNL     1      34.132 -16.013 -24.738  0.00  0.00    +0.007 C 
ATOM     10  C   UNL     1      33.539 -13.660 -24.987  0.00  0.00    +0.065 C 
ATOM     11  C   UNL     1      33.728 -14.933 -25.535  0.00  0.00    +0.012 C 
ATOM     12  H   UNL     1      34.848 -18.249 -23.208  0.00  0.00    +0.154 HD
ENDROOT
BRANCH   3  13
ATOM     13  C   UNL     1      35.531 -18.785 -21.371  0.00  0.00    +0.049 C 
ATOM     14  C   UNL     1      34.692 -19.760 -20.832  0.00  0.00    +0.018 C 
ATOM     15  C   UNL     1      35.190 -20.671 -19.901  0.00  0.00    +0.073 C 
ATOM     16  C   UNL     1      36.869 -18.723 -20.981  0.00  0.00    +0.015 C 
ATOM     17  C   UNL     1      36.527 -20.608 -19.510  0.00  0.00    +0.004 C 
ATOM     18  C   UNL     1      37.367 -19.633 -20.050  0.00  0.00    +0.001 C 
BRANCH  15  22
ATOM     19  F   UNL     1      34.645 -22.988 -19.659  0.00  0.00    -0.166 F 
ATOM     20  F   UNL     1      34.255 -21.704 -17.957  0.00  0.00    -0.166 F 
ATOM     21  F   UNL     1      32.997 -21.572 -19.725  0.00  0.00    -0.166 F 
ATOM     22  C   UNL     1      34.293 -21.713 -19.322  0.00  0.00    +0.419 C 
ENDBRANCH  15  22
ENDBRANCH   3  13
BRANCH   8  25
ATOM     23  O   UNL     1      34.246 -11.144 -23.359  0.00  0.00    -0.270 OA
ATOM     24  N   UNL     1      32.605 -12.073 -21.987  0.00  0.00    -0.278 N 
ATOM     25  C   UNL     1      33.563 -12.114 -23.008  0.00  0.00    +0.253 C 
ATOM     26  H   UNL     1      32.131 -12.918 -21.808  0.00  0.00    +0.155 HD
BRANCH  24  29
ATOM     27  N   UNL     1      31.818  -8.612 -20.933  0.00  0.00    -0.221 NA
ATOM     28  N   UNL     1      31.536 -10.088 -19.050  0.00  0.00    -0.221 NA
ATOM     29  C   UNL     1      32.229 -10.971 -21.178  0.00  0.00    +0.089 C 
ATOM     30  C   UNL     1      32.172  -9.683 -21.672  0.00  0.00    +0.117 C 
ATOM     31  C   UNL     1      31.898 -11.115 -19.847  0.00  0.00    +0.117 C 
ATOM     32  C   UNL     1      31.518  -8.882 -19.649  0.00  0.00    +0.199 C 
ENDBRANCH  24  29
ENDBRANCH   8  25
TORSDOF 4
ENDMDL
MODEL 8
REMARK VINA RESULT:     -10.3      5.064      8.242
REMARK  Name = 23658582
REMARK  4 active torsions:
REMARK  status: ('A' for Active; 'I' for Inactive)
REMARK    1  A    between atoms: N_3  and  C_13
REMARK    2  A    between atoms: C_8  and  C_25
REMARK    3  A    between atoms: C_15  and  C_22
REMARK    4  A    between atoms: N_24  and  C_29
REMARK                            x       y       z     vdW  Elec       q    Type
REMARK                         _______ _______ _______ _____ _____    ______ ____
ROOT
ATOM      1 CL   UNL     1      31.979 -10.452 -18.675  0.00  0.00    -0.082 Cl
ATOM      2  O   UNL     1      31.907  -8.741 -23.559  0.00  0.00    -0.352 OA
ATOM      3  N   UNL     1      31.924  -5.264 -23.237  0.00  0.00    -0.295 N 
ATOM      4  N   UNL     1      31.902  -7.481 -24.146  0.00  0.00    -0.062 NA
ATOM      5  C   UNL     1      31.939  -7.264 -21.875  0.00  0.00    +0.072 A 
ATOM      6  C   UNL     1      31.930  -8.608 -22.204  0.00  0.00    +0.183 A 
ATOM      7  C   UNL     1      31.921  -6.617 -23.126  0.00  0.00    +0.174 A 
ATOM      8  C   UNL     1      31.941  -9.644 -21.274  0.00  0.00    +0.101 C 
ATOM      9  C   UNL     1      31.962  -6.894 -20.522  0.00  0.00    +0.007 C 
ATOM     10  C   UNL     1      31.964  -9.260 -19.930  0.00  0.00    +0.065 C 
ATOM     11  C   UNL     1      31.973  -7.912 -19.558  0.00  0.00    +0.012 C 
ATOM     12  H   UNL     1      31.849  -4.795 -22.374  0.00  0.00    +0.154 HD
ENDROOT
BRANCH   3  13
ATOM     13  C   UNL     1      32.015  -4.393 -24.359  0.00  0.00    +0.049 C 
ATOM     14  C   UNL     1      32.919  -4.669 -25.384  0.00  0.00    +0.018 C 
ATOM     15  C   UNL     1      33.007  -3.816 -26.484  0.00  0.00    +0.073 C 
ATOM     16  C   UNL     1      31.198  -3.265 -24.434  0.00  0.00    +0.015 C 
ATOM     17  C   UNL     1      32.191  -2.688 -26.559  0.00  0.00    +0.004 C 
ATOM     18  C   UNL     1      31.285  -2.413 -25.533  0.00  0.00    +0.001 C 
BRANCH  15  22
ATOM     19  F   UNL     1      34.509  -2.990 -28.153  0.00  0.00    -0.166 F 
ATOM     20  F   UNL     1      35.050  -4.849 -27.178  0.00  0.00    -0.166 F 
ATOM     21  F   UNL     1      33.411  -4.810 -28.606  0.00  0.00    -0.166 F 
ATOM     22  C   UNL     1      33.975  -4.108 -27.580  0.00  0.00    +0.419 C 
ENDBRANCH  15  22
ENDBRANCH   3  13
BRANCH   8  25
ATOM     23  O   UNL     1      31.018 -11.794 -21.372  0.00  0.00    -0.270 OA
ATOM     24  N   UNL     1      33.028 -11.412 -22.493  0.00  0.00    -0.278 N 
ATOM     25  C   UNL     1      31.930 -11.030 -21.712  0.00  0.00    +0.253 C 
ATOM     26  H   UNL     1      33.681 -10.703 -22.691  0.00  0.00    +0.155 HD
BRANCH  24  29
ATOM     27  N   UNL     1      34.153 -14.930 -22.756  0.00  0.00    -0.221 NA
ATOM     28  N   UNL     1      33.336 -14.206 -24.903  0.00  0.00    -0.221 NA
ATOM     29  C   UNL     1      33.318 -12.690 -23.035  0.00  0.00    +0.089 C 
ATOM     30  C   UNL     1      33.865 -13.704 -22.274  0.00  0.00    +0.117 C 
ATOM     31  C   UNL     1      33.072 -13.001 -24.356  0.00  0.00    +0.117 C 
ATOM     32  C   UNL     1      33.868 -15.110 -24.059  0.00  0.00    +0.199 C 
ENDBRANCH  24  29
ENDBRANCH   8  25
TORSDOF 4
ENDMDL
MODEL 9
REMARK VINA RESULT:     -10.2      7.864     12.860
REMARK  Name = 23658582
REMARK  4 active torsions:
REMARK  status: ('A' for Active; 'I' for Inactive)
REMARK    1  A    between atoms: N_3  and  C_13
REMARK    2  A    between atoms: C_8  and  C_25
REMARK    3  A    between atoms: C_15  and  C_22
REMARK    4  A    between atoms: N_24  and  C_29
REMARK                            x       y       z     vdW  Elec       q    Type
REMARK                         _______ _______ _______ _____ _____    ______ ____
ROOT
ATOM      1 CL   UNL     1      32.290 -21.115 -20.164  0.00  0.00    -0.082 Cl
ATOM      2  O   UNL     1      36.807 -21.665 -17.698  0.00  0.00    -0.352 OA
ATOM      3  N   UNL     1      36.039 -23.706 -14.972  0.00  0.00    -0.295 N 
ATOM      4  N   UNL     1      37.212 -22.341 -16.553  0.00  0.00    -0.062 NA
ATOM      5  C   UNL     1      34.979 -22.671 -16.885  0.00  0.00    +0.072 A 
ATOM      6  C   UNL     1      35.475 -21.864 -17.894  0.00  0.00    +0.183 A 
ATOM      7  C   UNL     1      36.109 -22.932 -16.085  0.00  0.00    +0.174 A 
ATOM      8  C   UNL     1      34.708 -21.348 -18.935  0.00  0.00    +0.101 C 
ATOM      9  C   UNL     1      33.617 -23.007 -16.888  0.00  0.00    +0.007 C 
ATOM     10  C   UNL     1      33.352 -21.692 -18.925  0.00  0.00    +0.065 C 
ATOM     11  C   UNL     1      32.815 -22.505 -17.922  0.00  0.00    +0.012 C 
ATOM     12  H   UNL     1      35.123 -23.981 -14.735  0.00  0.00    +0.154 HD
ENDROOT
BRANCH   3  13
ATOM     13  C   UNL     1      37.034 -24.194 -14.078  0.00  0.00    +0.049 C 
ATOM     14  C   UNL     1      38.097 -24.953 -14.567  0.00  0.00    +0.018 C 
ATOM     15  C   UNL     1      39.072 -25.431 -13.691  0.00  0.00    +0.073 C 
ATOM     16  C   UNL     1      36.946 -23.913 -12.715  0.00  0.00    +0.015 C 
ATOM     17  C   UNL     1      38.984 -25.150 -12.328  0.00  0.00    +0.004 C 
ATOM     18  C   UNL     1      37.920 -24.390 -11.840  0.00  0.00    +0.001 C 
BRANCH  15  22
ATOM     19  F   UNL     1      41.064 -26.677 -13.239  0.00  0.00    -0.166 F 
ATOM     20  F   UNL     1      39.817 -27.375 -14.869  0.00  0.00    -0.166 F 
ATOM     21  F   UNL     1      40.984 -25.555 -15.100  0.00  0.00    -0.166 F 
ATOM     22  C   UNL     1      40.209 -26.244 -14.212  0.00  0.00    +0.419 C 
ENDBRANCH  15  22
ENDBRANCH   3  13
BRANCH   8  25
ATOM     23  O   UNL     1      36.545 -20.425 -20.055  0.00  0.00    -0.270 OA
ATOM     24  N   UNL     1      34.409 -19.795 -20.748  0.00  0.00    -0.278 N 
ATOM     25  C   UNL     1      35.315 -20.507 -19.952  0.00  0.00    +0.253 C 
ATOM     26  H   UNL     1      33.456 -19.954 -20.561  0.00  0.00    +0.155 HD
BRANCH  24  29
ATOM     27  N   UNL     1      34.576 -18.260 -24.114  0.00  0.00    -0.221 NA
ATOM     28  N   UNL     1      35.626 -16.784 -22.526  0.00  0.00    -0.221 NA
ATOM     29  C   UNL     1      34.689 -18.874 -21.790  0.00  0.00    +0.089 C 
ATOM     30  C   UNL     1      34.326 -19.113 -23.099  0.00  0.00    +0.117 C 
ATOM     31  C   UNL     1      35.344 -17.682 -21.560  0.00  0.00    +0.117 C 
ATOM     32  C   UNL     1      35.220 -17.132 -23.762  0.00  0.00    +0.199 C 
ENDBRANCH  24  29
ENDBRANCH   8  25
TORSDOF 4
ENDMDL
