MODEL 1
REMARK VINA RESULT:     -12.1      0.000      0.000
REMARK  Name = 59568713
REMARK  8 active torsions:
REMARK  status: ('A' for Active; 'I' for Inactive)
REMARK    1  A    between atoms: N_1  and  C_9
REMARK    2  A    between atoms: N_2  and  C_24
REMARK    3  A    between atoms: C_9  and  C_10
REMARK    4  A    between atoms: C_10  and  C_13
REMARK    5  A    between atoms: C_10  and  O_22
REMARK    6  A    between atoms: C_24  and  C_25
REMARK    7  A    between atoms: C_25  and  C_28
REMARK    8  A    between atoms: C_25  and  O_37
REMARK                            x       y       z     vdW  Elec       q    Type
REMARK                         _______ _______ _______ _____ _____    ______ ____
ROOT
ATOM      1  N   UNL     1      33.747 -13.348 -22.526  0.00  0.00    +0.386 N 
ATOM      2  N   UNL     1      34.621 -16.022 -21.860  0.00  0.00    +0.386 N 
ATOM      3  C   UNL     1      34.973 -15.403 -23.143  0.00  0.00    -0.101 C 
ATOM      4  C   UNL     1      34.453 -14.996 -20.824  0.00  0.00    -0.101 C 
ATOM      5  C   UNL     1      33.916 -14.375 -23.561  0.00  0.00    -0.101 C 
ATOM      6  C   UNL     1      33.396 -13.968 -21.242  0.00  0.00    -0.101 C 
ATOM      7  H   UNL     1      34.633 -12.856 -22.414  0.00  0.00    -0.080 HD
ATOM      8  H   UNL     1      33.734 -16.513 -21.973  0.00  0.00    -0.080 HD
ENDROOT
BRANCH   1   9
ATOM      9  C   UNL     1      32.736 -12.371 -22.925  0.00  0.00    -0.043 C 
BRANCH   9  10
ATOM     10  C   UNL     1      32.174 -11.637 -21.700  0.00  0.00    +0.112 C 
BRANCH  10  13
ATOM     11  O   UNL     1      32.366  -5.659 -20.779  0.00  0.00    -0.440 OA
ATOM     12  O   UNL     1      32.907  -5.203 -22.982  0.00  0.00    -0.245 OA
ATOM     13  C   UNL     1      32.310 -10.137 -21.843  0.00  0.00    -0.002 C 
ATOM     14  C   UNL     1      32.112  -9.296 -20.743  0.00  0.00    -0.024 C 
ATOM     15  C   UNL     1      32.248  -7.932 -20.930  0.00  0.00    +0.023 C 
ATOM     16  C   UNL     1      32.638  -9.607 -23.103  0.00  0.00    -0.002 C 
ATOM     17  C   UNL     1      32.570  -7.425 -22.173  0.00  0.00    +0.075 C 
ATOM     18  C   UNL     1      32.771  -8.230 -23.279  0.00  0.00    +0.006 C 
ATOM     19  C   UNL     1      32.100  -6.828 -19.964  0.00  0.00    +0.235 C 
ATOM     20  C   UNL     1      31.764  -9.844 -19.402  0.00  0.00    +0.031 C 
ATOM     21  C   UNL     1      32.647  -5.976 -22.082  0.00  0.00    +0.341 C 
ENDBRANCH  10  13
BRANCH  10  22
ATOM     22  O   UNL     1      30.791 -11.946 -21.531  0.00  0.00    -0.382 OA
ATOM     23  H   UNL     1      30.279 -11.124 -21.490  0.00  0.00    +0.211 HD
ENDBRANCH  10  22
ENDBRANCH   9  10
ENDBRANCH   1   9
BRANCH   2  24
ATOM     24  C   UNL     1      35.630 -17.001 -21.461  0.00  0.00    -0.043 C 
BRANCH  24  25
ATOM     25  C   UNL     1      35.379 -18.352 -22.142  0.00  0.00    +0.112 C 
BRANCH  25  28
ATOM     26  O   UNL     1      34.968 -22.559 -17.810  0.00  0.00    -0.440 OA
ATOM     27  O   UNL     1      32.679 -22.790 -18.067  0.00  0.00    -0.245 OA
ATOM     28  C   UNL     1      34.904 -19.392 -21.151  0.00  0.00    -0.002 C 
ATOM     29  C   UNL     1      35.808 -20.024 -20.291  0.00  0.00    -0.024 C 
ATOM     30  C   UNL     1      35.321 -20.967 -19.405  0.00  0.00    +0.023 C 
ATOM     31  C   UNL     1      33.535 -19.712 -21.113  0.00  0.00    -0.002 C 
ATOM     32  C   UNL     1      33.975 -21.271 -19.379  0.00  0.00    +0.075 C 
ATOM     33  C   UNL     1      33.055 -20.666 -20.215  0.00  0.00    +0.006 C 
ATOM     34  C   UNL     1      36.034 -21.775 -18.401  0.00  0.00    +0.235 C 
ATOM     35  C   UNL     1      37.262 -19.695 -20.322  0.00  0.00    +0.031 C 
ATOM     36  C   UNL     1      33.744 -22.287 -18.363  0.00  0.00    +0.341 C 
ENDBRANCH  25  28
BRANCH  25  37
ATOM     37  O   UNL     1      34.384 -18.217 -23.157  0.00  0.00    -0.382 OA
ATOM     38  H   UNL     1      34.160 -17.280 -23.267  0.00  0.00    +0.211 HD
ENDBRANCH  25  37
ENDBRANCH  24  25
ENDBRANCH   2  24
TORSDOF 8
ENDMDL
MODEL 2
REMARK VINA RESULT:     -12.0      0.059     11.662
REMARK  Name = 59568713
REMARK  8 active torsions:
REMARK  status: ('A' for Active; 'I' for Inactive)
REMARK    1  A    between atoms: N_1  and  C_9
REMARK    2  A    between atoms: N_2  and  C_24
REMARK    3  A    between atoms: C_9  and  C_10
REMARK    4  A    between atoms: C_10  and  C_13
REMARK    5  A    between atoms: C_10  and  O_22
REMARK    6  A    between atoms: C_24  and  C_25
REMARK    7  A    between atoms: C_25  and  C_28
REMARK    8  A    between atoms: C_25  and  O_37
REMARK                            x       y       z     vdW  Elec       q    Type
REMARK                         _______ _______ _______ _____ _____    ______ ____
ROOT
ATOM      1  N   UNL     1      34.621 -16.039 -21.941  0.00  0.00    +0.386 N 
ATOM      2  N   UNL     1      33.754 -13.351 -22.559  0.00  0.00    +0.386 N 
ATOM      3  C   UNL     1      33.913 -14.362 -23.612  0.00  0.00    -0.101 C 
ATOM      4  C   UNL     1      33.407 -13.989 -21.284  0.00  0.00    -0.101 C 
ATOM      5  C   UNL     1      34.968 -15.401 -23.216  0.00  0.00    -0.101 C 
ATOM      6  C   UNL     1      34.462 -15.029 -20.889  0.00  0.00    -0.101 C 
ATOM      7  H   UNL     1      33.732 -16.525 -22.057  0.00  0.00    -0.080 HD
ATOM      8  H   UNL     1      34.645 -12.866 -22.443  0.00  0.00    -0.080 HD
ENDROOT
BRANCH   1   9
ATOM      9  C   UNL     1      35.630 -17.027 -21.564  0.00  0.00    -0.043 C 
BRANCH   9  10
ATOM     10  C   UNL     1      35.344 -18.380 -22.228  0.00  0.00    +0.112 C 
BRANCH  10  13
ATOM     11  O   UNL     1      34.996 -22.517 -17.825  0.00  0.00    -0.440 OA
ATOM     12  O   UNL     1      32.708 -22.771 -18.063  0.00  0.00    -0.245 OA
ATOM     13  C   UNL     1      34.884 -19.407 -21.217  0.00  0.00    -0.002 C 
ATOM     14  C   UNL     1      35.800 -20.016 -20.353  0.00  0.00    -0.024 C 
ATOM     15  C   UNL     1      35.326 -20.949 -19.449  0.00  0.00    +0.023 C 
ATOM     16  C   UNL     1      33.519 -19.737 -21.165  0.00  0.00    -0.002 C 
ATOM     17  C   UNL     1      33.983 -21.264 -19.409  0.00  0.00    +0.075 C 
ATOM     18  C   UNL     1      33.053 -20.681 -20.249  0.00  0.00    +0.006 C 
ATOM     19  C   UNL     1      36.053 -21.734 -18.435  0.00  0.00    +0.235 C 
ATOM     20  C   UNL     1      37.251 -19.676 -20.398  0.00  0.00    +0.031 C 
ATOM     21  C   UNL     1      33.767 -22.264 -18.375  0.00  0.00    +0.341 C 
ENDBRANCH  10  13
BRANCH  10  22
ATOM     22  O   UNL     1      34.325 -18.240 -23.217  0.00  0.00    -0.382 OA
ATOM     23  H   UNL     1      34.441 -18.917 -23.900  0.00  0.00    +0.211 HD
ENDBRANCH  10  22
ENDBRANCH   9  10
ENDBRANCH   1   9
BRANCH   2  24
ATOM     24  C   UNL     1      32.748 -12.362 -22.936  0.00  0.00    -0.043 C 
BRANCH  24  25
ATOM     25  C   UNL     1      32.195 -11.646 -21.697  0.00  0.00    +0.112 C 
BRANCH  25  28
ATOM     26  O   UNL     1      32.332  -5.675 -20.722  0.00  0.00    -0.440 OA
ATOM     27  O   UNL     1      32.834  -5.192 -22.929  0.00  0.00    -0.245 OA
ATOM     28  C   UNL     1      32.312 -10.143 -21.828  0.00  0.00    -0.002 C 
ATOM     29  C   UNL     1      32.120  -9.314 -20.718  0.00  0.00    -0.024 C 
ATOM     30  C   UNL     1      32.238  -7.947 -20.894  0.00  0.00    +0.023 C 
ATOM     31  C   UNL     1      32.614  -9.597 -23.088  0.00  0.00    -0.002 C 
ATOM     32  C   UNL     1      32.535  -7.425 -22.135  0.00  0.00    +0.075 C 
ATOM     33  C   UNL     1      32.729  -8.216 -23.252  0.00  0.00    +0.006 C 
ATOM     34  C   UNL     1      32.091  -6.855 -19.916  0.00  0.00    +0.235 C 
ATOM     35  C   UNL     1      31.798  -9.879 -19.377  0.00  0.00    +0.031 C 
ATOM     36  C   UNL     1      32.596  -5.975 -22.033  0.00  0.00    +0.341 C 
ENDBRANCH  25  28
BRANCH  25  37
ATOM     37  O   UNL     1      30.818 -11.972 -21.511  0.00  0.00    -0.382 OA
ATOM     38  H   UNL     1      30.538 -11.697 -20.624  0.00  0.00    +0.211 HD
ENDBRANCH  25  37
ENDBRANCH  24  25
ENDBRANCH   2  24
TORSDOF 8
ENDMDL
MODEL 3
REMARK VINA RESULT:     -11.5      2.832      4.935
REMARK  Name = 59568713
REMARK  8 active torsions:
REMARK  status: ('A' for Active; 'I' for Inactive)
REMARK    1  A    between atoms: N_1  and  C_9
REMARK    2  A    between atoms: N_2  and  C_24
REMARK    3  A    between atoms: C_9  and  C_10
REMARK    4  A    between atoms: C_10  and  C_13
REMARK    5  A    between atoms: C_10  and  O_22
REMARK    6  A    between atoms: C_24  and  C_25
REMARK    7  A    between atoms: C_25  and  C_28
REMARK    8  A    between atoms: C_25  and  O_37
REMARK                            x       y       z     vdW  Elec       q    Type
REMARK                         _______ _______ _______ _____ _____    ______ ____
ROOT
ATOM      1  N   UNL     1      31.599  -9.609 -20.558  0.00  0.00    +0.386 N 
ATOM      2  N   UNL     1      32.600 -12.000 -21.840  0.00  0.00    +0.386 N 
ATOM      3  C   UNL     1      31.763 -12.073 -20.636  0.00  0.00    -0.101 C 
ATOM      4  C   UNL     1      32.275 -10.798 -22.617  0.00  0.00    -0.101 C 
ATOM      5  C   UNL     1      31.924 -10.812 -19.781  0.00  0.00    -0.101 C 
ATOM      6  C   UNL     1      32.435  -9.535 -21.762  0.00  0.00    -0.101 C 
ATOM      7  H   UNL     1      30.623  -9.668 -20.847  0.00  0.00    -0.080 HD
ATOM      8  H   UNL     1      33.576 -11.939 -21.549  0.00  0.00    -0.080 HD
ENDROOT
BRANCH   1   9
ATOM      9  C   UNL     1      31.756  -8.407 -19.742  0.00  0.00    -0.043 C 
BRANCH   9  10
ATOM     10  C   UNL     1      32.957  -7.579 -20.217  0.00  0.00    +0.112 C 
BRANCH  10  13
ATOM     11  O   UNL     1      32.499  -3.632 -24.781  0.00  0.00    -0.440 OA
ATOM     12  O   UNL     1      30.583  -2.658 -23.922  0.00  0.00    -0.245 OA
ATOM     13  C   UNL     1      32.532  -6.478 -21.164  0.00  0.00    -0.002 C 
ATOM     14  C   UNL     1      33.270  -6.210 -22.322  0.00  0.00    -0.024 C 
ATOM     15  C   UNL     1      32.837  -5.192 -23.152  0.00  0.00    +0.023 C 
ATOM     16  C   UNL     1      31.382  -5.732 -20.856  0.00  0.00    -0.002 C 
ATOM     17  C   UNL     1      31.706  -4.466 -22.837  0.00  0.00    +0.075 C 
ATOM     18  C   UNL     1      30.955  -4.707 -21.701  0.00  0.00    +0.006 C 
ATOM     19  C   UNL     1      33.410  -4.699 -24.417  0.00  0.00    +0.235 C 
ATOM     20  C   UNL     1      34.492  -6.994 -22.660  0.00  0.00    +0.031 C 
ATOM     21  C   UNL     1      31.486  -3.470 -23.874  0.00  0.00    +0.341 C 
ENDBRANCH  10  13
BRANCH  10  22
ATOM     22  O   UNL     1      33.616  -6.979 -19.102  0.00  0.00    -0.382 OA
ATOM     23  H   UNL     1      33.481  -6.019 -19.125  0.00  0.00    +0.211 HD
ENDBRANCH  10  22
ENDBRANCH   9  10
ENDBRANCH   1   9
BRANCH   2  24
ATOM     24  C   UNL     1      32.445 -13.202 -22.655  0.00  0.00    -0.043 C 
BRANCH  24  25
ATOM     25  C   UNL     1      33.727 -13.494 -23.445  0.00  0.00    +0.112 C 
BRANCH  25  28
ATOM     26  O   UNL     1      35.669 -18.900 -21.540  0.00  0.00    -0.440 OA
ATOM     27  O   UNL     1      35.311 -19.902 -23.596  0.00  0.00    -0.245 OA
ATOM     28  C   UNL     1      34.130 -14.949 -23.329  0.00  0.00    -0.002 C 
ATOM     29  C   UNL     1      34.620 -15.458 -22.123  0.00  0.00    -0.024 C 
ATOM     30  C   UNL     1      34.974 -16.794 -22.072  0.00  0.00    +0.023 C 
ATOM     31  C   UNL     1      34.003 -15.776 -24.459  0.00  0.00    -0.002 C 
ATOM     32  C   UNL     1      34.845 -17.594 -23.188  0.00  0.00    +0.075 C 
ATOM     33  C   UNL     1      34.364 -17.122 -24.395  0.00  0.00    +0.006 C 
ATOM     34  C   UNL     1      35.510 -17.586 -20.951  0.00  0.00    +0.235 C 
ATOM     35  C   UNL     1      34.761 -14.592 -20.917  0.00  0.00    +0.031 C 
ATOM     36  C   UNL     1      35.287 -18.939 -22.856  0.00  0.00    +0.341 C 
ENDBRANCH  25  28
BRANCH  25  37
ATOM     37  O   UNL     1      33.534 -13.194 -24.827  0.00  0.00    -0.382 OA
ATOM     38  H   UNL     1      32.881 -12.483 -24.915  0.00  0.00    +0.211 HD
ENDBRANCH  25  37
ENDBRANCH  24  25
ENDBRANCH   2  24
TORSDOF 8
ENDMDL
MODEL 4
REMARK VINA RESULT:     -11.5      1.054      1.799
REMARK  Name = 59568713
REMARK  8 active torsions:
REMARK  status: ('A' for Active; 'I' for Inactive)
REMARK    1  A    between atoms: N_1  and  C_9
REMARK    2  A    between atoms: N_2  and  C_24
REMARK    3  A    between atoms: C_9  and  C_10
REMARK    4  A    between atoms: C_10  and  C_13
REMARK    5  A    between atoms: C_10  and  O_22
REMARK    6  A    between atoms: C_24  and  C_25
REMARK    7  A    between atoms: C_25  and  C_28
REMARK    8  A    between atoms: C_25  and  O_37
REMARK                            x       y       z     vdW  Elec       q    Type
REMARK                         _______ _______ _______ _____ _____    ______ ____
ROOT
ATOM      1  N   UNL     1      33.789 -13.525 -22.502  0.00  0.00    +0.386 N 
ATOM      2  N   UNL     1      34.671 -16.200 -21.851  0.00  0.00    +0.386 N 
ATOM      3  C   UNL     1      34.941 -15.607 -23.167  0.00  0.00    -0.101 C 
ATOM      4  C   UNL     1      34.589 -15.155 -20.825  0.00  0.00    -0.101 C 
ATOM      5  C   UNL     1      33.872 -14.571 -23.528  0.00  0.00    -0.101 C 
ATOM      6  C   UNL     1      33.520 -14.117 -21.187  0.00  0.00    -0.101 C 
ATOM      7  H   UNL     1      34.687 -13.044 -22.460  0.00  0.00    -0.080 HD
ATOM      8  H   UNL     1      33.771 -16.680 -21.894  0.00  0.00    -0.080 HD
ENDROOT
BRANCH   1   9
ATOM      9  C   UNL     1      32.766 -12.540 -22.847  0.00  0.00    -0.043 C 
BRANCH   9  10
ATOM     10  C   UNL     1      33.376 -11.371 -23.632  0.00  0.00    +0.112 C 
BRANCH  10  13
ATOM     11  O   UNL     1      33.023  -5.525 -22.109  0.00  0.00    -0.440 OA
ATOM     12  O   UNL     1      31.376  -5.900 -20.527  0.00  0.00    -0.245 OA
ATOM     13  C   UNL     1      33.020 -10.039 -23.010  0.00  0.00    -0.002 C 
ATOM     14  C   UNL     1      33.662  -8.867 -23.420  0.00  0.00    -0.024 C 
ATOM     15  C   UNL     1      33.298  -7.676 -22.817  0.00  0.00    +0.023 C 
ATOM     16  C   UNL     1      32.032 -10.005 -22.011  0.00  0.00    -0.002 C 
ATOM     17  C   UNL     1      32.327  -7.657 -21.836  0.00  0.00    +0.075 C 
ATOM     18  C   UNL     1      31.675  -8.799 -21.408  0.00  0.00    +0.006 C 
ATOM     19  C   UNL     1      33.800  -6.310 -23.048  0.00  0.00    +0.235 C 
ATOM     20  C   UNL     1      34.712  -8.888 -24.479  0.00  0.00    +0.031 C 
ATOM     21  C   UNL     1      32.148  -6.288 -21.381  0.00  0.00    +0.341 C 
ENDBRANCH  10  13
BRANCH  10  22
ATOM     22  O   UNL     1      34.798 -11.485 -23.661  0.00  0.00    -0.382 OA
ATOM     23  H   UNL     1      35.190 -10.612 -23.816  0.00  0.00    +0.211 HD
ENDBRANCH  10  22
ENDBRANCH   9  10
ENDBRANCH   1   9
BRANCH   2  24
ATOM     24  C   UNL     1      35.692 -17.187 -21.506  0.00  0.00    -0.043 C 
BRANCH  24  25
ATOM     25  C   UNL     1      35.377 -18.544 -22.148  0.00  0.00    +0.112 C 
BRANCH  25  28
ATOM     26  O   UNL     1      34.834 -22.592 -17.681  0.00  0.00    -0.440 OA
ATOM     27  O   UNL     1      32.541 -22.764 -17.937  0.00  0.00    -0.245 OA
ATOM     28  C   UNL     1      34.870 -19.537 -21.124  0.00  0.00    -0.002 C 
ATOM     29  C   UNL     1      35.754 -20.166 -20.242  0.00  0.00    -0.024 C 
ATOM     30  C   UNL     1      35.237 -21.064 -19.327  0.00  0.00    +0.023 C 
ATOM     31  C   UNL     1      33.492 -19.815 -21.080  0.00  0.00    -0.002 C 
ATOM     32  C   UNL     1      33.883 -21.328 -19.294  0.00  0.00    +0.075 C 
ATOM     33  C   UNL     1      32.983 -20.725 -20.153  0.00  0.00    +0.006 C 
ATOM     34  C   UNL     1      35.925 -21.859 -18.294  0.00  0.00    +0.235 C 
ATOM     35  C   UNL     1      37.217 -19.881 -20.278  0.00  0.00    +0.031 C 
ATOM     36  C   UNL     1      33.620 -22.302 -18.247  0.00  0.00    +0.341 C 
ENDBRANCH  25  28
BRANCH  25  37
ATOM     37  O   UNL     1      34.379 -18.395 -23.157  0.00  0.00    -0.382 OA
ATOM     38  H   UNL     1      34.027 -17.491 -23.132  0.00  0.00    +0.211 HD
ENDBRANCH  25  37
ENDBRANCH  24  25
ENDBRANCH   2  24
TORSDOF 8
ENDMDL
MODEL 5
REMARK VINA RESULT:     -11.5      2.828     11.998
REMARK  Name = 59568713
REMARK  8 active torsions:
REMARK  status: ('A' for Active; 'I' for Inactive)
REMARK    1  A    between atoms: N_1  and  C_9
REMARK    2  A    between atoms: N_2  and  C_24
REMARK    3  A    between atoms: C_9  and  C_10
REMARK    4  A    between atoms: C_10  and  C_13
REMARK    5  A    between atoms: C_10  and  O_22
REMARK    6  A    between atoms: C_24  and  C_25
REMARK    7  A    between atoms: C_25  and  C_28
REMARK    8  A    between atoms: C_25  and  O_37
REMARK                            x       y       z     vdW  Elec       q    Type
REMARK                         _______ _______ _______ _____ _____    ______ ____
ROOT
ATOM      1  N   UNL     1      32.614 -11.984 -21.820  0.00  0.00    +0.386 N 
ATOM      2  N   UNL     1      31.639  -9.549 -20.605  0.00  0.00    +0.386 N 
ATOM      3  C   UNL     1      31.866 -10.761 -19.808  0.00  0.00    -0.101 C 
ATOM      4  C   UNL     1      32.548  -9.514 -21.756  0.00  0.00    -0.101 C 
ATOM      5  C   UNL     1      31.705 -12.018 -20.669  0.00  0.00    -0.101 C 
ATOM      6  C   UNL     1      32.387 -10.772 -22.617  0.00  0.00    -0.101 C 
ATOM      7  H   UNL     1      33.572 -11.965 -21.473  0.00  0.00    -0.080 HD
ATOM      8  H   UNL     1      30.680  -9.570 -20.954  0.00  0.00    -0.080 HD
ENDROOT
BRANCH   1   9
ATOM      9  C   UNL     1      32.456 -13.182 -22.642  0.00  0.00    -0.043 C 
BRANCH   9  10
ATOM     10  C   UNL     1      33.740 -13.478 -23.428  0.00  0.00    +0.112 C 
BRANCH  10  13
ATOM     11  O   UNL     1      35.645 -18.901 -21.535  0.00  0.00    -0.440 OA
ATOM     12  O   UNL     1      35.294 -19.892 -23.597  0.00  0.00    -0.245 OA
ATOM     13  C   UNL     1      34.135 -14.934 -23.316  0.00  0.00    -0.002 C 
ATOM     14  C   UNL     1      34.615 -15.451 -22.109  0.00  0.00    -0.024 C 
ATOM     15  C   UNL     1      34.963 -16.789 -22.062  0.00  0.00    +0.023 C 
ATOM     16  C   UNL     1      34.010 -15.755 -24.450  0.00  0.00    -0.002 C 
ATOM     17  C   UNL     1      34.836 -17.584 -23.183  0.00  0.00    +0.075 C 
ATOM     18  C   UNL     1      34.365 -17.103 -24.391  0.00  0.00    +0.006 C 
ATOM     19  C   UNL     1      35.488 -17.588 -20.941  0.00  0.00    +0.235 C 
ATOM     20  C   UNL     1      34.753 -14.591 -20.898  0.00  0.00    +0.031 C 
ATOM     21  C   UNL     1      35.270 -18.932 -22.852  0.00  0.00    +0.341 C 
ENDBRANCH  10  13
BRANCH  10  22
ATOM     22  O   UNL     1      33.555 -13.171 -24.810  0.00  0.00    -0.382 OA
ATOM     23  H   UNL     1      33.418 -13.990 -25.308  0.00  0.00    +0.211 HD
ENDBRANCH  10  22
ENDBRANCH   9  10
ENDBRANCH   1   9
BRANCH   2  24
ATOM     24  C   UNL     1      31.794  -8.351 -19.784  0.00  0.00    -0.043 C 
BRANCH  24  25
ATOM     25  C   UNL     1      32.979  -7.506 -20.270  0.00  0.00    +0.112 C 
BRANCH  25  28
ATOM     26  O   UNL     1      32.406  -3.520 -24.788  0.00  0.00    -0.440 OA
ATOM     27  O   UNL     1      30.494  -2.575 -23.889  0.00  0.00    -0.245 OA
ATOM     28  C   UNL     1      32.526  -6.401 -21.200  0.00  0.00    -0.002 C 
ATOM     29  C   UNL     1      33.243  -6.112 -22.365  0.00  0.00    -0.024 C 
ATOM     30  C   UNL     1      32.786  -5.092 -23.179  0.00  0.00    +0.023 C 
ATOM     31  C   UNL     1      31.373  -5.669 -20.866  0.00  0.00    -0.002 C 
ATOM     32  C   UNL     1      31.653  -4.382 -22.840  0.00  0.00    +0.075 C 
ATOM     33  C   UNL     1      30.922  -4.641 -21.695  0.00  0.00    +0.006 C 
ATOM     34  C   UNL     1      33.334  -4.580 -24.447  0.00  0.00    +0.235 C 
ATOM     35  C   UNL     1      34.468  -6.879 -22.730  0.00  0.00    +0.031 C 
ATOM     36  C   UNL     1      31.405  -3.377 -23.862  0.00  0.00    +0.341 C 
ENDBRANCH  25  28
BRANCH  25  37
ATOM     37  O   UNL     1      33.648  -6.908 -19.160  0.00  0.00    -0.382 OA
ATOM     38  H   UNL     1      33.524  -5.947 -19.187  0.00  0.00    +0.211 HD
ENDBRANCH  25  37
ENDBRANCH  24  25
ENDBRANCH   2  24
TORSDOF 8
ENDMDL
MODEL 6
REMARK VINA RESULT:     -11.4      1.057     11.663
REMARK  Name = 59568713
REMARK  8 active torsions:
REMARK  status: ('A' for Active; 'I' for Inactive)
REMARK    1  A    between atoms: N_1  and  C_9
REMARK    2  A    between atoms: N_2  and  C_24
REMARK    3  A    between atoms: C_9  and  C_10
REMARK    4  A    between atoms: C_10  and  C_13
REMARK    5  A    between atoms: C_10  and  O_22
REMARK    6  A    between atoms: C_24  and  C_25
REMARK    7  A    between atoms: C_25  and  C_28
REMARK    8  A    between atoms: C_25  and  O_37
REMARK                            x       y       z     vdW  Elec       q    Type
REMARK                         _______ _______ _______ _____ _____    ______ ____
ROOT
ATOM      1  N   UNL     1      34.657 -16.151 -21.923  0.00  0.00    +0.386 N 
ATOM      2  N   UNL     1      33.760 -13.487 -22.597  0.00  0.00    +0.386 N 
ATOM      3  C   UNL     1      33.834 -14.546 -23.611  0.00  0.00    -0.101 C 
ATOM      4  C   UNL     1      33.506 -14.063 -21.272  0.00  0.00    -0.101 C 
ATOM      5  C   UNL     1      34.911 -15.574 -23.248  0.00  0.00    -0.101 C 
ATOM      6  C   UNL     1      34.582 -15.093 -20.909  0.00  0.00    -0.101 C 
ATOM      7  H   UNL     1      33.760 -16.635 -21.949  0.00  0.00    -0.080 HD
ATOM      8  H   UNL     1      34.658 -13.004 -22.570  0.00  0.00    -0.080 HD
ENDROOT
BRANCH   1   9
ATOM      9  C   UNL     1      35.688 -17.129 -21.577  0.00  0.00    -0.043 C 
BRANCH   9  10
ATOM     10  C   UNL     1      35.386 -18.489 -22.218  0.00  0.00    +0.112 C 
BRANCH  10  13
ATOM     11  O   UNL     1      34.904 -22.541 -17.750  0.00  0.00    -0.440 OA
ATOM     12  O   UNL     1      32.612 -22.745 -18.002  0.00  0.00    -0.245 OA
ATOM     13  C   UNL     1      34.893 -19.488 -21.194  0.00  0.00    -0.002 C 
ATOM     14  C   UNL     1      35.788 -20.104 -20.312  0.00  0.00    -0.024 C 
ATOM     15  C   UNL     1      35.284 -21.010 -19.396  0.00  0.00    +0.023 C 
ATOM     16  C   UNL     1      33.521 -19.784 -21.147  0.00  0.00    -0.002 C 
ATOM     17  C   UNL     1      33.933 -21.292 -19.362  0.00  0.00    +0.075 C 
ATOM     18  C   UNL     1      33.024 -20.700 -20.220  0.00  0.00    +0.006 C 
ATOM     19  C   UNL     1      35.984 -21.794 -18.363  0.00  0.00    +0.235 C 
ATOM     20  C   UNL     1      37.247 -19.799 -20.351  0.00  0.00    +0.031 C 
ATOM     21  C   UNL     1      33.685 -22.268 -18.313  0.00  0.00    +0.341 C 
ENDBRANCH  10  13
BRANCH  10  22
ATOM     22  O   UNL     1      34.383 -18.350 -23.224  0.00  0.00    -0.382 OA
ATOM     23  H   UNL     1      34.149 -17.414 -23.321  0.00  0.00    +0.211 HD
ENDBRANCH  10  22
ENDBRANCH   9  10
ENDBRANCH   1   9
BRANCH   2  24
ATOM     24  C   UNL     1      32.732 -12.508 -22.943  0.00  0.00    -0.043 C 
BRANCH  24  25
ATOM     25  C   UNL     1      33.337 -11.334 -23.724  0.00  0.00    +0.112 C 
BRANCH  25  28
ATOM     26  O   UNL     1      33.053  -5.508 -22.112  0.00  0.00    -0.440 OA
ATOM     27  O   UNL     1      31.389  -5.884 -20.548  0.00  0.00    -0.245 OA
ATOM     28  C   UNL     1      32.994 -10.007 -23.083  0.00  0.00    -0.002 C 
ATOM     29  C   UNL     1      33.656  -8.837 -23.469  0.00  0.00    -0.024 C 
ATOM     30  C   UNL     1      33.304  -7.651 -22.851  0.00  0.00    +0.023 C 
ATOM     31  C   UNL     1      32.000  -9.975 -22.089  0.00  0.00    -0.002 C 
ATOM     32  C   UNL     1      32.326  -7.634 -21.877  0.00  0.00    +0.075 C 
ATOM     33  C   UNL     1      31.655  -8.772 -21.472  0.00  0.00    +0.006 C 
ATOM     34  C   UNL     1      33.826  -6.289 -23.057  0.00  0.00    +0.235 C 
ATOM     35  C   UNL     1      34.713  -8.857 -24.520  0.00  0.00    +0.031 C 
ATOM     36  C   UNL     1      32.162  -6.269 -21.402  0.00  0.00    +0.341 C 
ENDBRANCH  25  28
BRANCH  25  37
ATOM     37  O   UNL     1      34.759 -11.453 -23.771  0.00  0.00    -0.382 OA
ATOM     38  H   UNL     1      35.114 -10.819 -24.414  0.00  0.00    +0.211 HD
ENDBRANCH  25  37
ENDBRANCH  24  25
ENDBRANCH   2  24
TORSDOF 8
ENDMDL
MODEL 7
REMARK VINA RESULT:     -11.0      1.533     11.563
REMARK  Name = 59568713
REMARK  8 active torsions:
REMARK  status: ('A' for Active; 'I' for Inactive)
REMARK    1  A    between atoms: N_1  and  C_9
REMARK    2  A    between atoms: N_2  and  C_24
REMARK    3  A    between atoms: C_9  and  C_10
REMARK    4  A    between atoms: C_10  and  C_13
REMARK    5  A    between atoms: C_10  and  O_22
REMARK    6  A    between atoms: C_24  and  C_25
REMARK    7  A    between atoms: C_25  and  C_28
REMARK    8  A    between atoms: C_25  and  O_37
REMARK                            x       y       z     vdW  Elec       q    Type
REMARK                         _______ _______ _______ _____ _____    ______ ____
ROOT
ATOM      1  N   UNL     1      35.608 -17.459 -23.058  0.00  0.00    +0.386 N 
ATOM      2  N   UNL     1      33.853 -15.200 -23.479  0.00  0.00    +0.386 N 
ATOM      3  C   UNL     1      34.912 -15.165 -22.462  0.00  0.00    -0.101 C 
ATOM      4  C   UNL     1      34.236 -16.084 -24.586  0.00  0.00    -0.101 C 
ATOM      5  C   UNL     1      35.225 -16.575 -21.951  0.00  0.00    -0.101 C 
ATOM      6  C   UNL     1      34.551 -17.494 -24.075  0.00  0.00    -0.101 C 
ATOM      7  H   UNL     1      36.455 -17.087 -23.488  0.00  0.00    -0.080 HD
ATOM      8  H   UNL     1      33.006 -15.574 -23.048  0.00  0.00    -0.080 HD
ENDROOT
BRANCH   1   9
ATOM      9  C   UNL     1      35.903 -18.804 -22.569  0.00  0.00    -0.043 C 
BRANCH   9  10
ATOM     10  C   UNL     1      36.505 -18.752 -21.159  0.00  0.00    +0.112 C 
BRANCH  10  13
ATOM     11  O   UNL     1      32.887 -22.699 -18.339  0.00  0.00    -0.440 OA
ATOM     12  O   UNL     1      34.595 -23.519 -17.010  0.00  0.00    -0.245 OA
ATOM     13  C   UNL     1      35.924 -19.829 -20.269  0.00  0.00    -0.002 C 
ATOM     14  C   UNL     1      34.568 -20.163 -20.346  0.00  0.00    -0.024 C 
ATOM     15  C   UNL     1      34.089 -21.154 -19.509  0.00  0.00    +0.023 C 
ATOM     16  C   UNL     1      36.774 -20.485 -19.363  0.00  0.00    -0.002 C 
ATOM     17  C   UNL     1      34.935 -21.790 -18.623  0.00  0.00    +0.075 C 
ATOM     18  C   UNL     1      36.279 -21.483 -18.522  0.00  0.00    +0.006 C 
ATOM     19  C   UNL     1      32.727 -21.701 -19.378  0.00  0.00    +0.235 C 
ATOM     20  C   UNL     1      33.655 -19.474 -21.303  0.00  0.00    +0.031 C 
ATOM     21  C   UNL     1      34.173 -22.777 -17.874  0.00  0.00    +0.341 C 
ENDBRANCH  10  13
BRANCH  10  22
ATOM     22  O   UNL     1      37.919 -18.936 -21.217  0.00  0.00    -0.382 OA
ATOM     23  H   UNL     1      38.338 -18.465 -20.481  0.00  0.00    +0.211 HD
ENDBRANCH  10  22
ENDBRANCH   9  10
ENDBRANCH   1   9
BRANCH   2  24
ATOM     24  C   UNL     1      33.555 -13.856 -23.967  0.00  0.00    -0.043 C 
BRANCH  24  25
ATOM     25  C   UNL     1      32.970 -12.986 -22.847  0.00  0.00    +0.112 C 
BRANCH  25  28
ATOM     26  O   UNL     1      32.928  -6.935 -22.767  0.00  0.00    -0.440 OA
ATOM     27  O   UNL     1      34.581  -6.770 -24.377  0.00  0.00    -0.245 OA
ATOM     28  C   UNL     1      33.233 -11.516 -23.092  0.00  0.00    -0.002 C 
ATOM     29  C   UNL     1      32.520 -10.538 -22.392  0.00  0.00    -0.024 C 
ATOM     30  C   UNL     1      32.800  -9.210 -22.656  0.00  0.00    +0.023 C 
ATOM     31  C   UNL     1      34.207 -11.155 -24.039  0.00  0.00    -0.002 C 
ATOM     32  C   UNL     1      33.758  -8.869 -23.587  0.00  0.00    +0.075 C 
ATOM     33  C   UNL     1      34.480  -9.811 -24.297  0.00  0.00    +0.006 C 
ATOM     34  C   UNL     1      32.212  -7.989 -22.076  0.00  0.00    +0.235 C 
ATOM     35  C   UNL     1      31.484 -10.908 -21.386  0.00  0.00    +0.031 C 
ATOM     36  C   UNL     1      33.844  -7.419 -23.663  0.00  0.00    +0.341 C 
ENDBRANCH  25  28
BRANCH  25  37
ATOM     37  O   UNL     1      31.558 -13.178 -22.759  0.00  0.00    -0.382 OA
ATOM     38  H   UNL     1      31.281 -13.118 -21.831  0.00  0.00    +0.211 HD
ENDBRANCH  25  37
ENDBRANCH  24  25
ENDBRANCH   2  24
TORSDOF 8
ENDMDL
MODEL 8
REMARK VINA RESULT:     -10.9      1.974     11.528
REMARK  Name = 59568713
REMARK  8 active torsions:
REMARK  status: ('A' for Active; 'I' for Inactive)
REMARK    1  A    between atoms: N_1  and  C_9
REMARK    2  A    between atoms: N_2  and  C_24
REMARK    3  A    between atoms: C_9  and  C_10
REMARK    4  A    between atoms: C_10  and  C_13
REMARK    5  A    between atoms: C_10  and  O_22
REMARK    6  A    between atoms: C_24  and  C_25
REMARK    7  A    between atoms: C_25  and  C_28
REMARK    8  A    between atoms: C_25  and  O_37
REMARK                            x       y       z     vdW  Elec       q    Type
REMARK                         _______ _______ _______ _____ _____    ______ ____
ROOT
ATOM      1  N   UNL     1      34.993 -18.440 -21.315  0.00  0.00    +0.386 N 
ATOM      2  N   UNL     1      35.493 -16.098 -22.937  0.00  0.00    +0.386 N 
ATOM      3  C   UNL     1      35.140 -17.387 -23.546  0.00  0.00    -0.101 C 
ATOM      4  C   UNL     1      34.902 -15.986 -21.598  0.00  0.00    -0.101 C 
ATOM      5  C   UNL     1      35.584 -18.552 -22.654  0.00  0.00    -0.101 C 
ATOM      6  C   UNL     1      35.344 -17.151 -20.706  0.00  0.00    -0.101 C 
ATOM      7  H   UNL     1      33.978 -18.485 -21.407  0.00  0.00    -0.080 HD
ATOM      8  H   UNL     1      36.508 -16.054 -22.844  0.00  0.00    -0.080 HD
ENDROOT
BRANCH   1   9
ATOM      9  C   UNL     1      35.420 -19.549 -20.465  0.00  0.00    -0.043 C 
BRANCH   9  10
ATOM     10  C   UNL     1      34.436 -20.722 -20.564  0.00  0.00    +0.112 C 
BRANCH  10  13
ATOM     11  O   UNL     1      35.458 -23.448 -15.259  0.00  0.00    -0.440 OA
ATOM     12  O   UNL     1      33.222 -23.948 -14.933  0.00  0.00    -0.245 OA
ATOM     13  C   UNL     1      34.311 -21.453 -19.245  0.00  0.00    -0.002 C 
ATOM     14  C   UNL     1      35.442 -21.713 -18.465  0.00  0.00    -0.024 C 
ATOM     15  C   UNL     1      35.271 -22.386 -17.268  0.00  0.00    +0.023 C 
ATOM     16  C   UNL     1      33.037 -21.866 -18.822  0.00  0.00    -0.002 C 
ATOM     17  C   UNL     1      34.014 -22.786 -16.865  0.00  0.00    +0.075 C 
ATOM     18  C   UNL     1      32.876 -22.545 -17.613  0.00  0.00    +0.006 C 
ATOM     19  C   UNL     1      36.270 -22.787 -16.261  0.00  0.00    +0.235 C 
ATOM     20  C   UNL     1      36.801 -21.281 -18.902  0.00  0.00    +0.031 C 
ATOM     21  C   UNL     1      34.127 -23.464 -15.583  0.00  0.00    +0.341 C 
ENDBRANCH  10  13
BRANCH  10  22
ATOM     22  O   UNL     1      33.142 -20.251 -20.937  0.00  0.00    -0.382 OA
ATOM     23  H   UNL     1      32.698 -20.920 -21.480  0.00  0.00    +0.211 HD
ENDBRANCH  10  22
ENDBRANCH   9  10
ENDBRANCH   1   9
BRANCH   2  24
ATOM     24  C   UNL     1      35.068 -14.989 -23.787  0.00  0.00    -0.043 C 
BRANCH  24  25
ATOM     25  C   UNL     1      33.581 -14.677 -23.576  0.00  0.00    +0.112 C 
BRANCH  25  28
ATOM     26  O   UNL     1      32.007  -9.132 -21.732  0.00  0.00    -0.440 OA
ATOM     27  O   UNL     1      32.810  -8.121 -23.653  0.00  0.00    -0.245 OA
ATOM     28  C   UNL     1      33.339 -13.188 -23.452  0.00  0.00    -0.002 C 
ATOM     29  C   UNL     1      32.723 -12.658 -22.314  0.00  0.00    -0.024 C 
ATOM     30  C   UNL     1      32.526 -11.291 -22.253  0.00  0.00    +0.023 C 
ATOM     31  C   UNL     1      33.744 -12.350 -24.505  0.00  0.00    -0.002 C 
ATOM     32  C   UNL     1      32.928 -10.480 -23.293  0.00  0.00    +0.075 C 
ATOM     33  C   UNL     1      33.539 -10.972 -24.432  0.00  0.00    +0.006 C 
ATOM     34  C   UNL     1      31.913 -10.473 -21.192  0.00  0.00    +0.235 C 
ATOM     35  C   UNL     1      32.288 -13.536 -21.190  0.00  0.00    +0.031 C 
ATOM     36  C   UNL     1      32.600  -9.101 -22.967  0.00  0.00    +0.341 C 
ENDBRANCH  25  28
BRANCH  25  37
ATOM     37  O   UNL     1      32.813 -15.164 -24.676  0.00  0.00    -0.382 OA
ATOM     38  H   UNL     1      32.011 -15.596 -24.344  0.00  0.00    +0.211 HD
ENDBRANCH  25  37
ENDBRANCH  24  25
ENDBRANCH   2  24
TORSDOF 8
ENDMDL
MODEL 9
REMARK VINA RESULT:     -10.9      2.589      4.889
REMARK  Name = 59568713
REMARK  8 active torsions:
REMARK  status: ('A' for Active; 'I' for Inactive)
REMARK    1  A    between atoms: N_1  and  C_9
REMARK    2  A    between atoms: N_2  and  C_24
REMARK    3  A    between atoms: C_9  and  C_10
REMARK    4  A    between atoms: C_10  and  C_13
REMARK    5  A    between atoms: C_10  and  O_22
REMARK    6  A    between atoms: C_24  and  C_25
REMARK    7  A    between atoms: C_25  and  C_28
REMARK    8  A    between atoms: C_25  and  O_37
REMARK                            x       y       z     vdW  Elec       q    Type
REMARK                         _______ _______ _______ _____ _____    ______ ____
ROOT
ATOM      1  N   UNL     1      32.301  -9.602 -20.411  0.00  0.00    +0.386 N 
ATOM      2  N   UNL     1      31.785 -12.084 -21.800  0.00  0.00    +0.386 N 
ATOM      3  C   UNL     1      32.376 -10.932 -22.492  0.00  0.00    -0.101 C 
ATOM      4  C   UNL     1      32.145 -12.068 -20.378  0.00  0.00    -0.101 C 
ATOM      5  C   UNL     1      31.941  -9.619 -21.834  0.00  0.00    -0.101 C 
ATOM      6  C   UNL     1      31.711 -10.754 -19.720  0.00  0.00    -0.101 C 
ATOM      7  H   UNL     1      33.316  -9.667 -20.336  0.00  0.00    -0.080 HD
ATOM      8  H   UNL     1      30.769 -12.017 -21.875  0.00  0.00    -0.080 HD
ENDROOT
BRANCH   1   9
ATOM      9  C   UNL     1      31.882  -8.350 -19.785  0.00  0.00    -0.043 C 
BRANCH   9  10
ATOM     10  C   UNL     1      32.931  -7.252 -20.005  0.00  0.00    +0.112 C 
BRANCH  10  13
ATOM     11  O   UNL     1      32.427  -3.939 -25.044  0.00  0.00    -0.440 OA
ATOM     12  O   UNL     1      30.539  -2.834 -24.288  0.00  0.00    -0.245 OA
ATOM     13  C   UNL     1      32.499  -6.281 -21.082  0.00  0.00    -0.002 C 
ATOM     14  C   UNL     1      33.218  -6.178 -22.278  0.00  0.00    -0.024 C 
ATOM     15  C   UNL     1      32.780  -5.273 -23.228  0.00  0.00    +0.023 C 
ATOM     16  C   UNL     1      31.363  -5.486 -20.856  0.00  0.00    -0.002 C 
ATOM     17  C   UNL     1      31.663  -4.498 -22.993  0.00  0.00    +0.075 C 
ATOM     18  C   UNL     1      30.931  -4.576 -21.822  0.00  0.00    +0.006 C 
ATOM     19  C   UNL     1      33.333  -4.960 -24.558  0.00  0.00    +0.235 C 
ATOM     20  C   UNL     1      34.425  -7.015 -22.531  0.00  0.00    +0.031 C 
ATOM     21  C   UNL     1      31.433  -3.645 -24.148  0.00  0.00    +0.341 C 
ENDBRANCH  10  13
BRANCH  10  22
ATOM     22  O   UNL     1      33.138  -6.517 -18.799  0.00  0.00    -0.382 OA
ATOM     23  H   UNL     1      34.011  -6.730 -18.436  0.00  0.00    +0.211 HD
ENDBRANCH  10  22
ENDBRANCH   9  10
ENDBRANCH   1   9
BRANCH   2  24
ATOM     24  C   UNL     1      32.201 -13.337 -22.427  0.00  0.00    -0.043 C 
BRANCH  24  25
ATOM     25  C   UNL     1      33.728 -13.400 -22.558  0.00  0.00    +0.112 C 
BRANCH  25  28
ATOM     26  O   UNL     1      35.705 -19.119 -22.439  0.00  0.00    -0.440 OA
ATOM     27  O   UNL     1      36.081 -19.082 -20.156  0.00  0.00    -0.245 OA
ATOM     28  C   UNL     1      34.262 -14.757 -22.154  0.00  0.00    -0.002 C 
ATOM     29  C   UNL     1      34.444 -15.765 -23.107  0.00  0.00    -0.024 C 
ATOM     30  C   UNL     1      34.934 -16.986 -22.683  0.00  0.00    +0.023 C 
ATOM     31  C   UNL     1      34.570 -14.985 -20.801  0.00  0.00    -0.002 C 
ATOM     32  C   UNL     1      35.233 -17.196 -21.352  0.00  0.00    +0.075 C 
ATOM     33  C   UNL     1      35.064 -16.222 -20.386  0.00  0.00    +0.006 C 
ATOM     34  C   UNL     1      35.221 -18.207 -23.456  0.00  0.00    +0.235 C 
ATOM     35  C   UNL     1      34.120 -15.537 -24.544  0.00  0.00    +0.031 C 
ATOM     36  C   UNL     1      35.725 -18.555 -21.191  0.00  0.00    +0.341 C 
ENDBRANCH  25  28
BRANCH  25  37
ATOM     37  O   UNL     1      34.119 -13.151 -23.908  0.00  0.00    -0.382 OA
ATOM     38  H   UNL     1      33.329 -13.088 -24.467  0.00  0.00    +0.211 HD
ENDBRANCH  25  37
ENDBRANCH  24  25
ENDBRANCH   2  24
TORSDOF 8
ENDMDL
