MODEL 1
REMARK VINA RESULT:     -12.1      0.000      0.000
REMARK  Name = 10389239
REMARK  2 active torsions:
REMARK  status: ('A' for Active; 'I' for Inactive)
REMARK    1  A    between atoms: C_2  and  C_14
REMARK    2  A    between atoms: C_4  and  C_20
REMARK                            x       y       z     vdW  Elec       q    Type
REMARK                         _______ _______ _______ _____ _____    ______ ____
ROOT
ATOM      1  N   UNL     1      32.310 -22.456 -17.697  0.00  0.00    -0.244 NA
ATOM      2  C   UNL     1      34.195 -23.491 -15.912  0.00  0.00    +0.016 C 
ATOM      3  C   UNL     1      34.607 -22.700 -16.979  0.00  0.00    +0.020 C 
ATOM      4  C   UNL     1      33.633 -22.212 -17.835  0.00  0.00    +0.083 C 
ATOM      5  C   UNL     1      32.844 -23.767 -15.736  0.00  0.00    +0.022 C 
ATOM      6  C   UNL     1      31.950 -23.229 -16.648  0.00  0.00    +0.099 C 
ENDROOT
BRANCH   2  14
ATOM      7  O   UNL     1      35.960 -25.529 -10.994  0.00  0.00    -0.270 OA
ATOM      8  N   UNL     1      36.498 -24.135 -15.317  0.00  0.00    -0.316 N 
ATOM      9  N   UNL     1      38.030 -25.894 -11.955  0.00  0.00    -0.300 N 
ATOM     10  C   UNL     1      37.171 -24.666 -14.255  0.00  0.00    +0.031 C 
ATOM     11  C   UNL     1      38.629 -24.923 -14.185  0.00  0.00    +0.063 C 
ATOM     12  C   UNL     1      36.273 -24.908 -13.237  0.00  0.00    +0.064 C 
ATOM     13  C   UNL     1      38.860 -26.036 -13.157  0.00  0.00    +0.096 C 
ATOM     14  C   UNL     1      35.168 -24.026 -14.989  0.00  0.00    +0.048 C 
ATOM     15  C   UNL     1      35.002 -24.493 -13.701  0.00  0.00    +0.020 C 
ATOM     16  C   UNL     1      36.704 -25.465 -11.969  0.00  0.00    +0.247 C 
ATOM     17  H   UNL     1      36.898 -23.874 -16.177  0.00  0.00    +0.152 HD
ATOM     18  H   UNL     1      38.436 -26.115 -11.086  0.00  0.00    +0.150 HD
ENDBRANCH   2  14
BRANCH   4  20
ATOM     19  N   UNL     1      33.303 -20.233 -20.975  0.00  0.00    -0.244 NA
ATOM     20  C   UNL     1      33.984 -21.384 -18.965  0.00  0.00    +0.037 C 
ATOM     21  C   UNL     1      35.284 -20.939 -19.154  0.00  0.00    +0.005 C 
ATOM     22  C   UNL     1      35.601 -20.136 -20.258  0.00  0.00    +0.018 C 
ATOM     23  C   UNL     1      34.565 -19.803 -21.156  0.00  0.00    +0.081 C 
ATOM     24  C   UNL     1      33.038 -21.007 -19.898  0.00  0.00    +0.100 C 
ATOM     25  C   UNL     1      36.908 -19.669 -20.477  0.00  0.00    +0.001 C 
ATOM     26  C   UNL     1      34.880 -19.006 -22.253  0.00  0.00    +0.019 C 
ATOM     27  C   UNL     1      37.195 -18.872 -21.583  0.00  0.00    +0.000 C 
ATOM     28  C   UNL     1      36.180 -18.541 -22.471  0.00  0.00    +0.002 C 
ENDBRANCH   4  20
TORSDOF 2
ENDMDL
MODEL 2
REMARK VINA RESULT:     -11.9      1.088      1.334
REMARK  Name = 10389239
REMARK  2 active torsions:
REMARK  status: ('A' for Active; 'I' for Inactive)
REMARK    1  A    between atoms: C_2  and  C_14
REMARK    2  A    between atoms: C_4  and  C_20
REMARK                            x       y       z     vdW  Elec       q    Type
REMARK                         _______ _______ _______ _____ _____    ______ ____
ROOT
ATOM      1  N   UNL     1      32.290 -22.537 -17.774  0.00  0.00    -0.244 NA
ATOM      2  C   UNL     1      34.097 -23.412 -15.830  0.00  0.00    +0.016 C 
ATOM      3  C   UNL     1      34.538 -22.625 -16.887  0.00  0.00    +0.020 C 
ATOM      4  C   UNL     1      33.603 -22.217 -17.825  0.00  0.00    +0.083 C 
ATOM      5  C   UNL     1      32.755 -23.764 -15.742  0.00  0.00    +0.022 C 
ATOM      6  C   UNL     1      31.900 -23.304 -16.731  0.00  0.00    +0.099 C 
ENDROOT
BRANCH   2  14
ATOM      7  O   UNL     1      37.775 -26.970 -13.534  0.00  0.00    -0.270 OA
ATOM      8  N   UNL     1      35.239 -23.166 -13.661  0.00  0.00    -0.316 N 
ATOM      9  N   UNL     1      38.146 -25.416 -11.864  0.00  0.00    -0.300 N 
ATOM     10  C   UNL     1      36.163 -23.830 -12.908  0.00  0.00    +0.031 C 
ATOM     11  C   UNL     1      36.651 -23.429 -11.567  0.00  0.00    +0.063 C 
ATOM     12  C   UNL     1      36.560 -24.961 -13.590  0.00  0.00    +0.064 C 
ATOM     13  C   UNL     1      38.045 -24.036 -11.374  0.00  0.00    +0.096 C 
ATOM     14  C   UNL     1      35.030 -23.864 -14.825  0.00  0.00    +0.048 C 
ATOM     15  C   UNL     1      35.833 -24.987 -14.805  0.00  0.00    +0.020 C 
ATOM     16  C   UNL     1      37.534 -25.878 -13.028  0.00  0.00    +0.247 C 
ATOM     17  H   UNL     1      34.795 -22.324 -13.411  0.00  0.00    +0.152 HD
ATOM     18  H   UNL     1      38.680 -26.054 -11.338  0.00  0.00    +0.150 HD
ENDBRANCH   2  14
BRANCH   4  20
ATOM     19  N   UNL     1      33.364 -20.266 -20.990  0.00  0.00    -0.244 NA
ATOM     20  C   UNL     1      33.987 -21.398 -18.950  0.00  0.00    +0.037 C 
ATOM     21  C   UNL     1      35.291 -20.952 -19.103  0.00  0.00    +0.005 C 
ATOM     22  C   UNL     1      35.639 -20.158 -20.204  0.00  0.00    +0.018 C 
ATOM     23  C   UNL     1      34.631 -19.835 -21.137  0.00  0.00    +0.081 C 
ATOM     24  C   UNL     1      33.069 -21.031 -19.914  0.00  0.00    +0.100 C 
ATOM     25  C   UNL     1      36.952 -19.689 -20.388  0.00  0.00    +0.001 C 
ATOM     26  C   UNL     1      34.978 -19.046 -22.229  0.00  0.00    +0.019 C 
ATOM     27  C   UNL     1      37.271 -18.902 -21.491  0.00  0.00    +0.000 C 
ATOM     28  C   UNL     1      36.282 -18.580 -22.412  0.00  0.00    +0.002 C 
ENDBRANCH   4  20
TORSDOF 2
ENDMDL
MODEL 3
REMARK VINA RESULT:     -11.4      6.408     11.768
REMARK  Name = 10389239
REMARK  2 active torsions:
REMARK  status: ('A' for Active; 'I' for Inactive)
REMARK    1  A    between atoms: C_2  and  C_14
REMARK    2  A    between atoms: C_4  and  C_20
REMARK                            x       y       z     vdW  Elec       q    Type
REMARK                         _______ _______ _______ _____ _____    ______ ____
ROOT
ATOM      1  N   UNL     1      35.075 -17.910 -23.884  0.00  0.00    -0.244 NA
ATOM      2  C   UNL     1      34.146 -15.348 -23.268  0.00  0.00    +0.016 C 
ATOM      3  C   UNL     1      34.566 -16.199 -22.253  0.00  0.00    +0.020 C 
ATOM      4  C   UNL     1      35.017 -17.459 -22.611  0.00  0.00    +0.083 C 
ATOM      5  C   UNL     1      34.188 -15.774 -24.590  0.00  0.00    +0.022 C 
ATOM      6  C   UNL     1      34.658 -17.053 -24.843  0.00  0.00    +0.099 C 
ENDROOT
BRANCH   2  14
ATOM      7  O   UNL     1      33.710  -9.797 -23.942  0.00  0.00    -0.270 OA
ATOM      8  N   UNL     1      32.878 -13.779 -21.853  0.00  0.00    -0.316 N 
ATOM      9  N   UNL     1      32.144  -9.773 -22.242  0.00  0.00    -0.300 N 
ATOM     10  C   UNL     1      32.585 -12.447 -21.807  0.00  0.00    +0.031 C 
ATOM     11  C   UNL     1      31.782 -11.763 -20.766  0.00  0.00    +0.063 C 
ATOM     12  C   UNL     1      33.181 -11.826 -22.885  0.00  0.00    +0.064 C 
ATOM     13  C   UNL     1      31.192 -10.493 -21.388  0.00  0.00    +0.096 C 
ATOM     14  C   UNL     1      33.666 -14.023 -22.951  0.00  0.00    +0.048 C 
ATOM     15  C   UNL     1      33.875 -12.826 -23.606  0.00  0.00    +0.020 C 
ATOM     16  C   UNL     1      33.053 -10.396 -23.095  0.00  0.00    +0.247 C 
ATOM     17  H   UNL     1      32.574 -14.455 -21.205  0.00  0.00    +0.152 HD
ATOM     18  H   UNL     1      32.140  -8.789 -22.210  0.00  0.00    +0.150 HD
ENDBRANCH   2  14
BRANCH   4  20
ATOM     19  N   UNL     1      37.262 -19.248 -20.235  0.00  0.00    -0.244 NA
ATOM     20  C   UNL     1      35.470 -18.398 -21.612  0.00  0.00    +0.037 C 
ATOM     21  C   UNL     1      34.607 -19.337 -21.064  0.00  0.00    +0.005 C 
ATOM     22  C   UNL     1      35.070 -20.238 -20.095  0.00  0.00    +0.018 C 
ATOM     23  C   UNL     1      36.423 -20.158 -19.705  0.00  0.00    +0.081 C 
ATOM     24  C   UNL     1      36.777 -18.397 -21.167  0.00  0.00    +0.100 C 
ATOM     25  C   UNL     1      34.222 -21.200 -19.521  0.00  0.00    +0.001 C 
ATOM     26  C   UNL     1      36.882 -21.053 -18.743  0.00  0.00    +0.019 C 
ATOM     27  C   UNL     1      34.707 -22.084 -18.560  0.00  0.00    +0.000 C 
ATOM     28  C   UNL     1      36.039 -22.010 -18.171  0.00  0.00    +0.002 C 
ENDBRANCH   4  20
TORSDOF 2
ENDMDL
MODEL 4
REMARK VINA RESULT:     -11.4      3.320      8.569
REMARK  Name = 10389239
REMARK  2 active torsions:
REMARK  status: ('A' for Active; 'I' for Inactive)
REMARK    1  A    between atoms: C_2  and  C_14
REMARK    2  A    between atoms: C_4  and  C_20
REMARK                            x       y       z     vdW  Elec       q    Type
REMARK                         _______ _______ _______ _____ _____    ______ ____
ROOT
ATOM      1  N   UNL     1      36.125 -23.294 -15.282  0.00  0.00    -0.244 NA
ATOM      2  C   UNL     1      36.084 -21.775 -17.627  0.00  0.00    +0.016 C 
ATOM      3  C   UNL     1      34.900 -22.277 -17.102  0.00  0.00    +0.020 C 
ATOM      4  C   UNL     1      34.974 -23.025 -15.937  0.00  0.00    +0.083 C 
ATOM      5  C   UNL     1      37.290 -22.030 -16.983  0.00  0.00    +0.022 C 
ATOM      6  C   UNL     1      37.256 -22.788 -15.823  0.00  0.00    +0.099 C 
ENDROOT
BRANCH   2  14
ATOM      7  O   UNL     1      38.269 -18.410 -21.546  0.00  0.00    -0.270 OA
ATOM      8  N   UNL     1      34.917 -20.815 -19.572  0.00  0.00    -0.316 N 
ATOM      9  N   UNL     1      36.287 -18.587 -22.720  0.00  0.00    -0.300 N 
ATOM     10  C   UNL     1      35.199 -20.030 -20.652  0.00  0.00    +0.031 C 
ATOM     11  C   UNL     1      34.234 -19.578 -21.682  0.00  0.00    +0.063 C 
ATOM     12  C   UNL     1      36.538 -19.699 -20.621  0.00  0.00    +0.064 C 
ATOM     13  C   UNL     1      35.019 -19.286 -22.965  0.00  0.00    +0.096 C 
ATOM     14  C   UNL     1      36.064 -20.989 -18.838  0.00  0.00    +0.048 C 
ATOM     15  C   UNL     1      37.085 -20.302 -19.463  0.00  0.00    +0.020 C 
ATOM     16  C   UNL     1      37.130 -18.856 -21.643  0.00  0.00    +0.247 C 
ATOM     17  H   UNL     1      34.035 -21.195 -19.355  0.00  0.00    +0.152 HD
ATOM     18  H   UNL     1      36.557 -17.885 -23.355  0.00  0.00    +0.150 HD
ENDBRANCH   2  14
BRANCH   4  20
ATOM     19  N   UNL     1      32.783 -24.901 -13.578  0.00  0.00    -0.244 NA
ATOM     20  C   UNL     1      33.785 -23.579 -15.333  0.00  0.00    +0.037 C 
ATOM     21  C   UNL     1      32.530 -23.354 -15.878  0.00  0.00    +0.005 C 
ATOM     22  C   UNL     1      31.391 -23.903 -15.273  0.00  0.00    +0.018 C 
ATOM     23  C   UNL     1      31.565 -24.681 -14.109  0.00  0.00    +0.081 C 
ATOM     24  C   UNL     1      33.857 -24.354 -14.192  0.00  0.00    +0.100 C 
ATOM     25  C   UNL     1      30.104 -23.693 -15.800  0.00  0.00    +0.001 C 
ATOM     26  C   UNL     1      30.434 -25.226 -13.509  0.00  0.00    +0.019 C 
ATOM     27  C   UNL     1      28.990 -24.251 -15.179  0.00  0.00    +0.000 C 
ATOM     28  C   UNL     1      29.155 -25.018 -14.032  0.00  0.00    +0.002 C 
ENDBRANCH   4  20
TORSDOF 2
ENDMDL
MODEL 5
REMARK VINA RESULT:     -11.3      4.184      9.299
REMARK  Name = 10389239
REMARK  2 active torsions:
REMARK  status: ('A' for Active; 'I' for Inactive)
REMARK    1  A    between atoms: C_2  and  C_14
REMARK    2  A    between atoms: C_4  and  C_20
REMARK                            x       y       z     vdW  Elec       q    Type
REMARK                         _______ _______ _______ _____ _____    ______ ____
ROOT
ATOM      1  N   UNL     1      35.765 -22.380 -17.630  0.00  0.00    -0.244 NA
ATOM      2  C   UNL     1      35.351 -20.627 -19.767  0.00  0.00    +0.016 C 
ATOM      3  C   UNL     1      34.267 -21.124 -19.053  0.00  0.00    +0.020 C 
ATOM      4  C   UNL     1      34.525 -21.990 -18.002  0.00  0.00    +0.083 C 
ATOM      5  C   UNL     1      36.642 -21.006 -19.416  0.00  0.00    +0.022 C 
ATOM      6  C   UNL     1      36.794 -21.876 -18.348  0.00  0.00    +0.099 C 
ENDROOT
BRANCH   2  14
ATOM      7  O   UNL     1      33.766 -19.216 -24.958  0.00  0.00    -0.270 OA
ATOM      8  N   UNL     1      35.528 -18.405 -20.816  0.00  0.00    -0.316 N 
ATOM      9  N   UNL     1      34.219 -17.011 -24.434  0.00  0.00    -0.300 N 
ATOM     10  C   UNL     1      35.204 -17.801 -21.996  0.00  0.00    +0.031 C 
ATOM     11  C   UNL     1      35.477 -16.390 -22.359  0.00  0.00    +0.063 C 
ATOM     12  C   UNL     1      34.597 -18.728 -22.817  0.00  0.00    +0.064 C 
ATOM     13  C   UNL     1      34.455 -15.973 -23.423  0.00  0.00    +0.096 C 
ATOM     14  C   UNL     1      35.138 -19.722 -20.870  0.00  0.00    +0.048 C 
ATOM     15  C   UNL     1      34.563 -19.950 -22.104  0.00  0.00    +0.020 C 
ATOM     16  C   UNL     1      34.150 -18.375 -24.151  0.00  0.00    +0.247 C 
ATOM     17  H   UNL     1      35.967 -17.970 -20.050  0.00  0.00    +0.152 HD
ATOM     18  H   UNL     1      34.102 -16.726 -25.369  0.00  0.00    +0.150 HD
ENDBRANCH   2  14
BRANCH   4  20
ATOM     19  N   UNL     1      31.082 -22.911 -16.917  0.00  0.00    -0.244 NA
ATOM     20  C   UNL     1      33.450 -22.545 -17.215  0.00  0.00    +0.037 C 
ATOM     21  C   UNL     1      33.702 -23.229 -16.035  0.00  0.00    +0.005 C 
ATOM     22  C   UNL     1      32.641 -23.760 -15.288  0.00  0.00    +0.018 C 
ATOM     23  C   UNL     1      31.329 -23.574 -15.772  0.00  0.00    +0.081 C 
ATOM     24  C   UNL     1      32.133 -22.414 -17.608  0.00  0.00    +0.100 C 
ATOM     25  C   UNL     1      32.863 -24.458 -14.088  0.00  0.00    +0.001 C 
ATOM     26  C   UNL     1      30.276 -24.102 -15.030  0.00  0.00    +0.019 C 
ATOM     27  C   UNL     1      31.790 -24.975 -13.366  0.00  0.00    +0.000 C 
ATOM     28  C   UNL     1      30.496 -24.796 -13.837  0.00  0.00    +0.002 C 
ENDBRANCH   4  20
TORSDOF 2
ENDMDL
MODEL 6
REMARK VINA RESULT:     -11.1      8.983     14.332
REMARK  Name = 10389239
REMARK  2 active torsions:
REMARK  status: ('A' for Active; 'I' for Inactive)
REMARK    1  A    between atoms: C_2  and  C_14
REMARK    2  A    between atoms: C_4  and  C_20
REMARK                            x       y       z     vdW  Elec       q    Type
REMARK                         _______ _______ _______ _____ _____    ______ ____
ROOT
ATOM      1  N   UNL     1      33.641 -13.943 -25.666  0.00  0.00    -0.244 NA
ATOM      2  C   UNL     1      33.458 -11.459 -24.400  0.00  0.00    +0.016 C 
ATOM      3  C   UNL     1      33.813 -12.587 -23.671  0.00  0.00    +0.020 C 
ATOM      4  C   UNL     1      33.889 -13.796 -24.345  0.00  0.00    +0.083 C 
ATOM      5  C   UNL     1      33.193 -11.568 -25.760  0.00  0.00    +0.022 C 
ATOM      6  C   UNL     1      33.299 -12.823 -26.341  0.00  0.00    +0.099 C 
ENDROOT
BRANCH   2  14
ATOM      7  O   UNL     1      34.763  -6.069 -23.558  0.00  0.00    -0.270 OA
ATOM      8  N   UNL     1      32.573  -9.978 -22.640  0.00  0.00    -0.316 N 
ATOM      9  N   UNL     1      33.108  -5.981 -21.948  0.00  0.00    -0.300 N 
ATOM     10  C   UNL     1      32.686  -8.677 -22.243  0.00  0.00    +0.031 C 
ATOM     11  C   UNL     1      32.019  -8.059 -21.073  0.00  0.00    +0.063 C 
ATOM     12  C   UNL     1      33.548  -8.026 -23.100  0.00  0.00    +0.064 C 
ATOM     13  C   UNL     1      31.901  -6.555 -21.340  0.00  0.00    +0.096 C 
ATOM     14  C   UNL     1      33.363 -10.175 -23.747  0.00  0.00    +0.048 C 
ATOM     15  C   UNL     1      33.985  -8.980 -24.050  0.00  0.00    +0.020 C 
ATOM     16  C   UNL     1      33.874  -6.624 -22.919  0.00  0.00    +0.247 C 
ATOM     17  H   UNL     1      32.016 -10.664 -22.206  0.00  0.00    +0.152 HD
ATOM     18  H   UNL     1      33.393  -5.086 -21.652  0.00  0.00    +0.150 HD
ENDBRANCH   2  14
BRANCH   4  20
ATOM     19  N   UNL     1      35.045 -16.087 -21.644  0.00  0.00    -0.244 NA
ATOM     20  C   UNL     1      34.252 -15.010 -23.655  0.00  0.00    +0.037 C 
ATOM     21  C   UNL     1      34.173 -16.245 -24.282  0.00  0.00    +0.005 C 
ATOM     22  C   UNL     1      34.531 -17.411 -23.591  0.00  0.00    +0.018 C 
ATOM     23  C   UNL     1      34.968 -17.284 -22.255  0.00  0.00    +0.081 C 
ATOM     24  C   UNL     1      34.692 -14.986 -22.346  0.00  0.00    +0.100 C 
ATOM     25  C   UNL     1      34.462 -18.677 -24.198  0.00  0.00    +0.001 C 
ATOM     26  C   UNL     1      35.323 -18.442 -21.570  0.00  0.00    +0.019 C 
ATOM     27  C   UNL     1      34.824 -19.819 -23.488  0.00  0.00    +0.000 C 
ATOM     28  C   UNL     1      35.255 -19.701 -22.172  0.00  0.00    +0.002 C 
ENDBRANCH   4  20
TORSDOF 2
ENDMDL
MODEL 7
REMARK VINA RESULT:     -11.1     10.085     13.913
REMARK  Name = 10389239
REMARK  2 active torsions:
REMARK  status: ('A' for Active; 'I' for Inactive)
REMARK    1  A    between atoms: C_2  and  C_14
REMARK    2  A    between atoms: C_4  and  C_20
REMARK                            x       y       z     vdW  Elec       q    Type
REMARK                         _______ _______ _______ _____ _____    ______ ____
ROOT
ATOM      1  N   UNL     1      31.530  -9.548 -20.954  0.00  0.00    -0.244 NA
ATOM      2  C   UNL     1      32.654 -11.968 -21.782  0.00  0.00    +0.016 C 
ATOM      3  C   UNL     1      32.787 -10.832 -22.571  0.00  0.00    +0.020 C 
ATOM      4  C   UNL     1      32.211  -9.657 -22.117  0.00  0.00    +0.083 C 
ATOM      5  C   UNL     1      31.959 -11.898 -20.579  0.00  0.00    +0.022 C 
ATOM      6  C   UNL     1      31.421 -10.674 -20.214  0.00  0.00    +0.099 C 
ENDROOT
BRANCH   2  14
ATOM      7  O   UNL     1      33.882 -16.015 -25.466  0.00  0.00    -0.270 OA
ATOM      8  N   UNL     1      33.852 -14.072 -21.325  0.00  0.00    -0.316 N 
ATOM      9  N   UNL     1      35.132 -17.051 -23.821  0.00  0.00    -0.300 N 
ATOM     10  C   UNL     1      34.297 -15.167 -22.008  0.00  0.00    +0.031 C 
ATOM     11  C   UNL     1      34.993 -16.338 -21.424  0.00  0.00    +0.063 C 
ATOM     12  C   UNL     1      33.971 -15.021 -23.340  0.00  0.00    +0.064 C 
ATOM     13  C   UNL     1      35.831 -16.985 -22.532  0.00  0.00    +0.096 C 
ATOM     14  C   UNL     1      33.234 -13.220 -22.208  0.00  0.00    +0.048 C 
ATOM     15  C   UNL     1      33.288 -13.787 -23.465  0.00  0.00    +0.020 C 
ATOM     16  C   UNL     1      34.308 -16.041 -24.315  0.00  0.00    +0.247 C 
ATOM     17  H   UNL     1      33.958 -13.917 -20.359  0.00  0.00    +0.152 HD
ATOM     18  H   UNL     1      35.253 -17.859 -24.371  0.00  0.00    +0.150 HD
ENDBRANCH   2  14
BRANCH   4  20
ATOM     19  N   UNL     1      31.203  -6.591 -23.978  0.00  0.00    -0.244 NA
ATOM     20  C   UNL     1      32.308  -8.437 -22.882  0.00  0.00    +0.037 C 
ATOM     21  C   UNL     1      33.539  -7.925 -23.266  0.00  0.00    +0.005 C 
ATOM     22  C   UNL     1      33.608  -6.739 -24.009  0.00  0.00    +0.018 C 
ATOM     23  C   UNL     1      32.399  -6.096 -24.349  0.00  0.00    +0.081 C 
ATOM     24  C   UNL     1      31.180  -7.738 -23.262  0.00  0.00    +0.100 C 
ATOM     25  C   UNL     1      34.839  -6.193 -24.412  0.00  0.00    +0.001 C 
ATOM     26  C   UNL     1      32.468  -4.918 -25.087  0.00  0.00    +0.019 C 
ATOM     27  C   UNL     1      34.879  -5.013 -25.150  0.00  0.00    +0.000 C 
ATOM     28  C   UNL     1      33.692  -4.375 -25.488  0.00  0.00    +0.002 C 
ENDBRANCH   4  20
TORSDOF 2
ENDMDL
MODEL 8
REMARK VINA RESULT:     -11.0      9.430     14.591
REMARK  Name = 10389239
REMARK  2 active torsions:
REMARK  status: ('A' for Active; 'I' for Inactive)
REMARK    1  A    between atoms: C_2  and  C_14
REMARK    2  A    between atoms: C_4  and  C_20
REMARK                            x       y       z     vdW  Elec       q    Type
REMARK                         _______ _______ _______ _____ _____    ______ ____
ROOT
ATOM      1  N   UNL     1      33.844 -12.889 -24.813  0.00  0.00    -0.244 NA
ATOM      2  C   UNL     1      33.103 -10.529 -23.512  0.00  0.00    +0.016 C 
ATOM      3  C   UNL     1      33.467 -11.648 -22.772  0.00  0.00    +0.020 C 
ATOM      4  C   UNL     1      33.826 -12.793 -23.464  0.00  0.00    +0.083 C 
ATOM      5  C   UNL     1      33.108 -10.587 -24.901  0.00  0.00    +0.022 C 
ATOM      6  C   UNL     1      33.484 -11.780 -25.498  0.00  0.00    +0.099 C 
ENDROOT
BRANCH   2  14
ATOM      7  O   UNL     1      32.208  -7.233 -19.063  0.00  0.00    -0.270 OA
ATOM      8  N   UNL     1      32.217  -8.230 -23.527  0.00  0.00    -0.316 N 
ATOM      9  N   UNL     1      31.723  -5.503 -20.516  0.00  0.00    -0.300 N 
ATOM     10  C   UNL     1      31.943  -7.232 -22.637  0.00  0.00    +0.031 C 
ATOM     11  C   UNL     1      31.361  -5.908 -22.961  0.00  0.00    +0.063 C 
ATOM     12  C   UNL     1      32.276  -7.664 -21.371  0.00  0.00    +0.064 C 
ATOM     13  C   UNL     1      31.789  -4.926 -21.865  0.00  0.00    +0.096 C 
ATOM     14  C   UNL     1      32.720  -9.309 -22.842  0.00  0.00    +0.048 C 
ATOM     15  C   UNL     1      32.761  -8.987 -21.500  0.00  0.00    +0.020 C 
ATOM     16  C   UNL     1      32.082  -6.815 -20.210  0.00  0.00    +0.247 C 
ATOM     17  H   UNL     1      32.078  -8.185 -24.500  0.00  0.00    +0.152 HD
ATOM     18  H   UNL     1      31.406  -4.927 -19.783  0.00  0.00    +0.150 HD
ENDBRANCH   2  14
BRANCH   4  20
ATOM     19  N   UNL     1      34.675 -15.109 -20.672  0.00  0.00    -0.244 NA
ATOM     20  C   UNL     1      34.215 -13.994 -22.763  0.00  0.00    +0.037 C 
ATOM     21  C   UNL     1      34.504 -15.165 -23.448  0.00  0.00    +0.005 C 
ATOM     22  C   UNL     1      34.880 -16.318 -22.746  0.00  0.00    +0.018 C 
ATOM     23  C   UNL     1      34.955 -16.244 -21.339  0.00  0.00    +0.081 C 
ATOM     24  C   UNL     1      34.316 -14.018 -21.386  0.00  0.00    +0.100 C 
ATOM     25  C   UNL     1      35.178 -17.520 -23.410  0.00  0.00    +0.001 C 
ATOM     26  C   UNL     1      35.328 -17.389 -20.642  0.00  0.00    +0.019 C 
ATOM     27  C   UNL     1      35.550 -18.651 -22.687  0.00  0.00    +0.000 C 
ATOM     28  C   UNL     1      35.625 -18.585 -21.302  0.00  0.00    +0.002 C 
ENDBRANCH   4  20
TORSDOF 2
ENDMDL
MODEL 9
REMARK VINA RESULT:     -11.0      9.801     13.755
REMARK  Name = 10389239
REMARK  2 active torsions:
REMARK  status: ('A' for Active; 'I' for Inactive)
REMARK    1  A    between atoms: C_2  and  C_14
REMARK    2  A    between atoms: C_4  and  C_20
REMARK                            x       y       z     vdW  Elec       q    Type
REMARK                         _______ _______ _______ _____ _____    ______ ____
ROOT
ATOM      1  N   UNL     1      31.401  -9.674 -21.034  0.00  0.00    -0.244 NA
ATOM      2  C   UNL     1      32.637 -12.058 -21.806  0.00  0.00    +0.016 C 
ATOM      3  C   UNL     1      32.786 -10.913 -22.580  0.00  0.00    +0.020 C 
ATOM      4  C   UNL     1      32.153  -9.757 -22.154  0.00  0.00    +0.083 C 
ATOM      5  C   UNL     1      31.870 -12.014 -20.647  0.00  0.00    +0.022 C 
ATOM      6  C   UNL     1      31.279 -10.807 -20.307  0.00  0.00    +0.099 C 
ENDROOT
BRANCH   2  14
ATOM      7  O   UNL     1      35.641 -16.724 -20.996  0.00  0.00    -0.270 OA
ATOM      8  N   UNL     1      33.301 -13.706 -23.512  0.00  0.00    -0.316 N 
ATOM      9  N   UNL     1      35.222 -17.305 -23.193  0.00  0.00    -0.300 N 
ATOM     10  C   UNL     1      33.971 -14.893 -23.585  0.00  0.00    +0.031 C 
ATOM     11  C   UNL     1      34.247 -15.667 -24.818  0.00  0.00    +0.063 C 
ATOM     12  C   UNL     1      34.375 -15.251 -22.316  0.00  0.00    +0.064 C 
ATOM     13  C   UNL     1      34.432 -17.135 -24.419  0.00  0.00    +0.096 C 
ATOM     14  C   UNL     1      33.275 -13.290 -22.204  0.00  0.00    +0.048 C 
ATOM     15  C   UNL     1      33.940 -14.229 -21.440  0.00  0.00    +0.020 C 
ATOM     16  C   UNL     1      35.125 -16.471 -22.081  0.00  0.00    +0.247 C 
ATOM     17  H   UNL     1      32.901 -13.226 -24.273  0.00  0.00    +0.152 HD
ATOM     18  H   UNL     1      35.859 -18.054 -23.155  0.00  0.00    +0.150 HD
ENDBRANCH   2  14
BRANCH   4  20
ATOM     19  N   UNL     1      31.175  -6.673 -24.003  0.00  0.00    -0.244 NA
ATOM     20  C   UNL     1      32.262  -8.529 -22.906  0.00  0.00    +0.037 C 
ATOM     21  C   UNL     1      33.499  -8.013 -23.263  0.00  0.00    +0.005 C 
ATOM     22  C   UNL     1      33.580  -6.819 -23.994  0.00  0.00    +0.018 C 
ATOM     23  C   UNL     1      32.377  -6.174 -24.348  0.00  0.00    +0.081 C 
ATOM     24  C   UNL     1      31.140  -7.827 -23.299  0.00  0.00    +0.100 C 
ATOM     25  C   UNL     1      34.818  -6.269 -24.370  0.00  0.00    +0.001 C 
ATOM     26  C   UNL     1      32.458  -4.989 -25.073  0.00  0.00    +0.019 C 
ATOM     27  C   UNL     1      34.869  -5.082 -25.096  0.00  0.00    +0.000 C 
ATOM     28  C   UNL     1      33.688  -4.441 -25.448  0.00  0.00    +0.002 C 
ENDBRANCH   4  20
TORSDOF 2
ENDMDL
