MODEL 1
REMARK VINA RESULT:     -11.5      0.000      0.000
REMARK  Name = 11740318
REMARK  5 active torsions:
REMARK  status: ('A' for Active; 'I' for Inactive)
REMARK    1  A    between atoms: N_1  and  C_20
REMARK    2  A    between atoms: C_2  and  O_8
REMARK    3  A    between atoms: O_8  and  C_9
REMARK    4  A    between atoms: C_14  and  N_15
REMARK    5  A    between atoms: C_20  and  C_23
REMARK                            x       y       z     vdW  Elec       q    Type
REMARK                         _______ _______ _______ _____ _____    ______ ____
ROOT
ATOM      1  N   UNL     1      33.498 -23.466 -13.892  0.00  0.00    +0.392 N 
ATOM      2  C   UNL     1      32.927 -22.946 -16.245  0.00  0.00    +0.145 C 
ATOM      3  C   UNL     1      33.778 -23.796 -15.296  0.00  0.00    -0.032 C 
ATOM      4  C   UNL     1      31.440 -23.094 -15.933  0.00  0.00    +0.039 C 
ATOM      5  C   UNL     1      31.175 -22.826 -14.458  0.00  0.00    -0.019 C 
ATOM      6  C   UNL     1      32.081 -23.680 -13.568  0.00  0.00    -0.077 C 
ATOM      7  H   UNL     1      33.706 -22.477 -13.755  0.00  0.00    -0.079 HD
ENDROOT
BRANCH   2   8
ATOM      8  O   UNL     1      33.150 -23.357 -17.589  0.00  0.00    -0.481 OA
BRANCH   8   9
ATOM      9  C   UNL     1      33.583 -22.396 -18.463  0.00  0.00    +0.138 C 
ATOM     10  C   UNL     1      34.947 -22.207 -18.660  0.00  0.00    +0.038 C 
ATOM     11  C   UNL     1      32.655 -21.617 -19.146  0.00  0.00    +0.038 C 
ATOM     12  C   UNL     1      35.388 -21.227 -19.550  0.00  0.00    +0.018 C 
ATOM     13  C   UNL     1      33.095 -20.638 -20.036  0.00  0.00    +0.018 C 
ATOM     14  C   UNL     1      34.462 -20.443 -20.238  0.00  0.00    +0.057 C 
BRANCH  14  15
ATOM     15  N   UNL     1      34.899 -19.473 -21.122  0.00  0.00    -0.246 N 
ATOM     16  N   UNL     1      35.144 -18.335 -23.023  0.00  0.00    -0.224 NA
ATOM     17  C   UNL     1      35.739 -18.426 -20.838  0.00  0.00    +0.092 C 
ATOM     18  C   UNL     1      34.571 -19.370 -22.451  0.00  0.00    +0.172 C 
ATOM     19  C   UNL     1      35.874 -17.743 -22.023  0.00  0.00    +0.117 C 
ENDBRANCH  14  15
ENDBRANCH   8   9
ENDBRANCH   2   8
BRANCH   1  20
ATOM     20  C   UNL     1      34.352 -24.252 -13.002  0.00  0.00    -0.050 C 
BRANCH  20  23
ATOM     21  O   UNL     1      38.636 -26.574 -13.797  0.00  0.00    -0.435 OA
ATOM     22  O   UNL     1      39.634 -24.630 -14.813  0.00  0.00    -0.435 OA
ATOM     23  C   UNL     1      35.771 -24.319 -13.500  0.00  0.00    -0.040 C 
ATOM     24  C   UNL     1      36.484 -25.505 -13.367  0.00  0.00    +0.034 C 
ATOM     25  C   UNL     1      36.341 -23.184 -14.089  0.00  0.00    -0.003 C 
ATOM     26  C   UNL     1      37.780 -25.516 -13.839  0.00  0.00    +0.176 C 
ATOM     27  C   UNL     1      37.656 -23.223 -14.559  0.00  0.00    +0.040 C 
ATOM     28  C   UNL     1      38.351 -24.406 -14.418  0.00  0.00    +0.176 C 
ATOM     29  C   UNL     1      39.808 -26.006 -14.417  0.00  0.00    +0.429 C 
ENDBRANCH  20  23
ENDBRANCH   1  20
TORSDOF 5
ENDMDL
MODEL 2
REMARK VINA RESULT:     -11.4      0.861      1.190
REMARK  Name = 11740318
REMARK  5 active torsions:
REMARK  status: ('A' for Active; 'I' for Inactive)
REMARK    1  A    between atoms: N_1  and  C_20
REMARK    2  A    between atoms: C_2  and  O_8
REMARK    3  A    between atoms: O_8  and  C_9
REMARK    4  A    between atoms: C_14  and  N_15
REMARK    5  A    between atoms: C_20  and  C_23
REMARK                            x       y       z     vdW  Elec       q    Type
REMARK                         _______ _______ _______ _____ _____    ______ ____
ROOT
ATOM      1  N   UNL     1      33.837 -23.385 -13.876  0.00  0.00    +0.392 N 
ATOM      2  C   UNL     1      33.652 -22.960 -16.308  0.00  0.00    +0.145 C 
ATOM      3  C   UNL     1      34.426 -23.667 -15.191  0.00  0.00    -0.032 C 
ATOM      4  C   UNL     1      32.174 -23.337 -16.277  0.00  0.00    +0.039 C 
ATOM      5  C   UNL     1      31.595 -23.113 -14.887  0.00  0.00    -0.019 C 
ATOM      6  C   UNL     1      32.434 -23.816 -13.818  0.00  0.00    -0.077 C 
ATOM      7  H   UNL     1      33.862 -22.376 -13.731  0.00  0.00    -0.079 HD
ENDROOT
BRANCH   2   8
ATOM      8  O   UNL     1      34.188 -23.331 -17.574  0.00  0.00    -0.481 OA
BRANCH   8   9
ATOM      9  C   UNL     1      34.390 -22.322 -18.476  0.00  0.00    +0.138 C 
ATOM     10  C   UNL     1      35.685 -21.908 -18.769  0.00  0.00    +0.038 C 
ATOM     11  C   UNL     1      33.299 -21.719 -19.093  0.00  0.00    +0.038 C 
ATOM     12  C   UNL     1      35.892 -20.879 -19.689  0.00  0.00    +0.018 C 
ATOM     13  C   UNL     1      33.505 -20.691 -20.013  0.00  0.00    +0.018 C 
ATOM     14  C   UNL     1      34.801 -20.272 -20.311  0.00  0.00    +0.057 C 
BRANCH  14  15
ATOM     15  N   UNL     1      35.005 -19.253 -21.224  0.00  0.00    -0.246 N 
ATOM     16  N   UNL     1      34.988 -18.145 -23.158  0.00  0.00    -0.224 NA
ATOM     17  C   UNL     1      35.582 -18.034 -20.974  0.00  0.00    +0.092 C 
ATOM     18  C   UNL     1      34.666 -19.266 -22.554  0.00  0.00    +0.172 C 
ATOM     19  C   UNL     1      35.559 -17.372 -22.178  0.00  0.00    +0.117 C 
ENDBRANCH  14  15
ENDBRANCH   8   9
ENDBRANCH   2   8
BRANCH   1  20
ATOM     20  C   UNL     1      34.615 -24.029 -12.818  0.00  0.00    -0.050 C 
BRANCH  20  23
ATOM     21  O   UNL     1      39.484 -24.743 -13.234  0.00  0.00    -0.435 OA
ATOM     22  O   UNL     1      39.200 -26.573 -14.776  0.00  0.00    -0.435 OA
ATOM     23  C   UNL     1      35.827 -24.736 -13.365  0.00  0.00    -0.040 C 
ATOM     24  C   UNL     1      37.094 -24.321 -12.968  0.00  0.00    +0.034 C 
ATOM     25  C   UNL     1      35.652 -25.798 -14.260  0.00  0.00    -0.003 C 
ATOM     26  C   UNL     1      38.173 -25.000 -13.495  0.00  0.00    +0.176 C 
ATOM     27  C   UNL     1      36.761 -26.469 -14.779  0.00  0.00    +0.040 C 
ATOM     28  C   UNL     1      38.011 -26.045 -14.377  0.00  0.00    +0.176 C 
ATOM     29  C   UNL     1      40.128 -25.745 -14.047  0.00  0.00    +0.429 C 
ENDBRANCH  20  23
ENDBRANCH   1  20
TORSDOF 5
ENDMDL
MODEL 3
REMARK VINA RESULT:     -11.2      4.883      8.778
REMARK  Name = 11740318
REMARK  5 active torsions:
REMARK  status: ('A' for Active; 'I' for Inactive)
REMARK    1  A    between atoms: N_1  and  C_20
REMARK    2  A    between atoms: C_2  and  O_8
REMARK    3  A    between atoms: O_8  and  C_9
REMARK    4  A    between atoms: C_14  and  N_15
REMARK    5  A    between atoms: C_20  and  C_23
REMARK                            x       y       z     vdW  Elec       q    Type
REMARK                         _______ _______ _______ _____ _____    ______ ____
ROOT
ATOM      1  N   UNL     1      34.945 -19.065 -21.925  0.00  0.00    +0.392 N 
ATOM      2  C   UNL     1      34.708 -16.873 -23.053  0.00  0.00    +0.145 C 
ATOM      3  C   UNL     1      35.513 -17.718 -22.060  0.00  0.00    -0.032 C 
ATOM      4  C   UNL     1      34.610 -17.565 -24.410  0.00  0.00    +0.039 C 
ATOM      5  C   UNL     1      34.093 -18.988 -24.248  0.00  0.00    -0.019 C 
ATOM      6  C   UNL     1      34.918 -19.763 -23.218  0.00  0.00    -0.077 C 
ATOM      7  H   UNL     1      33.983 -18.968 -21.600  0.00  0.00    -0.079 HD
ENDROOT
BRANCH   2   8
ATOM      8  O   UNL     1      35.339 -15.611 -23.233  0.00  0.00    -0.481 OA
BRANCH   8   9
ATOM      9  C   UNL     1      34.578 -14.500 -22.984  0.00  0.00    +0.138 C 
ATOM     10  C   UNL     1      34.098 -14.268 -21.700  0.00  0.00    +0.038 C 
ATOM     11  C   UNL     1      34.291 -13.615 -24.018  0.00  0.00    +0.038 C 
ATOM     12  C   UNL     1      33.321 -13.136 -21.446  0.00  0.00    +0.018 C 
ATOM     13  C   UNL     1      33.516 -12.484 -23.764  0.00  0.00    +0.018 C 
ATOM     14  C   UNL     1      33.031 -12.244 -22.478  0.00  0.00    +0.057 C 
BRANCH  14  15
ATOM     15  N   UNL     1      32.262 -11.122 -22.227  0.00  0.00    -0.246 N 
ATOM     16  N   UNL     1      30.712  -9.815 -21.302  0.00  0.00    -0.224 NA
ATOM     17  C   UNL     1      32.366  -9.904 -22.849  0.00  0.00    +0.092 C 
ATOM     18  C   UNL     1      31.252 -11.013 -21.305  0.00  0.00    +0.172 C 
ATOM     19  C   UNL     1      31.403  -9.119 -22.262  0.00  0.00    +0.117 C 
ENDBRANCH  14  15
ENDBRANCH   8   9
ENDBRANCH   2   8
BRANCH   1  20
ATOM     20  C   UNL     1      35.697 -19.841 -20.939  0.00  0.00    -0.050 C 
BRANCH  20  23
ATOM     21  O   UNL     1      34.813 -23.072 -17.312  0.00  0.00    -0.435 OA
ATOM     22  O   UNL     1      32.426 -22.803 -17.497  0.00  0.00    -0.435 OA
ATOM     23  C   UNL     1      34.787 -20.623 -20.029  0.00  0.00    -0.040 C 
ATOM     24  C   UNL     1      35.341 -21.488 -19.093  0.00  0.00    +0.034 C 
ATOM     25  C   UNL     1      33.401 -20.459 -20.145  0.00  0.00    -0.003 C 
ATOM     26  C   UNL     1      34.467 -22.181 -18.281  0.00  0.00    +0.176 C 
ATOM     27  C   UNL     1      32.539 -21.173 -19.311  0.00  0.00    +0.040 C 
ATOM     28  C   UNL     1      33.104 -22.029 -18.388  0.00  0.00    +0.176 C 
ATOM     29  C   UNL     1      33.515 -23.460 -16.818  0.00  0.00    +0.429 C 
ENDBRANCH  20  23
ENDBRANCH   1  20
TORSDOF 5
ENDMDL
MODEL 4
REMARK VINA RESULT:     -10.8      3.884     10.454
REMARK  Name = 11740318
REMARK  5 active torsions:
REMARK  status: ('A' for Active; 'I' for Inactive)
REMARK    1  A    between atoms: N_1  and  C_20
REMARK    2  A    between atoms: C_2  and  O_8
REMARK    3  A    between atoms: O_8  and  C_9
REMARK    4  A    between atoms: C_14  and  N_15
REMARK    5  A    between atoms: C_20  and  C_23
REMARK                            x       y       z     vdW  Elec       q    Type
REMARK                         _______ _______ _______ _____ _____    ______ ____
ROOT
ATOM      1  N   UNL     1      35.409 -18.792 -21.742  0.00  0.00    +0.392 N 
ATOM      2  C   UNL     1      35.429 -20.556 -20.005  0.00  0.00    +0.145 C 
ATOM      3  C   UNL     1      35.065 -20.189 -21.447  0.00  0.00    -0.032 C 
ATOM      4  C   UNL     1      36.904 -20.283 -19.723  0.00  0.00    +0.039 C 
ATOM      5  C   UNL     1      37.265 -18.854 -20.106  0.00  0.00    -0.019 C 
ATOM      6  C   UNL     1      36.843 -18.543 -21.544  0.00  0.00    -0.077 C 
ATOM      7  H   UNL     1      34.894 -18.199 -21.091  0.00  0.00    -0.079 HD
ENDROOT
BRANCH   2   8
ATOM      8  O   UNL     1      35.174 -21.938 -19.782  0.00  0.00    -0.481 OA
BRANCH   8   9
ATOM      9  C   UNL     1      34.653 -22.280 -18.563  0.00  0.00    +0.138 C 
ATOM     10  C   UNL     1      35.502 -22.465 -17.477  0.00  0.00    +0.038 C 
ATOM     11  C   UNL     1      33.278 -22.437 -18.420  0.00  0.00    +0.038 C 
ATOM     12  C   UNL     1      34.971 -22.813 -16.234  0.00  0.00    +0.018 C 
ATOM     13  C   UNL     1      32.747 -22.784 -17.178  0.00  0.00    +0.018 C 
ATOM     14  C   UNL     1      33.594 -22.972 -16.085  0.00  0.00    +0.057 C 
BRANCH  14  15
ATOM     15  N   UNL     1      33.066 -23.315 -14.854  0.00  0.00    -0.246 N 
ATOM     16  N   UNL     1      32.953 -24.136 -12.784  0.00  0.00    -0.224 NA
ATOM     17  C   UNL     1      31.787 -23.083 -14.418  0.00  0.00    +0.092 C 
ATOM     18  C   UNL     1      33.725 -23.951 -13.831  0.00  0.00    +0.172 C 
ATOM     19  C   UNL     1      31.743 -23.597 -13.144  0.00  0.00    +0.117 C 
ENDBRANCH  14  15
ENDBRANCH   8   9
ENDBRANCH   2   8
BRANCH   1  20
ATOM     20  C   UNL     1      35.012 -18.445 -23.106  0.00  0.00    -0.050 C 
BRANCH  20  23
ATOM     21  O   UNL     1      33.457 -14.492 -25.625  0.00  0.00    -0.435 OA
ATOM     22  O   UNL     1      33.732 -13.032 -23.728  0.00  0.00    -0.435 OA
ATOM     23  C   UNL     1      34.677 -16.983 -23.238  0.00  0.00    -0.040 C 
ATOM     24  C   UNL     1      34.212 -16.499 -24.456  0.00  0.00    +0.034 C 
ATOM     25  C   UNL     1      34.840 -16.143 -22.130  0.00  0.00    -0.003 C 
ATOM     26  C   UNL     1      33.918 -15.152 -24.527  0.00  0.00    +0.176 C 
ATOM     27  C   UNL     1      34.535 -14.784 -22.229  0.00  0.00    +0.040 C 
ATOM     28  C   UNL     1      34.076 -14.318 -23.444  0.00  0.00    +0.176 C 
ATOM     29  C   UNL     1      33.340 -13.150 -25.110  0.00  0.00    +0.429 C 
ENDBRANCH  20  23
ENDBRANCH   1  20
TORSDOF 5
ENDMDL
MODEL 5
REMARK VINA RESULT:     -10.7      3.506      7.138
REMARK  Name = 11740318
REMARK  5 active torsions:
REMARK  status: ('A' for Active; 'I' for Inactive)
REMARK    1  A    between atoms: N_1  and  C_20
REMARK    2  A    between atoms: C_2  and  O_8
REMARK    3  A    between atoms: O_8  and  C_9
REMARK    4  A    between atoms: C_14  and  N_15
REMARK    5  A    between atoms: C_20  and  C_23
REMARK                            x       y       z     vdW  Elec       q    Type
REMARK                         _______ _______ _______ _____ _____    ______ ____
ROOT
ATOM      1  N   UNL     1      35.954 -23.193 -14.208  0.00  0.00    +0.392 N 
ATOM      2  C   UNL     1      34.146 -23.908 -12.674  0.00  0.00    +0.145 C 
ATOM      3  C   UNL     1      34.714 -23.972 -14.095  0.00  0.00    -0.032 C 
ATOM      4  C   UNL     1      35.178 -24.368 -11.648  0.00  0.00    +0.039 C 
ATOM      5  C   UNL     1      36.484 -23.607 -11.826  0.00  0.00    -0.019 C 
ATOM      6  C   UNL     1      36.976 -23.682 -13.273  0.00  0.00    -0.077 C 
ATOM      7  H   UNL     1      35.740 -22.226 -13.961  0.00  0.00    -0.079 HD
ENDROOT
BRANCH   2   8
ATOM      8  O   UNL     1      33.002 -24.749 -12.575  0.00  0.00    -0.481 OA
BRANCH   8   9
ATOM      9  C   UNL     1      31.909 -24.392 -13.318  0.00  0.00    +0.138 C 
ATOM     10  C   UNL     1      31.633 -23.046 -13.535  0.00  0.00    +0.038 C 
ATOM     11  C   UNL     1      31.086 -25.378 -13.850  0.00  0.00    +0.038 C 
ATOM     12  C   UNL     1      30.518 -22.683 -14.292  0.00  0.00    +0.018 C 
ATOM     13  C   UNL     1      29.972 -25.015 -14.607  0.00  0.00    +0.018 C 
ATOM     14  C   UNL     1      29.689 -23.667 -14.828  0.00  0.00    +0.057 C 
BRANCH  14  15
ATOM     15  N   UNL     1      28.585 -23.307 -15.580  0.00  0.00    -0.246 N 
ATOM     16  N   UNL     1      27.140 -23.249 -17.277  0.00  0.00    -0.224 NA
ATOM     17  C   UNL     1      27.611 -22.410 -15.225  0.00  0.00    +0.092 C 
ATOM     18  C   UNL     1      28.253 -23.783 -16.824  0.00  0.00    +0.172 C 
ATOM     19  C   UNL     1      26.735 -22.392 -16.284  0.00  0.00    +0.117 C 
ENDBRANCH  14  15
ENDBRANCH   8   9
ENDBRANCH   2   8
BRANCH   1  20
ATOM     20  C   UNL     1      36.456 -23.226 -15.581  0.00  0.00    -0.050 C 
BRANCH  20  23
ATOM     21  O   UNL     1      34.959 -20.836 -19.634  0.00  0.00    -0.435 OA
ATOM     22  O   UNL     1      32.669 -21.523 -19.333  0.00  0.00    -0.435 OA
ATOM     23  C   UNL     1      35.411 -22.786 -16.571  0.00  0.00    -0.040 C 
ATOM     24  C   UNL     1      35.786 -21.989 -17.648  0.00  0.00    +0.034 C 
ATOM     25  C   UNL     1      34.083 -23.190 -16.387  0.00  0.00    -0.003 C 
ATOM     26  C   UNL     1      34.793 -21.612 -18.528  0.00  0.00    +0.176 C 
ATOM     27  C   UNL     1      33.098 -22.795 -17.294  0.00  0.00    +0.040 C 
ATOM     28  C   UNL     1      33.485 -22.004 -18.356  0.00  0.00    +0.176 C 
ATOM     29  C   UNL     1      33.609 -20.785 -20.140  0.00  0.00    +0.429 C 
ENDBRANCH  20  23
ENDBRANCH   1  20
TORSDOF 5
ENDMDL
MODEL 6
REMARK VINA RESULT:     -10.4      3.285      9.821
REMARK  Name = 11740318
REMARK  5 active torsions:
REMARK  status: ('A' for Active; 'I' for Inactive)
REMARK    1  A    between atoms: N_1  and  C_20
REMARK    2  A    between atoms: C_2  and  O_8
REMARK    3  A    between atoms: O_8  and  C_9
REMARK    4  A    between atoms: C_14  and  N_15
REMARK    5  A    between atoms: C_20  and  C_23
REMARK                            x       y       z     vdW  Elec       q    Type
REMARK                         _______ _______ _______ _____ _____    ______ ____
ROOT
ATOM      1  N   UNL     1      35.318 -20.207 -20.779  0.00  0.00    +0.392 N 
ATOM      2  C   UNL     1      35.054 -21.991 -19.082  0.00  0.00    +0.145 C 
ATOM      3  C   UNL     1      35.909 -20.823 -19.584  0.00  0.00    -0.032 C 
ATOM      4  C   UNL     1      33.618 -21.548 -18.817  0.00  0.00    +0.039 C 
ATOM      5  C   UNL     1      33.044 -20.842 -20.037  0.00  0.00    -0.019 C 
ATOM      6  C   UNL     1      33.962 -19.712 -20.506  0.00  0.00    -0.077 C 
ATOM      7  H   UNL     1      35.251 -20.925 -21.500  0.00  0.00    -0.079 HD
ENDROOT
BRANCH   2   8
ATOM      8  O   UNL     1      35.601 -22.502 -17.871  0.00  0.00    -0.481 OA
BRANCH   8   9
ATOM      9  C   UNL     1      34.709 -22.874 -16.901  0.00  0.00    +0.138 C 
ATOM     10  C   UNL     1      33.416 -23.239 -17.258  0.00  0.00    +0.038 C 
ATOM     11  C   UNL     1      35.105 -22.885 -15.568  0.00  0.00    +0.038 C 
ATOM     12  C   UNL     1      32.507 -23.619 -16.269  0.00  0.00    +0.018 C 
ATOM     13  C   UNL     1      34.197 -23.264 -14.580  0.00  0.00    +0.018 C 
ATOM     14  C   UNL     1      32.898 -23.631 -14.931  0.00  0.00    +0.057 C 
BRANCH  14  15
ATOM     15  N   UNL     1      31.998 -24.008 -13.951  0.00  0.00    -0.246 N 
ATOM     16  N   UNL     1      30.831 -23.955 -12.052  0.00  0.00    -0.224 NA
ATOM     17  C   UNL     1      31.184 -25.112 -13.969  0.00  0.00    +0.092 C 
ATOM     18  C   UNL     1      31.745 -23.347 -12.775  0.00  0.00    +0.172 C 
ATOM     19  C   UNL     1      30.477 -25.056 -12.791  0.00  0.00    +0.117 C 
ENDBRANCH  14  15
ENDBRANCH   8   9
ENDBRANCH   2   8
BRANCH   1  20
ATOM     20  C   UNL     1      36.170 -19.126 -21.271  0.00  0.00    -0.050 C 
BRANCH  20  23
ATOM     21  O   UNL     1      34.641 -14.873 -23.260  0.00  0.00    -0.435 OA
ATOM     22  O   UNL     1      33.647 -15.982 -25.154  0.00  0.00    -0.435 OA
ATOM     23  C   UNL     1      35.483 -18.311 -22.335  0.00  0.00    -0.040 C 
ATOM     24  C   UNL     1      35.435 -16.927 -22.207  0.00  0.00    +0.034 C 
ATOM     25  C   UNL     1      34.908 -18.965 -23.431  0.00  0.00    -0.003 C 
ATOM     26  C   UNL     1      34.795 -16.224 -23.206  0.00  0.00    +0.176 C 
ATOM     27  C   UNL     1      34.267 -18.230 -24.430  0.00  0.00    +0.040 C 
ATOM     28  C   UNL     1      34.226 -16.858 -24.288  0.00  0.00    +0.176 C 
ATOM     29  C   UNL     1      33.914 -14.727 -24.497  0.00  0.00    +0.429 C 
ENDBRANCH  20  23
ENDBRANCH   1  20
TORSDOF 5
ENDMDL
MODEL 7
REMARK VINA RESULT:     -10.3      3.217      5.480
REMARK  Name = 11740318
REMARK  5 active torsions:
REMARK  status: ('A' for Active; 'I' for Inactive)
REMARK    1  A    between atoms: N_1  and  C_20
REMARK    2  A    between atoms: C_2  and  O_8
REMARK    3  A    between atoms: O_8  and  C_9
REMARK    4  A    between atoms: C_14  and  N_15
REMARK    5  A    between atoms: C_20  and  C_23
REMARK                            x       y       z     vdW  Elec       q    Type
REMARK                         _______ _______ _______ _____ _____    ______ ____
ROOT
ATOM      1  N   UNL     1      35.805 -21.077 -18.729  0.00  0.00    +0.392 N 
ATOM      2  C   UNL     1      35.285 -19.588 -20.637  0.00  0.00    +0.145 C 
ATOM      3  C   UNL     1      36.311 -20.525 -19.992  0.00  0.00    -0.032 C 
ATOM      4  C   UNL     1      33.948 -20.293 -20.844  0.00  0.00    +0.039 C 
ATOM      5  C   UNL     1      33.473 -20.928 -19.543  0.00  0.00    -0.019 C 
ATOM      6  C   UNL     1      34.556 -21.822 -18.935  0.00  0.00    -0.077 C 
ATOM      7  H   UNL     1      35.606 -20.296 -18.103  0.00  0.00    -0.079 HD
ENDROOT
BRANCH   2   8
ATOM      8  O   UNL     1      35.765 -19.149 -21.903  0.00  0.00    -0.481 OA
BRANCH   8   9
ATOM      9  C   UNL     1      35.335 -17.921 -22.333  0.00  0.00    +0.138 C 
ATOM     10  C   UNL     1      34.947 -17.752 -23.657  0.00  0.00    +0.038 C 
ATOM     11  C   UNL     1      35.291 -16.855 -21.440  0.00  0.00    +0.038 C 
ATOM     12  C   UNL     1      34.509 -16.501 -24.095  0.00  0.00    +0.018 C 
ATOM     13  C   UNL     1      34.853 -15.606 -21.878  0.00  0.00    +0.018 C 
ATOM     14  C   UNL     1      34.462 -15.429 -23.205  0.00  0.00    +0.057 C 
BRANCH  14  15
ATOM     15  N   UNL     1      34.027 -14.189 -23.638  0.00  0.00    -0.246 N 
ATOM     16  N   UNL     1      33.128 -12.633 -24.957  0.00  0.00    -0.224 NA
ATOM     17  C   UNL     1      34.106 -13.007 -22.947  0.00  0.00    +0.092 C 
ATOM     18  C   UNL     1      33.430 -13.907 -24.842  0.00  0.00    +0.172 C 
ATOM     19  C   UNL     1      33.547 -12.067 -23.779  0.00  0.00    +0.117 C 
ENDBRANCH  14  15
ENDBRANCH   8   9
ENDBRANCH   2   8
BRANCH   1  20
ATOM     20  C   UNL     1      36.814 -21.932 -18.103  0.00  0.00    -0.050 C 
BRANCH  20  23
ATOM     21  O   UNL     1      37.685 -22.921 -13.345  0.00  0.00    -0.435 OA
ATOM     22  O   UNL     1      35.397 -23.557 -12.939  0.00  0.00    -0.435 OA
ATOM     23  C   UNL     1      36.398 -22.374 -16.726  0.00  0.00    -0.040 C 
ATOM     24  C   UNL     1      37.344 -22.407 -15.707  0.00  0.00    +0.034 C 
ATOM     25  C   UNL     1      35.066 -22.742 -16.500  0.00  0.00    -0.003 C 
ATOM     26  C   UNL     1      36.914 -22.819 -14.462  0.00  0.00    +0.176 C 
ATOM     27  C   UNL     1      34.658 -23.155 -15.230  0.00  0.00    +0.040 C 
ATOM     28  C   UNL     1      35.608 -23.183 -14.230  0.00  0.00    +0.176 C 
ATOM     29  C   UNL     1      36.716 -23.387 -12.383  0.00  0.00    +0.429 C 
ENDBRANCH  20  23
ENDBRANCH   1  20
TORSDOF 5
ENDMDL
MODEL 8
REMARK VINA RESULT:     -10.2     10.053     15.887
REMARK  Name = 11740318
REMARK  5 active torsions:
REMARK  status: ('A' for Active; 'I' for Inactive)
REMARK    1  A    between atoms: N_1  and  C_20
REMARK    2  A    between atoms: C_2  and  O_8
REMARK    3  A    between atoms: O_8  and  C_9
REMARK    4  A    between atoms: C_14  and  N_15
REMARK    5  A    between atoms: C_20  and  C_23
REMARK                            x       y       z     vdW  Elec       q    Type
REMARK                         _______ _______ _______ _____ _____    ______ ____
ROOT
ATOM      1  N   UNL     1      32.846  -9.368 -22.627  0.00  0.00    +0.392 N 
ATOM      2  C   UNL     1      33.851 -11.333 -23.750  0.00  0.00    +0.145 C 
ATOM      3  C   UNL     1      32.562 -10.651 -23.282  0.00  0.00    -0.032 C 
ATOM      4  C   UNL     1      34.656 -10.416 -24.668  0.00  0.00    +0.039 C 
ATOM      5  C   UNL     1      34.877  -9.062 -24.008  0.00  0.00    -0.019 C 
ATOM      6  C   UNL     1      33.556  -8.454 -23.533  0.00  0.00    -0.077 C 
ATOM      7  H   UNL     1      33.453  -9.552 -21.828  0.00  0.00    -0.079 HD
ENDROOT
BRANCH   2   8
ATOM      8  O   UNL     1      33.534 -12.523 -24.464  0.00  0.00    -0.481 OA
BRANCH   8   9
ATOM      9  C   UNL     1      33.919 -13.705 -23.891  0.00  0.00    +0.138 C 
ATOM     10  C   UNL     1      33.960 -14.863 -24.661  0.00  0.00    +0.038 C 
ATOM     11  C   UNL     1      34.265 -13.738 -22.544  0.00  0.00    +0.038 C 
ATOM     12  C   UNL     1      34.352 -16.068 -24.077  0.00  0.00    +0.018 C 
ATOM     13  C   UNL     1      34.656 -14.943 -21.961  0.00  0.00    +0.018 C 
ATOM     14  C   UNL     1      34.701 -16.108 -22.727  0.00  0.00    +0.057 C 
BRANCH  14  15
ATOM     15  N   UNL     1      35.090 -17.302 -22.148  0.00  0.00    -0.246 N 
ATOM     16  N   UNL     1      35.821 -18.737 -20.607  0.00  0.00    -0.224 NA
ATOM     17  C   UNL     1      35.110 -18.534 -22.750  0.00  0.00    +0.092 C 
ATOM     18  C   UNL     1      35.527 -17.481 -20.859  0.00  0.00    +0.172 C 
ATOM     19  C   UNL     1      35.563 -19.399 -21.782  0.00  0.00    +0.117 C 
ENDBRANCH  14  15
ENDBRANCH   8   9
ENDBRANCH   2   8
BRANCH   1  20
ATOM     20  C   UNL     1      31.610  -8.754 -22.145  0.00  0.00    -0.050 C 
BRANCH  20  23
ATOM     21  O   UNL     1      30.918  -4.367 -24.303  0.00  0.00    -0.435 OA
ATOM     22  O   UNL     1      31.809  -3.167 -22.413  0.00  0.00    -0.435 OA
ATOM     23  C   UNL     1      31.678  -7.250 -22.183  0.00  0.00    -0.040 C 
ATOM     24  C   UNL     1      31.223  -6.577 -23.311  0.00  0.00    +0.034 C 
ATOM     25  C   UNL     1      32.198  -6.563 -21.080  0.00  0.00    -0.003 C 
ATOM     26  C   UNL     1      31.306  -5.200 -23.299  0.00  0.00    +0.176 C 
ATOM     27  C   UNL     1      32.270  -5.168 -21.093  0.00  0.00    +0.040 C 
ATOM     28  C   UNL     1      31.816  -4.514 -22.220  0.00  0.00    +0.176 C 
ATOM     29  C   UNL     1      31.238  -3.081 -23.734  0.00  0.00    +0.429 C 
ENDBRANCH  20  23
ENDBRANCH   1  20
TORSDOF 5
ENDMDL
MODEL 9
REMARK VINA RESULT:     -10.1      3.690      6.190
REMARK  Name = 11740318
REMARK  5 active torsions:
REMARK  status: ('A' for Active; 'I' for Inactive)
REMARK    1  A    between atoms: N_1  and  C_20
REMARK    2  A    between atoms: C_2  and  O_8
REMARK    3  A    between atoms: O_8  and  C_9
REMARK    4  A    between atoms: C_14  and  N_15
REMARK    5  A    between atoms: C_20  and  C_23
REMARK                            x       y       z     vdW  Elec       q    Type
REMARK                         _______ _______ _______ _____ _____    ______ ____
ROOT
ATOM      1  N   UNL     1      35.760 -20.685 -19.223  0.00  0.00    +0.392 N 
ATOM      2  C   UNL     1      35.219 -18.830 -20.771  0.00  0.00    +0.145 C 
ATOM      3  C   UNL     1      36.296 -19.789 -20.256  0.00  0.00    -0.032 C 
ATOM      4  C   UNL     1      34.002 -19.593 -21.286  0.00  0.00    +0.039 C 
ATOM      5  C   UNL     1      33.503 -20.574 -20.234  0.00  0.00    -0.019 C 
ATOM      6  C   UNL     1      34.635 -21.477 -19.738  0.00  0.00    -0.077 C 
ATOM      7  H   UNL     1      35.413 -20.108 -18.457  0.00  0.00    -0.079 HD
ENDROOT
BRANCH   2   8
ATOM      8  O   UNL     1      35.744 -18.044 -21.835  0.00  0.00    -0.481 OA
BRANCH   8   9
ATOM      9  C   UNL     1      35.189 -16.806 -22.018  0.00  0.00    +0.138 C 
ATOM     10  C   UNL     1      34.906 -16.361 -23.305  0.00  0.00    +0.038 C 
ATOM     11  C   UNL     1      34.913 -16.004 -20.916  0.00  0.00    +0.038 C 
ATOM     12  C   UNL     1      34.340 -15.099 -23.492  0.00  0.00    +0.018 C 
ATOM     13  C   UNL     1      34.347 -14.743 -21.102  0.00  0.00    +0.018 C 
ATOM     14  C   UNL     1      34.060 -14.291 -22.391  0.00  0.00    +0.057 C 
BRANCH  14  15
ATOM     15  N   UNL     1      33.499 -13.040 -22.575  0.00  0.00    -0.246 N 
ATOM     16  N   UNL     1      33.122 -11.028 -23.457  0.00  0.00    -0.224 NA
ATOM     17  C   UNL     1      32.491 -12.479 -21.834  0.00  0.00    +0.092 C 
ATOM     18  C   UNL     1      33.841 -12.125 -23.539  0.00  0.00    +0.172 C 
ATOM     19  C   UNL     1      32.278 -11.242 -22.396  0.00  0.00    +0.117 C 
ENDBRANCH  14  15
ENDBRANCH   8   9
ENDBRANCH   2   8
BRANCH   1  20
ATOM     20  C   UNL     1      36.812 -21.562 -18.710  0.00  0.00    -0.050 C 
BRANCH  20  23
ATOM     21  O   UNL     1      33.916 -23.622 -15.282  0.00  0.00    -0.435 OA
ATOM     22  O   UNL     1      35.579 -23.367 -13.558  0.00  0.00    -0.435 OA
ATOM     23  C   UNL     1      36.514 -22.037 -17.312  0.00  0.00    -0.040 C 
ATOM     24  C   UNL     1      35.280 -22.617 -17.040  0.00  0.00    +0.034 C 
ATOM     25  C   UNL     1      37.487 -21.884 -16.317  0.00  0.00    -0.003 C 
ATOM     26  C   UNL     1      35.054 -23.037 -15.745  0.00  0.00    +0.176 C 
ATOM     27  C   UNL     1      37.233 -22.317 -15.015  0.00  0.00    +0.040 C 
ATOM     28  C   UNL     1      36.004 -22.890 -14.760  0.00  0.00    +0.176 C 
ATOM     29  C   UNL     1      34.256 -23.831 -13.896  0.00  0.00    +0.429 C 
ENDBRANCH  20  23
ENDBRANCH   1  20
TORSDOF 5
ENDMDL
