MODEL 1
REMARK VINA RESULT:     -11.8      0.000      0.000
REMARK  Name = 154000
REMARK  7 active torsions:
REMARK  status: ('A' for Active; 'I' for Inactive)
REMARK    1  A    between atoms: O_1  and  C_5
REMARK    2  A    between atoms: O_1  and  C_17
REMARK    3  A    between atoms: C_2  and  C_8
REMARK    4  A    between atoms: C_8  and  C_13
REMARK    5  A    between atoms: C_17  and  C_18
REMARK    6  A    between atoms: C_18  and  C_21
REMARK    7  A    between atoms: C_23  and  C_25
REMARK                            x       y       z     vdW  Elec       q    Type
REMARK                         _______ _______ _______ _____ _____    ______ ____
ROOT
ATOM      1  O   UNL     1      34.173 -14.943 -21.894  0.00  0.00    -0.475 OA
ENDROOT
BRANCH   1   5
ATOM      2  C   UNL     1      32.076 -11.385 -21.713  0.00  0.00    -0.021 C 
ATOM      3  C   UNL     1      32.886 -11.644 -22.810  0.00  0.00    -0.001 C 
ATOM      4  C   UNL     1      31.959 -12.298 -20.676  0.00  0.00    -0.001 C 
ATOM      5  C   UNL     1      33.483 -13.771 -21.835  0.00  0.00    +0.139 C 
ATOM      6  C   UNL     1      33.593 -12.844 -22.871  0.00  0.00    +0.037 C 
ATOM      7  C   UNL     1      32.666 -13.498 -20.738  0.00  0.00    +0.037 C 
BRANCH   2   8
ATOM      8  C   UNL     1      31.313 -10.086 -21.647  0.00  0.00    +0.047 C 
BRANCH   8  13
ATOM      9  O   UNL     1      31.576  -6.656 -21.731  0.00  0.00    -0.346 OA
ATOM     10  O   UNL     1      32.550  -8.838 -19.183  0.00  0.00    -0.272 OA
ATOM     11  O   UNL     1      31.568  -7.849 -23.693  0.00  0.00    -0.247 OA
ATOM     12  N   UNL     1      31.870  -6.962 -20.385  0.00  0.00    -0.144 N 
ATOM     13  C   UNL     1      32.238  -8.886 -21.590  0.00  0.00    +0.184 C 
ATOM     14  C   UNL     1      32.252  -8.272 -20.223  0.00  0.00    +0.264 C 
ATOM     15  C   UNL     1      31.760  -7.778 -22.490  0.00  0.00    +0.348 C 
ATOM     16  H   UNL     1      31.808  -6.312 -19.648  0.00  0.00    +0.196 HD
ENDBRANCH   8  13
ENDBRANCH   2   8
ENDBRANCH   1   5
BRANCH   1  17
ATOM     17  C   UNL     1      34.528 -15.423 -23.191  0.00  0.00    +0.213 C 
BRANCH  17  18
ATOM     18  C   UNL     1      35.632 -16.469 -23.068  0.00  0.00    +0.105 C 
BRANCH  18  21
ATOM     19  O   UNL     1      34.141 -19.735 -22.413  0.00  0.00    -0.449 OA
ATOM     20  N   UNL     1      35.459 -18.236 -21.348  0.00  0.00    -0.373 NA
ATOM     21  C   UNL     1      35.125 -17.798 -22.586  0.00  0.00    +0.134 C 
ATOM     22  C   UNL     1      34.336 -18.675 -23.246  0.00  0.00    +0.216 C 
ATOM     23  C   UNL     1      34.844 -19.397 -21.297  0.00  0.00    +0.277 C 
ATOM     24  C   UNL     1      33.692 -18.734 -24.563  0.00  0.00    +0.055 C 
BRANCH  23  25
ATOM     25  C   UNL     1      34.807 -20.363 -20.234  0.00  0.00    +0.066 C 
ATOM     26  C   UNL     1      33.585 -20.882 -19.796  0.00  0.00    +0.006 C 
ATOM     27  C   UNL     1      35.993 -20.789 -19.631  0.00  0.00    +0.006 C 
ATOM     28  C   UNL     1      33.550 -21.818 -18.763  0.00  0.00    +0.000 C 
ATOM     29  C   UNL     1      35.959 -21.726 -18.598  0.00  0.00    +0.000 C 
ATOM     30  C   UNL     1      34.737 -22.240 -18.164  0.00  0.00    +0.000 C 
ENDBRANCH  23  25
ENDBRANCH  18  21
ENDBRANCH  17  18
ENDBRANCH   1  17
TORSDOF 7
ENDMDL
MODEL 2
REMARK VINA RESULT:     -11.5      6.071     10.017
REMARK  Name = 154000
REMARK  7 active torsions:
REMARK  status: ('A' for Active; 'I' for Inactive)
REMARK    1  A    between atoms: O_1  and  C_5
REMARK    2  A    between atoms: O_1  and  C_17
REMARK    3  A    between atoms: C_2  and  C_8
REMARK    4  A    between atoms: C_8  and  C_13
REMARK    5  A    between atoms: C_17  and  C_18
REMARK    6  A    between atoms: C_18  and  C_21
REMARK    7  A    between atoms: C_23  and  C_25
REMARK                            x       y       z     vdW  Elec       q    Type
REMARK                         _______ _______ _______ _____ _____    ______ ____
ROOT
ATOM      1  O   UNL     1      36.416 -22.862 -16.728  0.00  0.00    -0.475 OA
ENDROOT
BRANCH   1   5
ATOM      2  C   UNL     1      34.821 -20.702 -19.870  0.00  0.00    -0.021 C 
ATOM      3  C   UNL     1      36.188 -20.658 -19.638  0.00  0.00    -0.001 C 
ATOM      4  C   UNL     1      33.980 -21.457 -19.067  0.00  0.00    -0.001 C 
ATOM      5  C   UNL     1      35.892 -22.150 -17.763  0.00  0.00    +0.139 C 
ATOM      6  C   UNL     1      36.727 -21.386 -18.578  0.00  0.00    +0.037 C 
ATOM      7  C   UNL     1      34.519 -22.186 -18.007  0.00  0.00    +0.037 C 
BRANCH   2   8
ATOM      8  C   UNL     1      34.239 -19.912 -21.016  0.00  0.00    +0.047 C 
BRANCH   8  13
ATOM      9  O   UNL     1      34.930 -17.770 -23.618  0.00  0.00    -0.346 OA
ATOM     10  O   UNL     1      35.597 -17.328 -20.218  0.00  0.00    -0.272 OA
ATOM     11  O   UNL     1      34.793 -20.029 -24.005  0.00  0.00    -0.247 OA
ATOM     12  N   UNL     1      35.169 -16.970 -22.481  0.00  0.00    -0.144 N 
ATOM     13  C   UNL     1      35.307 -19.159 -21.786  0.00  0.00    +0.184 C 
ATOM     14  C   UNL     1      35.383 -17.726 -21.353  0.00  0.00    +0.264 C 
ATOM     15  C   UNL     1      34.980 -19.086 -23.254  0.00  0.00    +0.348 C 
ATOM     16  H   UNL     1      35.181 -15.986 -22.494  0.00  0.00    +0.196 HD
ENDBRANCH   8  13
ENDBRANCH   2   8
ENDBRANCH   1   5
BRANCH   1  17
ATOM     17  C   UNL     1      36.301 -22.293 -15.424  0.00  0.00    +0.213 C 
BRANCH  17  18
ATOM     18  C   UNL     1      36.296 -23.402 -14.376  0.00  0.00    +0.105 C 
BRANCH  18  21
ATOM     19  O   UNL     1      33.180 -24.465 -12.801  0.00  0.00    -0.449 OA
ATOM     20  N   UNL     1      33.870 -23.640 -14.790  0.00  0.00    -0.373 NA
ATOM     21  C   UNL     1      34.911 -23.781 -13.935  0.00  0.00    +0.134 C 
ATOM     22  C   UNL     1      34.527 -24.273 -12.735  0.00  0.00    +0.216 C 
ATOM     23  C   UNL     1      32.862 -24.064 -14.061  0.00  0.00    +0.277 C 
ATOM     24  C   UNL     1      35.191 -24.621 -11.474  0.00  0.00    +0.055 C 
BRANCH  23  25
ATOM     25  C   UNL     1      31.469 -24.163 -14.402  0.00  0.00    +0.066 C 
ATOM     26  C   UNL     1      30.681 -25.179 -13.854  0.00  0.00    +0.006 C 
ATOM     27  C   UNL     1      30.895 -23.244 -15.285  0.00  0.00    +0.006 C 
ATOM     28  C   UNL     1      29.330 -25.276 -14.187  0.00  0.00    +0.000 C 
ATOM     29  C   UNL     1      29.544 -23.340 -15.617  0.00  0.00    +0.000 C 
ATOM     30  C   UNL     1      28.761 -24.356 -15.068  0.00  0.00    +0.000 C 
ENDBRANCH  23  25
ENDBRANCH  18  21
ENDBRANCH  17  18
ENDBRANCH   1  17
TORSDOF 7
ENDMDL
MODEL 3
REMARK VINA RESULT:     -11.5      2.804     10.668
REMARK  Name = 154000
REMARK  7 active torsions:
REMARK  status: ('A' for Active; 'I' for Inactive)
REMARK    1  A    between atoms: O_1  and  C_5
REMARK    2  A    between atoms: O_1  and  C_17
REMARK    3  A    between atoms: C_2  and  C_8
REMARK    4  A    between atoms: C_8  and  C_13
REMARK    5  A    between atoms: C_17  and  C_18
REMARK    6  A    between atoms: C_18  and  C_21
REMARK    7  A    between atoms: C_23  and  C_25
REMARK                            x       y       z     vdW  Elec       q    Type
REMARK                         _______ _______ _______ _____ _____    ______ ____
ROOT
ATOM      1  O   UNL     1      35.262 -15.657 -23.101  0.00  0.00    -0.475 OA
ENDROOT
BRANCH   1   5
ATOM      2  C   UNL     1      35.217 -19.436 -21.427  0.00  0.00    -0.021 C 
ATOM      3  C   UNL     1      35.613 -18.354 -20.655  0.00  0.00    -0.001 C 
ATOM      4  C   UNL     1      34.836 -19.273 -22.750  0.00  0.00    -0.001 C 
ATOM      5  C   UNL     1      35.248 -16.901 -22.549  0.00  0.00    +0.139 C 
ATOM      6  C   UNL     1      35.629 -17.079 -21.219  0.00  0.00    +0.037 C 
ATOM      7  C   UNL     1      34.852 -17.998 -23.314  0.00  0.00    +0.037 C 
BRANCH   2   8
ATOM      8  C   UNL     1      35.201 -20.815 -20.817  0.00  0.00    +0.047 C 
BRANCH   8  13
ATOM      9  O   UNL     1      32.714 -22.294 -18.955  0.00  0.00    -0.346 OA
ATOM     10  O   UNL     1      36.120 -22.060 -18.215  0.00  0.00    -0.272 OA
ATOM     11  O   UNL     1      32.200 -20.571 -20.384  0.00  0.00    -0.247 OA
ATOM     12  N   UNL     1      33.891 -22.732 -18.312  0.00  0.00    -0.144 N 
ATOM     13  C   UNL     1      34.455 -20.843 -19.497  0.00  0.00    +0.184 C 
ATOM     14  C   UNL     1      34.969 -21.930 -18.602  0.00  0.00    +0.264 C 
ATOM     15  C   UNL     1      33.000 -21.180 -19.693  0.00  0.00    +0.348 C 
ATOM     16  H   UNL     1      33.935 -23.521 -17.725  0.00  0.00    +0.196 HD
ENDBRANCH   8  13
ENDBRANCH   2   8
ENDBRANCH   1   5
BRANCH   1  17
ATOM     17  C   UNL     1      34.251 -14.744 -22.672  0.00  0.00    +0.213 C 
BRANCH  17  18
ATOM     18  C   UNL     1      33.398 -14.323 -23.864  0.00  0.00    +0.105 C 
BRANCH  18  21
ATOM     19  O   UNL     1      33.638 -10.918 -25.157  0.00  0.00    -0.449 OA
ATOM     20  N   UNL     1      33.571 -11.962 -23.151  0.00  0.00    -0.373 NA
ATOM     21  C   UNL     1      33.503 -12.856 -24.167  0.00  0.00    +0.134 C 
ATOM     22  C   UNL     1      33.540 -12.258 -25.380  0.00  0.00    +0.216 C 
ATOM     23  C   UNL     1      33.652 -10.821 -23.799  0.00  0.00    +0.277 C 
ATOM     24  C   UNL     1      33.503 -12.702 -26.778  0.00  0.00    +0.055 C 
BRANCH  23  25
ATOM     25  C   UNL     1      33.750  -9.484 -23.282  0.00  0.00    +0.066 C 
ATOM     26  C   UNL     1      34.818  -8.662 -23.653  0.00  0.00    +0.006 C 
ATOM     27  C   UNL     1      32.778  -8.998 -22.404  0.00  0.00    +0.006 C 
ATOM     28  C   UNL     1      34.913  -7.366 -23.149  0.00  0.00    +0.000 C 
ATOM     29  C   UNL     1      32.872  -7.701 -21.900  0.00  0.00    +0.000 C 
ATOM     30  C   UNL     1      33.940  -6.884 -22.272  0.00  0.00    +0.000 C 
ENDBRANCH  23  25
ENDBRANCH  18  21
ENDBRANCH  17  18
ENDBRANCH   1  17
TORSDOF 7
ENDMDL
MODEL 4
REMARK VINA RESULT:     -11.3      2.497     10.634
REMARK  Name = 154000
REMARK  7 active torsions:
REMARK  status: ('A' for Active; 'I' for Inactive)
REMARK    1  A    between atoms: O_1  and  C_5
REMARK    2  A    between atoms: O_1  and  C_17
REMARK    3  A    between atoms: C_2  and  C_8
REMARK    4  A    between atoms: C_8  and  C_13
REMARK    5  A    between atoms: C_17  and  C_18
REMARK    6  A    between atoms: C_18  and  C_21
REMARK    7  A    between atoms: C_23  and  C_25
REMARK                            x       y       z     vdW  Elec       q    Type
REMARK                         _______ _______ _______ _____ _____    ______ ____
ROOT
ATOM      1  O   UNL     1      33.522 -14.481 -24.826  0.00  0.00    -0.475 OA
ENDROOT
BRANCH   1   5
ATOM      2  C   UNL     1      34.944 -17.927 -23.040  0.00  0.00    -0.021 C 
ATOM      3  C   UNL     1      35.228 -16.696 -22.466  0.00  0.00    -0.001 C 
ATOM      4  C   UNL     1      34.193 -18.022 -24.201  0.00  0.00    -0.001 C 
ATOM      5  C   UNL     1      33.991 -15.615 -24.237  0.00  0.00    +0.139 C 
ATOM      6  C   UNL     1      34.748 -15.533 -23.069  0.00  0.00    +0.037 C 
ATOM      7  C   UNL     1      33.713 -16.859 -24.803  0.00  0.00    +0.037 C 
BRANCH   2   8
ATOM      8  C   UNL     1      35.464 -19.184 -22.388  0.00  0.00    +0.047 C 
BRANCH   8  13
ATOM      9  O   UNL     1      35.336 -20.894 -19.405  0.00  0.00    -0.346 OA
ATOM     10  O   UNL     1      37.821 -18.722 -20.547  0.00  0.00    -0.272 OA
ATOM     11  O   UNL     1      33.388 -20.343 -20.491  0.00  0.00    -0.247 OA
ATOM     12  N   UNL     1      36.659 -20.404 -19.431  0.00  0.00    -0.144 N 
ATOM     13  C   UNL     1      35.444 -19.089 -20.875  0.00  0.00    +0.184 C 
ATOM     14  C   UNL     1      36.802 -19.344 -20.294  0.00  0.00    +0.264 C 
ATOM     15  C   UNL     1      34.573 -20.157 -20.267  0.00  0.00    +0.348 C 
ATOM     16  H   UNL     1      37.393 -20.778 -18.892  0.00  0.00    +0.196 HD
ENDBRANCH   8  13
ENDBRANCH   2   8
ENDBRANCH   1   5
BRANCH   1  17
ATOM     17  C   UNL     1      33.677 -13.261 -24.100  0.00  0.00    +0.213 C 
BRANCH  17  18
ATOM     18  C   UNL     1      33.269 -12.083 -24.980  0.00  0.00    +0.105 C 
BRANCH  18  21
ATOM     19  O   UNL     1      34.472  -8.842 -23.809  0.00  0.00    -0.449 OA
ATOM     20  N   UNL     1      32.758 -10.259 -23.391  0.00  0.00    -0.373 NA
ATOM     21  C   UNL     1      33.575 -10.754 -24.352  0.00  0.00    +0.134 C 
ATOM     22  C   UNL     1      34.610  -9.926 -24.623  0.00  0.00    +0.216 C 
ATOM     23  C   UNL     1      33.341  -9.117 -23.102  0.00  0.00    +0.277 C 
ATOM     24  C   UNL     1      35.762  -9.937 -25.531  0.00  0.00    +0.055 C 
BRANCH  23  25
ATOM     25  C   UNL     1      32.957  -8.113 -22.149  0.00  0.00    +0.066 C 
ATOM     26  C   UNL     1      32.995  -6.759 -22.497  0.00  0.00    +0.006 C 
ATOM     27  C   UNL     1      32.545  -8.484 -20.866  0.00  0.00    +0.006 C 
ATOM     28  C   UNL     1      32.624  -5.786 -21.570  0.00  0.00    +0.000 C 
ATOM     29  C   UNL     1      32.174  -7.510 -19.939  0.00  0.00    +0.000 C 
ATOM     30  C   UNL     1      32.213  -6.161 -20.291  0.00  0.00    +0.000 C 
ENDBRANCH  23  25
ENDBRANCH  18  21
ENDBRANCH  17  18
ENDBRANCH   1  17
TORSDOF 7
ENDMDL
MODEL 5
REMARK VINA RESULT:     -11.3      2.284     11.091
REMARK  Name = 154000
REMARK  7 active torsions:
REMARK  status: ('A' for Active; 'I' for Inactive)
REMARK    1  A    between atoms: O_1  and  C_5
REMARK    2  A    between atoms: O_1  and  C_17
REMARK    3  A    between atoms: C_2  and  C_8
REMARK    4  A    between atoms: C_8  and  C_13
REMARK    5  A    between atoms: C_17  and  C_18
REMARK    6  A    between atoms: C_18  and  C_21
REMARK    7  A    between atoms: C_23  and  C_25
REMARK                            x       y       z     vdW  Elec       q    Type
REMARK                         _______ _______ _______ _____ _____    ______ ____
ROOT
ATOM      1  O   UNL     1      33.590 -13.762 -24.181  0.00  0.00    -0.475 OA
ENDROOT
BRANCH   1   5
ATOM      2  C   UNL     1      35.016 -17.429 -22.914  0.00  0.00    -0.021 C 
ATOM      3  C   UNL     1      35.080 -16.340 -22.057  0.00  0.00    -0.001 C 
ATOM      4  C   UNL     1      34.483 -17.309 -24.188  0.00  0.00    -0.001 C 
ATOM      5  C   UNL     1      34.060 -14.969 -23.763  0.00  0.00    +0.139 C 
ATOM      6  C   UNL     1      34.600 -15.102 -22.484  0.00  0.00    +0.037 C 
ATOM      7  C   UNL     1      34.002 -16.072 -24.615  0.00  0.00    +0.037 C 
BRANCH   2   8
ATOM      8  C   UNL     1      35.538 -18.766 -22.452  0.00  0.00    +0.047 C 
BRANCH   8  13
ATOM      9  O   UNL     1      35.325 -20.912 -19.771  0.00  0.00    -0.346 OA
ATOM     10  O   UNL     1      37.858 -18.626 -20.514  0.00  0.00    -0.272 OA
ATOM     11  O   UNL     1      33.408 -20.174 -20.797  0.00  0.00    -0.247 OA
ATOM     12  N   UNL     1      36.653 -20.443 -19.694  0.00  0.00    -0.144 N 
ATOM     13  C   UNL     1      35.485 -18.905 -20.942  0.00  0.00    +0.184 C 
ATOM     14  C   UNL     1      36.827 -19.266 -20.381  0.00  0.00    +0.264 C 
ATOM     15  C   UNL     1      34.589 -20.041 -20.524  0.00  0.00    +0.348 C 
ATOM     16  H   UNL     1      37.371 -20.906 -19.205  0.00  0.00    +0.196 HD
ENDBRANCH   8  13
ENDBRANCH   2   8
ENDBRANCH   1   5
BRANCH   1  17
ATOM     17  C   UNL     1      33.877 -12.632 -23.357  0.00  0.00    +0.213 C 
BRANCH  17  18
ATOM     18  C   UNL     1      32.604 -12.169 -22.655  0.00  0.00    +0.105 C 
BRANCH  18  21
ATOM     19  O   UNL     1      32.171  -8.656 -21.765  0.00  0.00    -0.449 OA
ATOM     20  N   UNL     1      33.050  -9.873 -23.457  0.00  0.00    -0.373 NA
ATOM     21  C   UNL     1      32.535 -10.678 -22.496  0.00  0.00    +0.134 C 
ATOM     22  C   UNL     1      32.002  -9.975 -21.470  0.00  0.00    +0.216 C 
ATOM     23  C   UNL     1      32.805  -8.678 -22.969  0.00  0.00    +0.277 C 
ATOM     24  C   UNL     1      31.331 -10.296 -20.206  0.00  0.00    +0.055 C 
BRANCH  23  25
ATOM     25  C   UNL     1      33.111  -7.387 -23.523  0.00  0.00    +0.066 C 
ATOM     26  C   UNL     1      34.439  -7.014 -23.747  0.00  0.00    +0.006 C 
ATOM     27  C   UNL     1      32.081  -6.496 -23.838  0.00  0.00    +0.006 C 
ATOM     28  C   UNL     1      34.735  -5.760 -24.281  0.00  0.00    +0.000 C 
ATOM     29  C   UNL     1      32.376  -5.243 -24.373  0.00  0.00    +0.000 C 
ATOM     30  C   UNL     1      33.703  -4.875 -24.595  0.00  0.00    +0.000 C 
ENDBRANCH  23  25
ENDBRANCH  18  21
ENDBRANCH  17  18
ENDBRANCH   1  17
TORSDOF 7
ENDMDL
MODEL 6
REMARK VINA RESULT:     -11.3      4.087     10.923
REMARK  Name = 154000
REMARK  7 active torsions:
REMARK  status: ('A' for Active; 'I' for Inactive)
REMARK    1  A    between atoms: O_1  and  C_5
REMARK    2  A    between atoms: O_1  and  C_17
REMARK    3  A    between atoms: C_2  and  C_8
REMARK    4  A    between atoms: C_8  and  C_13
REMARK    5  A    between atoms: C_17  and  C_18
REMARK    6  A    between atoms: C_18  and  C_21
REMARK    7  A    between atoms: C_23  and  C_25
REMARK                            x       y       z     vdW  Elec       q    Type
REMARK                         _______ _______ _______ _____ _____    ______ ____
ROOT
ATOM      1  O   UNL     1      35.720 -19.616 -20.679  0.00  0.00    -0.475 OA
ENDROOT
BRANCH   1   5
ATOM      2  C   UNL     1      33.808 -22.395 -18.289  0.00  0.00    -0.021 C 
ATOM      3  C   UNL     1      35.192 -22.302 -18.252  0.00  0.00    -0.001 C 
ATOM      4  C   UNL     1      33.055 -21.573 -19.114  0.00  0.00    -0.001 C 
ATOM      5  C   UNL     1      35.091 -20.531 -19.892  0.00  0.00    +0.139 C 
ATOM      6  C   UNL     1      35.837 -21.364 -19.058  0.00  0.00    +0.037 C 
ATOM      7  C   UNL     1      33.701 -20.636 -19.920  0.00  0.00    +0.037 C 
BRANCH   2   8
ATOM      8  C   UNL     1      33.111 -23.410 -17.418  0.00  0.00    +0.047 C 
BRANCH   8  13
ATOM      9  O   UNL     1      30.830 -23.645 -14.853  0.00  0.00    -0.346 OA
ATOM     10  O   UNL     1      34.315 -23.561 -14.646  0.00  0.00    -0.272 OA
ATOM     11  O   UNL     1      30.232 -22.627 -16.824  0.00  0.00    -0.247 OA
ATOM     12  N   UNL     1      32.055 -23.922 -14.211  0.00  0.00    -0.144 N 
ATOM     13  C   UNL     1      32.569 -22.789 -16.145  0.00  0.00    +0.184 C 
ATOM     14  C   UNL     1      33.132 -23.459 -14.929  0.00  0.00    +0.264 C 
ATOM     15  C   UNL     1      31.081 -22.988 -16.025  0.00  0.00    +0.348 C 
ATOM     16  H   UNL     1      32.129 -24.392 -13.350  0.00  0.00    +0.196 HD
ENDBRANCH   8  13
ENDBRANCH   2   8
ENDBRANCH   1   5
BRANCH   1  17
ATOM     17  C   UNL     1      34.973 -19.073 -21.767  0.00  0.00    +0.213 C 
BRANCH  17  18
ATOM     18  C   UNL     1      35.797 -18.001 -22.474  0.00  0.00    +0.105 C 
BRANCH  18  21
ATOM     19  O   UNL     1      33.503 -16.161 -24.636  0.00  0.00    -0.449 OA
ATOM     20  N   UNL     1      35.123 -15.713 -23.122  0.00  0.00    -0.373 NA
ATOM     21  C   UNL     1      34.954 -17.048 -23.272  0.00  0.00    +0.134 C 
ATOM     22  C   UNL     1      33.989 -17.346 -24.172  0.00  0.00    +0.216 C 
ATOM     23  C   UNL     1      34.233 -15.231 -23.961  0.00  0.00    +0.277 C 
ATOM     24  C   UNL     1      33.396 -18.571 -24.720  0.00  0.00    +0.055 C 
BRANCH  23  25
ATOM     25  C   UNL     1      33.915 -13.864 -24.268  0.00  0.00    +0.066 C 
ATOM     26  C   UNL     1      33.563 -13.498 -25.570  0.00  0.00    +0.006 C 
ATOM     27  C   UNL     1      33.958 -12.891 -23.265  0.00  0.00    +0.006 C 
ATOM     28  C   UNL     1      33.258 -12.170 -25.867  0.00  0.00    +0.000 C 
ATOM     29  C   UNL     1      33.652 -11.563 -23.562  0.00  0.00    +0.000 C 
ATOM     30  C   UNL     1      33.301 -11.202 -24.863  0.00  0.00    +0.000 C 
ENDBRANCH  23  25
ENDBRANCH  18  21
ENDBRANCH  17  18
ENDBRANCH   1  17
TORSDOF 7
ENDMDL
MODEL 7
REMARK VINA RESULT:     -11.2      5.673      9.970
REMARK  Name = 154000
REMARK  7 active torsions:
REMARK  status: ('A' for Active; 'I' for Inactive)
REMARK    1  A    between atoms: O_1  and  C_5
REMARK    2  A    between atoms: O_1  and  C_17
REMARK    3  A    between atoms: C_2  and  C_8
REMARK    4  A    between atoms: C_8  and  C_13
REMARK    5  A    between atoms: C_17  and  C_18
REMARK    6  A    between atoms: C_18  and  C_21
REMARK    7  A    between atoms: C_23  and  C_25
REMARK                            x       y       z     vdW  Elec       q    Type
REMARK                         _______ _______ _______ _____ _____    ______ ____
ROOT
ATOM      1  O   UNL     1      32.986 -23.238 -17.724  0.00  0.00    -0.475 OA
ENDROOT
BRANCH   1   5
ATOM      2  C   UNL     1      35.043 -20.506 -20.046  0.00  0.00    -0.021 C 
ATOM      3  C   UNL     1      33.656 -20.510 -20.067  0.00  0.00    -0.001 C 
ATOM      4  C   UNL     1      35.752 -21.402 -19.260  0.00  0.00    -0.001 C 
ATOM      5  C   UNL     1      33.662 -22.338 -18.489  0.00  0.00    +0.139 C 
ATOM      6  C   UNL     1      32.961 -21.432 -19.284  0.00  0.00    +0.037 C 
ATOM      7  C   UNL     1      35.057 -22.324 -18.477  0.00  0.00    +0.037 C 
BRANCH   2   8
ATOM      8  C   UNL     1      35.794 -19.511 -20.895  0.00  0.00    +0.047 C 
BRANCH   8  13
ATOM      9  O   UNL     1      35.467 -16.444 -22.422  0.00  0.00    -0.346 OA
ATOM     10  O   UNL     1      34.804 -19.605 -23.753  0.00  0.00    -0.272 OA
ATOM     11  O   UNL     1      35.287 -16.608 -20.138  0.00  0.00    -0.247 OA
ATOM     12  N   UNL     1      35.323 -17.348 -23.495  0.00  0.00    -0.144 N 
ATOM     13  C   UNL     1      34.860 -18.529 -21.577  0.00  0.00    +0.184 C 
ATOM     14  C   UNL     1      34.981 -18.609 -23.069  0.00  0.00    +0.264 C 
ATOM     15  C   UNL     1      35.223 -17.105 -21.250  0.00  0.00    +0.348 C 
ATOM     16  H   UNL     1      35.452 -17.103 -24.440  0.00  0.00    +0.196 HD
ENDBRANCH   8  13
ENDBRANCH   2   8
ENDBRANCH   1   5
BRANCH   1  17
ATOM     17  C   UNL     1      32.179 -22.716 -16.668  0.00  0.00    +0.213 C 
BRANCH  17  18
ATOM     18  C   UNL     1      31.638 -23.861 -15.818  0.00  0.00    +0.105 C 
BRANCH  18  21
ATOM     19  O   UNL     1      33.083 -24.532 -12.534  0.00  0.00    -0.449 OA
ATOM     20  N   UNL     1      33.790 -23.955 -14.604  0.00  0.00    -0.373 NA
ATOM     21  C   UNL     1      32.443 -24.091 -14.570  0.00  0.00    +0.134 C 
ATOM     22  C   UNL     1      31.992 -24.437 -13.343  0.00  0.00    +0.216 C 
ATOM     23  C   UNL     1      34.121 -24.229 -13.361  0.00  0.00    +0.277 C 
ATOM     24  C   UNL     1      30.684 -24.711 -12.736  0.00  0.00    +0.055 C 
BRANCH  23  25
ATOM     25  C   UNL     1      35.420 -24.256 -12.748  0.00  0.00    +0.066 C 
ATOM     26  C   UNL     1      35.586 -23.826 -11.429  0.00  0.00    +0.006 C 
ATOM     27  C   UNL     1      36.527 -24.711 -13.470  0.00  0.00    +0.006 C 
ATOM     28  C   UNL     1      36.848 -23.851 -10.836  0.00  0.00    +0.000 C 
ATOM     29  C   UNL     1      37.789 -24.737 -12.877  0.00  0.00    +0.000 C 
ATOM     30  C   UNL     1      37.950 -24.307 -11.560  0.00  0.00    +0.000 C 
ENDBRANCH  23  25
ENDBRANCH  18  21
ENDBRANCH  17  18
ENDBRANCH   1  17
TORSDOF 7
ENDMDL
MODEL 8
REMARK VINA RESULT:     -11.1      2.529     10.835
REMARK  Name = 154000
REMARK  7 active torsions:
REMARK  status: ('A' for Active; 'I' for Inactive)
REMARK    1  A    between atoms: O_1  and  C_5
REMARK    2  A    between atoms: O_1  and  C_17
REMARK    3  A    between atoms: C_2  and  C_8
REMARK    4  A    between atoms: C_8  and  C_13
REMARK    5  A    between atoms: C_17  and  C_18
REMARK    6  A    between atoms: C_18  and  C_21
REMARK    7  A    between atoms: C_23  and  C_25
REMARK                            x       y       z     vdW  Elec       q    Type
REMARK                         _______ _______ _______ _____ _____    ______ ____
ROOT
ATOM      1  O   UNL     1      34.847 -15.849 -23.651  0.00  0.00    -0.475 OA
ENDROOT
BRANCH   1   5
ATOM      2  C   UNL     1      35.208 -19.415 -21.592  0.00  0.00    -0.021 C 
ATOM      3  C   UNL     1      34.695 -19.422 -22.881  0.00  0.00    -0.001 C 
ATOM      4  C   UNL     1      35.601 -18.234 -20.982  0.00  0.00    -0.001 C 
ATOM      5  C   UNL     1      34.965 -17.024 -22.973  0.00  0.00    +0.139 C 
ATOM      6  C   UNL     1      34.573 -18.219 -23.576  0.00  0.00    +0.037 C 
ATOM      7  C   UNL     1      35.479 -17.031 -21.677  0.00  0.00    +0.037 C 
BRANCH   2   8
ATOM      8  C   UNL     1      35.338 -20.717 -20.841  0.00  0.00    +0.047 C 
BRANCH   8  13
ATOM      9  O   UNL     1      32.800 -22.206 -19.058  0.00  0.00    -0.346 OA
ATOM     10  O   UNL     1      36.149 -21.826 -18.144  0.00  0.00    -0.272 OA
ATOM     11  O   UNL     1      32.311 -20.559 -20.583  0.00  0.00    -0.247 OA
ATOM     12  N   UNL     1      33.952 -22.578 -18.335  0.00  0.00    -0.144 N 
ATOM     13  C   UNL     1      34.521 -20.718 -19.563  0.00  0.00    +0.184 C 
ATOM     14  C   UNL     1      35.018 -21.752 -18.598  0.00  0.00    +0.264 C 
ATOM     15  C   UNL     1      33.091 -21.112 -19.825  0.00  0.00    +0.348 C 
ATOM     16  H   UNL     1      33.988 -23.342 -17.715  0.00  0.00    +0.196 HD
ENDBRANCH   8  13
ENDBRANCH   2   8
ENDBRANCH   1   5
BRANCH   1  17
ATOM     17  C   UNL     1      34.341 -14.729 -22.924  0.00  0.00    +0.213 C 
BRANCH  17  18
ATOM     18  C   UNL     1      33.485 -13.863 -23.843  0.00  0.00    +0.105 C 
BRANCH  18  21
ATOM     19  O   UNL     1      32.626 -10.810 -22.037  0.00  0.00    -0.449 OA
ATOM     20  N   UNL     1      33.631 -11.398 -23.976  0.00  0.00    -0.373 NA
ATOM     21  C   UNL     1      33.232 -12.492 -23.284  0.00  0.00    +0.134 C 
ATOM     22  C   UNL     1      32.627 -12.170 -22.118  0.00  0.00    +0.216 C 
ATOM     23  C   UNL     1      33.244 -10.421 -23.186  0.00  0.00    +0.277 C 
ATOM     24  C   UNL     1      32.017 -12.905 -21.005  0.00  0.00    +0.055 C 
BRANCH  23  25
ATOM     25  C   UNL     1      33.379  -9.001 -23.358  0.00  0.00    +0.066 C 
ATOM     26  C   UNL     1      32.243  -8.193 -23.463  0.00  0.00    +0.006 C 
ATOM     27  C   UNL     1      34.648  -8.420 -23.423  0.00  0.00    +0.006 C 
ATOM     28  C   UNL     1      32.376  -6.816 -23.633  0.00  0.00    +0.000 C 
ATOM     29  C   UNL     1      34.781  -7.042 -23.592  0.00  0.00    +0.000 C 
ATOM     30  C   UNL     1      33.645  -6.239 -23.697  0.00  0.00    +0.000 C 
ENDBRANCH  23  25
ENDBRANCH  18  21
ENDBRANCH  17  18
ENDBRANCH   1  17
TORSDOF 7
ENDMDL
MODEL 9
REMARK VINA RESULT:     -10.9      3.476     10.839
REMARK  Name = 154000
REMARK  7 active torsions:
REMARK  status: ('A' for Active; 'I' for Inactive)
REMARK    1  A    between atoms: O_1  and  C_5
REMARK    2  A    between atoms: O_1  and  C_17
REMARK    3  A    between atoms: C_2  and  C_8
REMARK    4  A    between atoms: C_8  and  C_13
REMARK    5  A    between atoms: C_17  and  C_18
REMARK    6  A    between atoms: C_18  and  C_21
REMARK    7  A    between atoms: C_23  and  C_25
REMARK                            x       y       z     vdW  Elec       q    Type
REMARK                         _______ _______ _______ _____ _____    ______ ____
ROOT
ATOM      1  O   UNL     1      35.651 -19.297 -21.099  0.00  0.00    -0.475 OA
ENDROOT
BRANCH   1   5
ATOM      2  C   UNL     1      33.932 -22.229 -18.746  0.00  0.00    -0.021 C 
ATOM      3  C   UNL     1      35.314 -22.115 -18.791  0.00  0.00    -0.001 C 
ATOM      4  C   UNL     1      33.117 -21.377 -19.476  0.00  0.00    -0.001 C 
ATOM      5  C   UNL     1      35.086 -20.263 -20.324  0.00  0.00    +0.139 C 
ATOM      6  C   UNL     1      35.894 -21.126 -19.585  0.00  0.00    +0.037 C 
ATOM      7  C   UNL     1      33.698 -20.388 -20.270  0.00  0.00    +0.037 C 
BRANCH   2   8
ATOM      8  C   UNL     1      33.305 -23.299 -17.889  0.00  0.00    +0.047 C 
BRANCH   8  13
ATOM      9  O   UNL     1      31.687 -23.843 -14.901  0.00  0.00    -0.346 OA
ATOM     10  O   UNL     1      35.125 -23.748 -15.512  0.00  0.00    -0.272 OA
ATOM     11  O   UNL     1      30.661 -22.616 -16.549  0.00  0.00    -0.247 OA
ATOM     12  N   UNL     1      33.024 -24.178 -14.600  0.00  0.00    -0.144 N 
ATOM     13  C   UNL     1      33.089 -22.830 -16.463  0.00  0.00    +0.184 C 
ATOM     14  C   UNL     1      33.910 -23.627 -15.495  0.00  0.00    +0.264 C 
ATOM     15  C   UNL     1      31.667 -23.056 -16.018  0.00  0.00    +0.348 C 
ATOM     16  H   UNL     1      33.291 -24.740 -13.838  0.00  0.00    +0.196 HD
ENDBRANCH   8  13
ENDBRANCH   2   8
ENDBRANCH   1   5
BRANCH   1  17
ATOM     17  C   UNL     1      35.252 -17.949 -20.850  0.00  0.00    +0.213 C 
BRANCH  17  18
ATOM     18  C   UNL     1      35.843 -17.031 -21.917  0.00  0.00    +0.105 C 
BRANCH  18  21
ATOM     19  O   UNL     1      33.570 -14.613 -23.435  0.00  0.00    -0.449 OA
ATOM     20  N   UNL     1      34.523 -15.000 -21.421  0.00  0.00    -0.373 NA
ATOM     21  C   UNL     1      34.904 -15.933 -22.326  0.00  0.00    +0.134 C 
ATOM     22  C   UNL     1      34.348 -15.726 -23.542  0.00  0.00    +0.216 C 
ATOM     23  C   UNL     1      33.728 -14.237 -22.137  0.00  0.00    +0.277 C 
ATOM     24  C   UNL     1      34.395 -16.385 -24.852  0.00  0.00    +0.055 C 
BRANCH  23  25
ATOM     25  C   UNL     1      32.998 -13.062 -21.747  0.00  0.00    +0.066 C 
ATOM     26  C   UNL     1      32.802 -12.020 -22.658  0.00  0.00    +0.006 C 
ATOM     27  C   UNL     1      32.483 -12.953 -20.453  0.00  0.00    +0.006 C 
ATOM     28  C   UNL     1      32.095 -10.880 -22.278  0.00  0.00    +0.000 C 
ATOM     29  C   UNL     1      31.775 -11.813 -20.072  0.00  0.00    +0.000 C 
ATOM     30  C   UNL     1      31.581 -10.775 -20.985  0.00  0.00    +0.000 C 
ENDBRANCH  23  25
ENDBRANCH  18  21
ENDBRANCH  17  18
ENDBRANCH   1  17
TORSDOF 7
ENDMDL
