MODEL 1
REMARK VINA RESULT:     -12.5      0.000      0.000
REMARK  Name = 5289110
REMARK  6 active torsions:
REMARK  status: ('A' for Active; 'I' for Inactive)
REMARK    1  A    between atoms: C_3  and  C_9
REMARK    2  A    between atoms: C_4  and  C_22
REMARK    3  A    between atoms: N_8  and  C_11
REMARK    4  A    between atoms: C_11  and  C_13
REMARK    5  A    between atoms: N_21  and  C_24
REMARK    6  A    between atoms: C_24  and  C_26
REMARK                            x       y       z     vdW  Elec       q    Type
REMARK                         _______ _______ _______ _____ _____    ______ ____
ROOT
ATOM      1  N   UNL     1      33.919 -17.896 -24.723  0.00  0.00    -0.244 NA
ATOM      2  N   UNL     1      34.707 -19.484 -23.091  0.00  0.00    -0.244 NA
ATOM      3  C   UNL     1      34.350 -16.907 -23.914  0.00  0.00    +0.115 C 
ATOM      4  C   UNL     1      35.100 -18.438 -22.360  0.00  0.00    +0.115 C 
ATOM      5  C   UNL     1      34.962 -17.123 -22.696  0.00  0.00    +0.100 C 
ATOM      6  C   UNL     1      34.126 -19.142 -24.256  0.00  0.00    +0.250 C 
ENDROOT
BRANCH   3   9
ATOM      7  O   UNL     1      33.835 -15.347 -25.588  0.00  0.00    -0.269 OA
ATOM      8  N   UNL     1      34.266 -14.517 -23.467  0.00  0.00    -0.296 N 
ATOM      9  C   UNL     1      34.137 -15.554 -24.399  0.00  0.00    +0.260 C 
ATOM     10  H   UNL     1      34.508 -14.750 -22.542  0.00  0.00    +0.150 HD
BRANCH   8  11
ATOM     11  C   UNL     1      34.064 -13.122 -23.789  0.00  0.00    +0.117 C 
BRANCH  11  13
ATOM     12  F   UNL     1      30.779 -10.561 -20.013  0.00  0.00    -0.205 F 
ATOM     13  C   UNL     1      33.186 -12.436 -22.783  0.00  0.00    -0.003 C 
ATOM     14  C   UNL     1      32.822 -11.109 -22.978  0.00  0.00    -0.005 C 
ATOM     15  C   UNL     1      32.006 -10.472 -22.043  0.00  0.00    +0.005 C 
ATOM     16  C   UNL     1      32.747 -13.135 -21.664  0.00  0.00    -0.000 C 
ATOM     17  C   UNL     1      31.561 -11.166 -20.917  0.00  0.00    +0.136 C 
ATOM     18  C   UNL     1      31.931 -12.497 -20.729  0.00  0.00    +0.029 C 
ATOM     19  C   UNL     1      31.612  -9.048 -22.249  0.00  0.00    +0.033 C 
ENDBRANCH  11  13
ENDBRANCH   8  11
ENDBRANCH   3   9
BRANCH   4  22
ATOM     20  O   UNL     1      36.110 -17.896 -20.314  0.00  0.00    -0.269 OA
ATOM     21  N   UNL     1      35.859 -20.150 -20.800  0.00  0.00    -0.296 N 
ATOM     22  C   UNL     1      35.743 -18.793 -21.069  0.00  0.00    +0.260 C 
ATOM     23  H   UNL     1      35.534 -20.794 -21.469  0.00  0.00    +0.150 HD
BRANCH  21  24
ATOM     24  C   UNL     1      36.438 -20.651 -19.579  0.00  0.00    +0.117 C 
BRANCH  24  26
ATOM     25  F   UNL     1      32.743 -23.594 -16.530  0.00  0.00    -0.205 F 
ATOM     26  C   UNL     1      35.460 -21.433 -18.768  0.00  0.00    -0.003 C 
ATOM     27  C   UNL     1      35.857 -22.012 -17.563  0.00  0.00    -0.005 C 
ATOM     28  C   UNL     1      34.942 -22.743 -16.805  0.00  0.00    +0.005 C 
ATOM     29  C   UNL     1      34.147 -21.584 -19.214  0.00  0.00    -0.000 C 
ATOM     30  C   UNL     1      33.630 -22.894 -17.252  0.00  0.00    +0.136 C 
ATOM     31  C   UNL     1      33.232 -22.315 -18.457  0.00  0.00    +0.029 C 
ATOM     32  C   UNL     1      35.371 -23.360 -15.516  0.00  0.00    +0.033 C 
ENDBRANCH  24  26
ENDBRANCH  21  24
ENDBRANCH   4  22
TORSDOF 6
ENDMDL
MODEL 2
REMARK VINA RESULT:     -12.5      0.057      9.759
REMARK  Name = 5289110
REMARK  6 active torsions:
REMARK  status: ('A' for Active; 'I' for Inactive)
REMARK    1  A    between atoms: C_3  and  C_9
REMARK    2  A    between atoms: C_4  and  C_22
REMARK    3  A    between atoms: N_8  and  C_11
REMARK    4  A    between atoms: C_11  and  C_13
REMARK    5  A    between atoms: N_21  and  C_24
REMARK    6  A    between atoms: C_24  and  C_26
REMARK                            x       y       z     vdW  Elec       q    Type
REMARK                         _______ _______ _______ _____ _____    ______ ____
ROOT
ATOM      1  N   UNL     1      34.684 -19.466 -23.129  0.00  0.00    -0.244 NA
ATOM      2  N   UNL     1      33.903 -17.867 -24.754  0.00  0.00    -0.244 NA
ATOM      3  C   UNL     1      35.094 -18.433 -22.364  0.00  0.00    +0.115 C 
ATOM      4  C   UNL     1      34.342 -16.913 -23.928  0.00  0.00    +0.115 C 
ATOM      5  C   UNL     1      34.945 -17.108 -22.721  0.00  0.00    +0.100 C 
ATOM      6  C   UNL     1      34.106 -19.115 -24.294  0.00  0.00    +0.250 C 
ENDROOT
BRANCH   3   9
ATOM      7  O   UNL     1      36.112 -17.906 -20.319  0.00  0.00    -0.269 OA
ATOM      8  N   UNL     1      35.835 -20.154 -20.812  0.00  0.00    -0.296 N 
ATOM      9  C   UNL     1      35.720 -18.789 -21.103  0.00  0.00    +0.260 C 
ATOM     10  H   UNL     1      35.504 -20.800 -21.477  0.00  0.00    +0.150 HD
BRANCH   8  11
ATOM     11  C   UNL     1      36.412 -20.666 -19.590  0.00  0.00    +0.117 C 
BRANCH  11  13
ATOM     12  F   UNL     1      32.677 -23.600 -16.582  0.00  0.00    -0.205 F 
ATOM     13  C   UNL     1      35.417 -21.450 -18.784  0.00  0.00    -0.003 C 
ATOM     14  C   UNL     1      35.806 -22.025 -17.581  0.00  0.00    -0.005 C 
ATOM     15  C   UNL     1      34.881 -22.753 -16.832  0.00  0.00    +0.005 C 
ATOM     16  C   UNL     1      34.115 -21.593 -19.251  0.00  0.00    -0.000 C 
ATOM     17  C   UNL     1      33.572 -22.901 -17.294  0.00  0.00    +0.136 C 
ATOM     18  C   UNL     1      33.190 -22.321 -18.502  0.00  0.00    +0.029 C 
ATOM     19  C   UNL     1      35.293 -23.371 -15.539  0.00  0.00    +0.033 C 
ENDBRANCH  11  13
ENDBRANCH   8  11
ENDBRANCH   3   9
BRANCH   4  22
ATOM     20  O   UNL     1      33.887 -15.342 -25.608  0.00  0.00    -0.269 OA
ATOM     21  N   UNL     1      34.202 -14.525 -23.461  0.00  0.00    -0.296 N 
ATOM     22  C   UNL     1      34.130 -15.527 -24.418  0.00  0.00    +0.260 C 
ATOM     23  H   UNL     1      34.402 -14.774 -22.530  0.00  0.00    +0.150 HD
BRANCH  21  24
ATOM     24  C   UNL     1      33.995 -13.134 -23.776  0.00  0.00    +0.117 C 
BRANCH  24  26
ATOM     25  F   UNL     1      30.813 -10.536 -19.938  0.00  0.00    -0.205 F 
ATOM     26  C   UNL     1      33.150 -12.442 -22.759  0.00  0.00    -0.003 C 
ATOM     27  C   UNL     1      32.811 -11.100 -22.931  0.00  0.00    -0.005 C 
ATOM     28  C   UNL     1      32.022 -10.453 -21.980  0.00  0.00    +0.005 C 
ATOM     29  C   UNL     1      32.700 -13.137 -21.637  0.00  0.00    -0.000 C 
ATOM     30  C   UNL     1      31.572 -11.149 -20.858  0.00  0.00    +0.136 C 
ATOM     31  C   UNL     1      31.912 -12.491 -20.686  0.00  0.00    +0.029 C 
ATOM     32  C   UNL     1      31.660  -9.018 -22.167  0.00  0.00    +0.033 C 
ENDBRANCH  24  26
ENDBRANCH  21  24
ENDBRANCH   4  22
TORSDOF 6
ENDMDL
MODEL 3
REMARK VINA RESULT:     -12.1      1.153      1.778
REMARK  Name = 5289110
REMARK  6 active torsions:
REMARK  status: ('A' for Active; 'I' for Inactive)
REMARK    1  A    between atoms: C_3  and  C_9
REMARK    2  A    between atoms: C_4  and  C_22
REMARK    3  A    between atoms: N_8  and  C_11
REMARK    4  A    between atoms: C_11  and  C_13
REMARK    5  A    between atoms: N_21  and  C_24
REMARK    6  A    between atoms: C_24  and  C_26
REMARK                            x       y       z     vdW  Elec       q    Type
REMARK                         _______ _______ _______ _____ _____    ______ ____
ROOT
ATOM      1  N   UNL     1      33.785 -16.802 -25.049  0.00  0.00    -0.244 NA
ATOM      2  N   UNL     1      34.720 -18.418 -23.525  0.00  0.00    -0.244 NA
ATOM      3  C   UNL     1      34.119 -15.835 -24.171  0.00  0.00    +0.115 C 
ATOM      4  C   UNL     1      35.011 -17.392 -22.721  0.00  0.00    +0.115 C 
ATOM      5  C   UNL     1      34.748 -16.076 -22.966  0.00  0.00    +0.100 C 
ATOM      6  C   UNL     1      34.109 -18.053 -24.668  0.00  0.00    +0.250 C 
ENDROOT
BRANCH   3   9
ATOM      7  O   UNL     1      33.455 -14.220 -25.736  0.00  0.00    -0.269 OA
ATOM      8  N   UNL     1      33.812 -13.500 -23.562  0.00  0.00    -0.296 N 
ATOM      9  C   UNL     1      33.779 -14.479 -24.563  0.00  0.00    +0.260 C 
ATOM     10  H   UNL     1      34.077 -13.772 -22.654  0.00  0.00    +0.150 HD
BRANCH   8  11
ATOM     11  C   UNL     1      33.478 -12.112 -23.788  0.00  0.00    +0.117 C 
BRANCH  11  13
ATOM     12  F   UNL     1      30.893  -9.834 -19.345  0.00  0.00    -0.205 F 
ATOM     13  C   UNL     1      32.787 -11.501 -22.603  0.00  0.00    -0.003 C 
ATOM     14  C   UNL     1      32.676 -10.119 -22.508  0.00  0.00    -0.005 C 
ATOM     15  C   UNL     1      32.034  -9.551 -21.407  0.00  0.00    +0.005 C 
ATOM     16  C   UNL     1      32.267 -12.324 -21.610  0.00  0.00    -0.000 C 
ATOM     17  C   UNL     1      31.510 -10.370 -20.407  0.00  0.00    +0.136 C 
ATOM     18  C   UNL     1      31.626 -11.756 -20.510  0.00  0.00    +0.029 C 
ATOM     19  C   UNL     1      31.911  -8.068 -21.302  0.00  0.00    +0.033 C 
ENDBRANCH  11  13
ENDBRANCH   8  11
ENDBRANCH   3   9
BRANCH   4  22
ATOM     20  O   UNL     1      35.517 -17.079 -20.453  0.00  0.00    -0.269 OA
ATOM     21  N   UNL     1      36.451 -18.929 -21.494  0.00  0.00    -0.296 N 
ATOM     22  C   UNL     1      35.684 -17.773 -21.453  0.00  0.00    +0.260 C 
ATOM     23  H   UNL     1      36.524 -19.418 -22.346  0.00  0.00    +0.150 HD
BRANCH  21  24
ATOM     24  C   UNL     1      37.145 -19.441 -20.340  0.00  0.00    +0.117 C 
BRANCH  24  26
ATOM     25  F   UNL     1      34.032 -23.091 -17.408  0.00  0.00    -0.205 F 
ATOM     26  C   UNL     1      36.316 -20.409 -19.564  0.00  0.00    -0.003 C 
ATOM     27  C   UNL     1      34.959 -20.554 -19.852  0.00  0.00    -0.005 C 
ATOM     28  C   UNL     1      34.185 -21.459 -19.125  0.00  0.00    +0.005 C 
ATOM     29  C   UNL     1      36.899 -21.170 -18.550  0.00  0.00    -0.000 C 
ATOM     30  C   UNL     1      34.768 -22.219 -18.111  0.00  0.00    +0.136 C 
ATOM     31  C   UNL     1      36.125 -22.074 -17.823  0.00  0.00    +0.029 C 
ATOM     32  C   UNL     1      32.734 -21.612 -19.436  0.00  0.00    +0.033 C 
ENDBRANCH  24  26
ENDBRANCH  21  24
ENDBRANCH   4  22
TORSDOF 6
ENDMDL
MODEL 4
REMARK VINA RESULT:     -12.1      2.305      3.155
REMARK  Name = 5289110
REMARK  6 active torsions:
REMARK  status: ('A' for Active; 'I' for Inactive)
REMARK    1  A    between atoms: C_3  and  C_9
REMARK    2  A    between atoms: C_4  and  C_22
REMARK    3  A    between atoms: N_8  and  C_11
REMARK    4  A    between atoms: C_11  and  C_13
REMARK    5  A    between atoms: N_21  and  C_24
REMARK    6  A    between atoms: C_24  and  C_26
REMARK                            x       y       z     vdW  Elec       q    Type
REMARK                         _______ _______ _______ _____ _____    ______ ____
ROOT
ATOM      1  N   UNL     1      34.021 -13.867 -21.294  0.00  0.00    -0.244 NA
ATOM      2  N   UNL     1      34.896 -15.928 -20.403  0.00  0.00    -0.244 NA
ATOM      3  C   UNL     1      34.229 -14.357 -22.533  0.00  0.00    +0.115 C 
ATOM      4  C   UNL     1      35.065 -16.325 -21.667  0.00  0.00    +0.115 C 
ATOM      5  C   UNL     1      34.759 -15.607 -22.785  0.00  0.00    +0.100 C 
ATOM      6  C   UNL     1      34.372 -14.693 -20.290  0.00  0.00    +0.250 C 
ENDROOT
BRANCH   3   9
ATOM      7  O   UNL     1      33.229 -13.926 -24.610  0.00  0.00    -0.269 OA
ATOM      8  N   UNL     1      34.215 -12.133 -23.519  0.00  0.00    -0.296 N 
ATOM      9  C   UNL     1      33.856 -13.483 -23.631  0.00  0.00    +0.260 C 
ATOM     10  H   UNL     1      34.711 -11.849 -22.718  0.00  0.00    +0.150 HD
BRANCH   8  11
ATOM     11  C   UNL     1      33.897 -11.135 -24.515  0.00  0.00    +0.117 C 
BRANCH  11  13
ATOM     12  F   UNL     1      33.635  -5.970 -22.309  0.00  0.00    -0.205 F 
ATOM     13  C   UNL     1      33.824  -9.756 -23.924  0.00  0.00    -0.003 C 
ATOM     14  C   UNL     1      32.599  -9.251 -23.505  0.00  0.00    -0.005 C 
ATOM     15  C   UNL     1      32.532  -7.970 -22.957  0.00  0.00    +0.005 C 
ATOM     16  C   UNL     1      34.983  -8.998 -23.804  0.00  0.00    -0.000 C 
ATOM     17  C   UNL     1      33.691  -7.202 -22.833  0.00  0.00    +0.136 C 
ATOM     18  C   UNL     1      34.916  -7.717 -23.256  0.00  0.00    +0.029 C 
ATOM     19  C   UNL     1      31.220  -7.423 -22.504  0.00  0.00    +0.033 C 
ENDBRANCH  11  13
ENDBRANCH   8  11
ENDBRANCH   3   9
BRANCH   4  22
ATOM     20  O   UNL     1      35.679 -18.205 -22.927  0.00  0.00    -0.269 OA
ATOM     21  N   UNL     1      36.135 -18.267 -20.654  0.00  0.00    -0.296 N 
ATOM     22  C   UNL     1      35.644 -17.685 -21.815  0.00  0.00    +0.260 C 
ATOM     23  H   UNL     1      36.061 -17.770 -19.808  0.00  0.00    +0.150 HD
BRANCH  21  24
ATOM     24  C   UNL     1      36.748 -19.571 -20.640  0.00  0.00    +0.117 C 
BRANCH  24  26
ATOM     25  F   UNL     1      34.187 -23.090 -17.081  0.00  0.00    -0.205 F 
ATOM     26  C   UNL     1      36.071 -20.505 -19.693  0.00  0.00    -0.003 C 
ATOM     27  C   UNL     1      36.766 -21.011 -18.595  0.00  0.00    -0.005 C 
ATOM     28  C   UNL     1      36.132 -21.884 -17.711  0.00  0.00    +0.005 C 
ATOM     29  C   UNL     1      34.742 -20.872 -19.907  0.00  0.00    -0.000 C 
ATOM     30  C   UNL     1      34.804 -22.251 -17.925  0.00  0.00    +0.136 C 
ATOM     31  C   UNL     1      34.109 -21.746 -19.024  0.00  0.00    +0.029 C 
ATOM     32  C   UNL     1      36.878 -22.423 -16.537  0.00  0.00    +0.033 C 
ENDBRANCH  24  26
ENDBRANCH  21  24
ENDBRANCH   4  22
TORSDOF 6
ENDMDL
MODEL 5
REMARK VINA RESULT:     -12.1      2.297     10.963
REMARK  Name = 5289110
REMARK  6 active torsions:
REMARK  status: ('A' for Active; 'I' for Inactive)
REMARK    1  A    between atoms: C_3  and  C_9
REMARK    2  A    between atoms: C_4  and  C_22
REMARK    3  A    between atoms: N_8  and  C_11
REMARK    4  A    between atoms: C_11  and  C_13
REMARK    5  A    between atoms: N_21  and  C_24
REMARK    6  A    between atoms: C_24  and  C_26
REMARK                            x       y       z     vdW  Elec       q    Type
REMARK                         _______ _______ _______ _____ _____    ______ ____
ROOT
ATOM      1  N   UNL     1      34.936 -15.959 -20.400  0.00  0.00    -0.244 NA
ATOM      2  N   UNL     1      34.079 -13.903 -21.320  0.00  0.00    -0.244 NA
ATOM      3  C   UNL     1      35.095 -16.413 -21.660  0.00  0.00    +0.115 C 
ATOM      4  C   UNL     1      34.273 -14.440 -22.527  0.00  0.00    +0.115 C 
ATOM      5  C   UNL     1      34.775 -15.681 -22.786  0.00  0.00    +0.100 C 
ATOM      6  C   UNL     1      34.430 -14.714 -20.305  0.00  0.00    +0.250 C 
ENDROOT
BRANCH   3   9
ATOM      7  O   UNL     1      35.636 -18.339 -22.884  0.00  0.00    -0.269 OA
ATOM      8  N   UNL     1      36.180 -18.332 -20.630  0.00  0.00    -0.296 N 
ATOM      9  C   UNL     1      35.640 -17.754 -21.786  0.00  0.00    +0.260 C 
ATOM     10  H   UNL     1      36.151 -17.814 -19.794  0.00  0.00    +0.150 HD
BRANCH   8  11
ATOM     11  C   UNL     1      36.779 -19.647 -20.598  0.00  0.00    +0.117 C 
BRANCH  11  13
ATOM     12  F   UNL     1      34.075 -23.100 -17.080  0.00  0.00    -0.205 F 
ATOM     13  C   UNL     1      36.059 -20.568 -19.656  0.00  0.00    -0.003 C 
ATOM     14  C   UNL     1      36.722 -21.070 -18.543  0.00  0.00    -0.005 C 
ATOM     15  C   UNL     1      36.053 -21.927 -17.668  0.00  0.00    +0.005 C 
ATOM     16  C   UNL     1      34.735 -20.912 -19.908  0.00  0.00    -0.000 C 
ATOM     17  C   UNL     1      34.725 -22.276 -17.914  0.00  0.00    +0.136 C 
ATOM     18  C   UNL     1      34.067 -21.768 -19.033  0.00  0.00    +0.029 C 
ATOM     19  C   UNL     1      36.760 -22.467 -16.471  0.00  0.00    +0.033 C 
ENDBRANCH  11  13
ENDBRANCH   8  11
ENDBRANCH   3   9
BRANCH   4  22
ATOM     20  O   UNL     1      33.364 -14.058 -24.655  0.00  0.00    -0.269 OA
ATOM     21  N   UNL     1      34.144 -12.207 -23.496  0.00  0.00    -0.296 N 
ATOM     22  C   UNL     1      33.891 -13.561 -23.663  0.00  0.00    +0.260 C 
ATOM     23  H   UNL     1      34.571 -11.904 -22.662  0.00  0.00    +0.150 HD
BRANCH  21  24
ATOM     24  C   UNL     1      33.807 -11.226 -24.497  0.00  0.00    +0.117 C 
BRANCH  24  26
ATOM     25  F   UNL     1      33.733  -6.000 -22.425  0.00  0.00    -0.205 F 
ATOM     26  C   UNL     1      33.784  -9.839 -23.946  0.00  0.00    -0.003 C 
ATOM     27  C   UNL     1      32.589  -9.294 -23.477  0.00  0.00    -0.005 C 
ATOM     28  C   UNL     1      32.569  -7.998 -22.963  0.00  0.00    +0.005 C 
ATOM     29  C   UNL     1      34.959  -9.088 -23.900  0.00  0.00    -0.000 C 
ATOM     30  C   UNL     1      33.743  -7.247 -22.918  0.00  0.00    +0.136 C 
ATOM     31  C   UNL     1      34.938  -7.792 -23.387  0.00  0.00    +0.029 C 
ATOM     32  C   UNL     1      31.289  -7.418 -22.462  0.00  0.00    +0.033 C 
ENDBRANCH  24  26
ENDBRANCH  21  24
ENDBRANCH   4  22
TORSDOF 6
ENDMDL
MODEL 6
REMARK VINA RESULT:     -12.0      1.173      9.619
REMARK  Name = 5289110
REMARK  6 active torsions:
REMARK  status: ('A' for Active; 'I' for Inactive)
REMARK    1  A    between atoms: C_3  and  C_9
REMARK    2  A    between atoms: C_4  and  C_22
REMARK    3  A    between atoms: N_8  and  C_11
REMARK    4  A    between atoms: C_11  and  C_13
REMARK    5  A    between atoms: N_21  and  C_24
REMARK    6  A    between atoms: C_24  and  C_26
REMARK                            x       y       z     vdW  Elec       q    Type
REMARK                         _______ _______ _______ _____ _____    ______ ____
ROOT
ATOM      1  N   UNL     1      34.730 -18.385 -23.586  0.00  0.00    -0.244 NA
ATOM      2  N   UNL     1      33.775 -16.768 -25.095  0.00  0.00    -0.244 NA
ATOM      3  C   UNL     1      35.024 -17.373 -22.745  0.00  0.00    +0.115 C 
ATOM      4  C   UNL     1      34.106 -15.835 -24.198  0.00  0.00    +0.115 C 
ATOM      5  C   UNL     1      34.729 -16.049 -23.005  0.00  0.00    +0.100 C 
ATOM      6  C   UNL     1      34.115 -18.017 -24.726  0.00  0.00    +0.250 C 
ENDROOT
BRANCH   3   9
ATOM      7  O   UNL     1      35.552 -17.060 -20.482  0.00  0.00    -0.269 OA
ATOM      8  N   UNL     1      36.457 -18.919 -21.530  0.00  0.00    -0.296 N 
ATOM      9  C   UNL     1      35.688 -17.749 -21.509  0.00  0.00    +0.260 C 
ATOM     10  H   UNL     1      36.522 -19.417 -22.376  0.00  0.00    +0.150 HD
BRANCH   8  11
ATOM     11  C   UNL     1      37.158 -19.437 -20.377  0.00  0.00    +0.117 C 
BRANCH  11  13
ATOM     12  F   UNL     1      34.014 -23.054 -17.438  0.00  0.00    -0.205 F 
ATOM     13  C   UNL     1      36.316 -20.403 -19.595  0.00  0.00    -0.003 C 
ATOM     14  C   UNL     1      34.963 -20.530 -19.887  0.00  0.00    -0.005 C 
ATOM     15  C   UNL     1      34.181 -21.428 -19.159  0.00  0.00    +0.005 C 
ATOM     16  C   UNL     1      36.898 -21.159 -18.584  0.00  0.00    -0.000 C 
ATOM     17  C   UNL     1      34.758 -22.190 -18.143  0.00  0.00    +0.136 C 
ATOM     18  C   UNL     1      36.116 -22.056 -17.856  0.00  0.00    +0.029 C 
ATOM     19  C   UNL     1      32.729 -21.569 -19.470  0.00  0.00    +0.033 C 
ENDBRANCH  11  13
ENDBRANCH   8  11
ENDBRANCH   3   9
BRANCH   4  22
ATOM     20  O   UNL     1      33.418 -14.216 -25.750  0.00  0.00    -0.269 OA
ATOM     21  N   UNL     1      33.771 -13.503 -23.572  0.00  0.00    -0.296 N 
ATOM     22  C   UNL     1      33.740 -14.448 -24.587  0.00  0.00    +0.260 C 
ATOM     23  H   UNL     1      34.044 -13.787 -22.669  0.00  0.00    +0.150 HD
BRANCH  21  24
ATOM     24  C   UNL     1      33.420 -12.122 -23.786  0.00  0.00    +0.117 C 
BRANCH  24  26
ATOM     25  F   UNL     1      30.901  -9.849 -19.304  0.00  0.00    -0.205 F 
ATOM     26  C   UNL     1      32.752 -11.516 -22.598  0.00  0.00    -0.003 C 
ATOM     27  C   UNL     1      32.649 -10.129 -22.487  0.00  0.00    -0.005 C 
ATOM     28  C   UNL     1      32.025  -9.563 -21.375  0.00  0.00    +0.005 C 
ATOM     29  C   UNL     1      32.229 -12.336 -21.598  0.00  0.00    -0.000 C 
ATOM     30  C   UNL     1      31.503 -10.384 -20.375  0.00  0.00    +0.136 C 
ATOM     31  C   UNL     1      31.606 -11.770 -20.486  0.00  0.00    +0.029 C 
ATOM     32  C   UNL     1      31.917  -8.080 -21.260  0.00  0.00    +0.033 C 
ENDBRANCH  24  26
ENDBRANCH  21  24
ENDBRANCH   4  22
TORSDOF 6
ENDMDL
MODEL 7
REMARK VINA RESULT:     -11.8      2.273     10.439
REMARK  Name = 5289110
REMARK  6 active torsions:
REMARK  status: ('A' for Active; 'I' for Inactive)
REMARK    1  A    between atoms: C_3  and  C_9
REMARK    2  A    between atoms: C_4  and  C_22
REMARK    3  A    between atoms: N_8  and  C_11
REMARK    4  A    between atoms: C_11  and  C_13
REMARK    5  A    between atoms: N_21  and  C_24
REMARK    6  A    between atoms: C_24  and  C_26
REMARK                            x       y       z     vdW  Elec       q    Type
REMARK                         _______ _______ _______ _____ _____    ______ ____
ROOT
ATOM      1  N   UNL     1      33.991 -15.054 -25.009  0.00  0.00    -0.244 NA
ATOM      2  N   UNL     1      33.002 -13.144 -23.921  0.00  0.00    -0.244 NA
ATOM      3  C   UNL     1      34.173 -15.606 -23.792  0.00  0.00    +0.115 C 
ATOM      4  C   UNL     1      33.224 -13.772 -22.764  0.00  0.00    +0.115 C 
ATOM      5  C   UNL     1      33.801 -14.998 -22.610  0.00  0.00    +0.100 C 
ATOM      6  C   UNL     1      33.409 -13.839 -25.000  0.00  0.00    +0.250 C 
ENDROOT
BRANCH   3   9
ATOM      7  O   UNL     1      34.712 -17.671 -24.764  0.00  0.00    -0.269 OA
ATOM      8  N   UNL     1      35.511 -17.269 -22.625  0.00  0.00    -0.296 N 
ATOM      9  C   UNL     1      34.799 -16.916 -23.779  0.00  0.00    +0.260 C 
ATOM     10  H   UNL     1      35.540 -16.626 -21.882  0.00  0.00    +0.150 HD
BRANCH   8  11
ATOM     11  C   UNL     1      36.207 -18.526 -22.468  0.00  0.00    +0.117 C 
BRANCH  11  13
ATOM     12  F   UNL     1      33.763 -21.806 -18.611  0.00  0.00    -0.205 F 
ATOM     13  C   UNL     1      35.557 -19.402 -21.435  0.00  0.00    -0.003 C 
ATOM     14  C   UNL     1      36.339 -20.024 -20.469  0.00  0.00    -0.005 C 
ATOM     15  C   UNL     1      35.735 -20.838 -19.511  0.00  0.00    +0.005 C 
ATOM     16  C   UNL     1      34.179 -19.584 -21.458  0.00  0.00    -0.000 C 
ATOM     17  C   UNL     1      34.352 -21.025 -19.526  0.00  0.00    +0.136 C 
ATOM     18  C   UNL     1      33.575 -20.398 -20.499  0.00  0.00    +0.029 C 
ATOM     19  C   UNL     1      36.570 -21.506 -18.471  0.00  0.00    +0.033 C 
ENDBRANCH  11  13
ENDBRANCH   8  11
ENDBRANCH   3   9
BRANCH   4  22
ATOM     20  O   UNL     1      33.147 -13.401 -20.449  0.00  0.00    -0.269 OA
ATOM     21  N   UNL     1      31.996 -11.903 -21.794  0.00  0.00    -0.296 N 
ATOM     22  C   UNL     1      32.784 -13.021 -21.560  0.00  0.00    +0.260 C 
ATOM     23  H   UNL     1      31.758 -11.678 -22.723  0.00  0.00    +0.150 HD
BRANCH  21  24
ATOM     24  C   UNL     1      31.511 -11.059 -20.732  0.00  0.00    +0.117 C 
BRANCH  24  26
ATOM     25  F   UNL     1      32.499  -5.610 -21.703  0.00  0.00    -0.205 F 
ATOM     26  C   UNL     1      31.772  -9.613 -20.993  0.00  0.00    -0.003 C 
ATOM     27  C   UNL     1      31.551  -9.082 -22.263  0.00  0.00    -0.005 C 
ATOM     28  C   UNL     1      31.796  -7.730 -22.506  0.00  0.00    +0.005 C 
ATOM     29  C   UNL     1      32.237  -8.792 -19.965  0.00  0.00    -0.000 C 
ATOM     30  C   UNL     1      32.261  -6.910 -21.478  0.00  0.00    +0.136 C 
ATOM     31  C   UNL     1      32.482  -7.441 -20.208  0.00  0.00    +0.029 C 
ATOM     32  C   UNL     1      31.558  -7.166 -23.866  0.00  0.00    +0.033 C 
ENDBRANCH  24  26
ENDBRANCH  21  24
ENDBRANCH   4  22
TORSDOF 6
ENDMDL
MODEL 8
REMARK VINA RESULT:     -11.8      2.224      3.808
REMARK  Name = 5289110
REMARK  6 active torsions:
REMARK  status: ('A' for Active; 'I' for Inactive)
REMARK    1  A    between atoms: C_3  and  C_9
REMARK    2  A    between atoms: C_4  and  C_22
REMARK    3  A    between atoms: N_8  and  C_11
REMARK    4  A    between atoms: C_11  and  C_13
REMARK    5  A    between atoms: N_21  and  C_24
REMARK    6  A    between atoms: C_24  and  C_26
REMARK                            x       y       z     vdW  Elec       q    Type
REMARK                         _______ _______ _______ _____ _____    ______ ____
ROOT
ATOM      1  N   UNL     1      32.981 -13.252 -23.944  0.00  0.00    -0.244 NA
ATOM      2  N   UNL     1      33.962 -15.174 -25.017  0.00  0.00    -0.244 NA
ATOM      3  C   UNL     1      33.213 -13.843 -22.755  0.00  0.00    +0.115 C 
ATOM      4  C   UNL     1      34.150 -15.677 -23.794  0.00  0.00    +0.115 C 
ATOM      5  C   UNL     1      33.808 -15.082 -22.617  0.00  0.00    +0.100 C 
ATOM      6  C   UNL     1      33.374 -13.963 -25.019  0.00  0.00    +0.250 C 
ENDROOT
BRANCH   3   9
ATOM      7  O   UNL     1      33.364 -13.261 -20.488  0.00  0.00    -0.269 OA
ATOM      8  N   UNL     1      31.756 -12.172 -21.753  0.00  0.00    -0.296 N 
ATOM      9  C   UNL     1      32.797 -13.094 -21.583  0.00  0.00    +0.260 C 
ATOM     10  H   UNL     1      31.351 -12.089 -22.646  0.00  0.00    +0.150 HD
BRANCH   8  11
ATOM     11  C   UNL     1      31.245 -11.336 -20.691  0.00  0.00    +0.117 C 
BRANCH  11  13
ATOM     12  F   UNL     1      32.725  -5.952 -21.350  0.00  0.00    -0.205 F 
ATOM     13  C   UNL     1      31.639  -9.898 -20.870  0.00  0.00    -0.003 C 
ATOM     14  C   UNL     1      31.598  -9.325 -22.136  0.00  0.00    -0.005 C 
ATOM     15  C   UNL     1      31.964  -7.989 -22.302  0.00  0.00    +0.005 C 
ATOM     16  C   UNL     1      32.042  -9.154 -19.767  0.00  0.00    -0.000 C 
ATOM     17  C   UNL     1      32.370  -7.236 -21.200  0.00  0.00    +0.136 C 
ATOM     18  C   UNL     1      32.408  -7.818 -19.933  0.00  0.00    +0.029 C 
ATOM     19  C   UNL     1      31.921  -7.370 -23.658  0.00  0.00    +0.033 C 
ENDBRANCH  11  13
ENDBRANCH   8  11
ENDBRANCH   3   9
BRANCH   4  22
ATOM     20  O   UNL     1      34.728 -17.732 -24.766  0.00  0.00    -0.269 OA
ATOM     21  N   UNL     1      35.464 -17.348 -22.601  0.00  0.00    -0.296 N 
ATOM     22  C   UNL     1      34.796 -17.015 -23.771  0.00  0.00    +0.260 C 
ATOM     23  H   UNL     1      35.462 -16.704 -21.855  0.00  0.00    +0.150 HD
BRANCH  21  24
ATOM     24  C   UNL     1      36.160 -18.598 -22.433  0.00  0.00    +0.117 C 
BRANCH  24  26
ATOM     25  F   UNL     1      33.793 -21.841 -18.498  0.00  0.00    -0.205 F 
ATOM     26  C   UNL     1      35.535 -19.460 -21.388  0.00  0.00    -0.003 C 
ATOM     27  C   UNL     1      36.334 -20.093 -20.436  0.00  0.00    -0.005 C 
ATOM     28  C   UNL     1      35.748 -20.898 -19.459  0.00  0.00    +0.005 C 
ATOM     29  C   UNL     1      34.151 -19.631 -21.361  0.00  0.00    -0.000 C 
ATOM     30  C   UNL     1      34.365 -21.069 -19.433  0.00  0.00    +0.136 C 
ATOM     31  C   UNL     1      33.566 -20.436 -20.385  0.00  0.00    +0.029 C 
ATOM     32  C   UNL     1      36.606 -21.573 -18.442  0.00  0.00    +0.033 C 
ENDBRANCH  24  26
ENDBRANCH  21  24
ENDBRANCH   4  22
TORSDOF 6
ENDMDL
MODEL 9
REMARK VINA RESULT:     -11.8      6.160     11.132
REMARK  Name = 5289110
REMARK  6 active torsions:
REMARK  status: ('A' for Active; 'I' for Inactive)
REMARK    1  A    between atoms: C_3  and  C_9
REMARK    2  A    between atoms: C_4  and  C_22
REMARK    3  A    between atoms: N_8  and  C_11
REMARK    4  A    between atoms: C_11  and  C_13
REMARK    5  A    between atoms: N_21  and  C_24
REMARK    6  A    between atoms: C_24  and  C_26
REMARK                            x       y       z     vdW  Elec       q    Type
REMARK                         _______ _______ _______ _____ _____    ______ ____
ROOT
ATOM      1  N   UNL     1      36.632 -24.674 -12.867  0.00  0.00    -0.244 NA
ATOM      2  N   UNL     1      38.065 -23.679 -14.530  0.00  0.00    -0.244 NA
ATOM      3  C   UNL     1      35.627 -23.900 -13.324  0.00  0.00    +0.115 C 
ATOM      4  C   UNL     1      37.009 -22.956 -14.912  0.00  0.00    +0.115 C 
ATOM      5  C   UNL     1      35.760 -23.004 -14.367  0.00  0.00    +0.100 C 
ATOM      6  C   UNL     1      37.807 -24.514 -13.506  0.00  0.00    +0.250 C 
ENDROOT
BRANCH   3   9
ATOM      7  O   UNL     1      34.261 -24.733 -11.609  0.00  0.00    -0.269 OA
ATOM      8  N   UNL     1      33.249 -23.397 -13.211  0.00  0.00    -0.296 N 
ATOM      9  C   UNL     1      34.350 -24.056 -12.650  0.00  0.00    +0.260 C 
ATOM     10  H   UNL     1      33.389 -22.878 -14.035  0.00  0.00    +0.150 HD
BRANCH   8  11
ATOM     11  C   UNL     1      31.919 -23.437 -12.646  0.00  0.00    +0.117 C 
BRANCH  11  13
ATOM     12  F   UNL     1      28.089 -25.122 -16.400  0.00  0.00    -0.205 F 
ATOM     13  C   UNL     1      30.896 -23.884 -13.650  0.00  0.00    -0.003 C 
ATOM     14  C   UNL     1      30.052 -22.948 -14.237  0.00  0.00    -0.005 C 
ATOM     15  C   UNL     1      29.102 -23.363 -15.169  0.00  0.00    +0.005 C 
ATOM     16  C   UNL     1      30.800 -25.231 -13.981  0.00  0.00    -0.000 C 
ATOM     17  C   UNL     1      29.000 -24.713 -15.507  0.00  0.00    +0.136 C 
ATOM     18  C   UNL     1      29.850 -25.646 -14.914  0.00  0.00    +0.029 C 
ATOM     19  C   UNL     1      28.195 -22.362 -15.803  0.00  0.00    +0.033 C 
ENDBRANCH  11  13
ENDBRANCH   8  11
ENDBRANCH   3   9
BRANCH   4  22
ATOM     20  O   UNL     1      38.027 -21.072 -15.867  0.00  0.00    -0.269 OA
ATOM     21  N   UNL     1      36.648 -22.334 -17.241  0.00  0.00    -0.296 N 
ATOM     22  C   UNL     1      37.273 -22.027 -16.040  0.00  0.00    +0.260 C 
ATOM     23  H   UNL     1      36.061 -23.123 -17.280  0.00  0.00    +0.150 HD
BRANCH  21  24
ATOM     24  C   UNL     1      36.825 -21.542 -18.431  0.00  0.00    +0.117 C 
BRANCH  24  26
ATOM     25  F   UNL     1      31.937 -20.368 -20.948  0.00  0.00    -0.205 F 
ATOM     26  C   UNL     1      35.529 -21.229 -19.102  0.00  0.00    -0.003 C 
ATOM     27  C   UNL     1      35.512 -20.444 -20.254  0.00  0.00    -0.005 C 
ATOM     28  C   UNL     1      34.300 -20.151 -20.880  0.00  0.00    +0.005 C 
ATOM     29  C   UNL     1      34.335 -21.722 -18.576  0.00  0.00    -0.000 C 
ATOM     30  C   UNL     1      33.106 -20.644 -20.353  0.00  0.00    +0.136 C 
ATOM     31  C   UNL     1      33.124 -21.429 -19.200  0.00  0.00    +0.029 C 
ATOM     32  C   UNL     1      34.285 -19.312 -22.113  0.00  0.00    +0.033 C 
ENDBRANCH  24  26
ENDBRANCH  21  24
ENDBRANCH   4  22
TORSDOF 6
ENDMDL
