MODEL 1
REMARK VINA RESULT:     -12.1      0.000      0.000
REMARK  Name = 60149
REMARK  5 active torsions:
REMARK  status: ('A' for Active; 'I' for Inactive)
REMARK    1  A    between atoms: N_2  and  C_12
REMARK    2  A    between atoms: C_3  and  C_19
REMARK    3  A    between atoms: N_18  and  C_25
REMARK    4  A    between atoms: C_25  and  C_26
REMARK    5  A    between atoms: C_26  and  N_28
REMARK                            x       y       z     vdW  Elec       q    Type
REMARK                         _______ _______ _______ _____ _____    ______ ____
ROOT
ATOM      1 CL   UNL     1      29.046 -22.942 -15.970  0.00  0.00    -0.082 Cl
ATOM      2  N   UNL     1      34.815 -23.573 -15.294  0.00  0.00    -0.265 N 
ATOM      3  C   UNL     1      34.191 -22.740 -17.249  0.00  0.00    -0.006 C 
ATOM      4  C   UNL     1      33.021 -22.980 -16.482  0.00  0.00    +0.012 C 
ATOM      5  C   UNL     1      35.277 -23.112 -16.498  0.00  0.00    +0.065 C 
ATOM      6  C   UNL     1      33.440 -23.503 -15.257  0.00  0.00    +0.055 C 
ATOM      7  C   UNL     1      31.641 -22.804 -16.707  0.00  0.00    +0.012 C 
ATOM      8  C   UNL     1      32.544 -23.860 -14.242  0.00  0.00    +0.016 C 
ATOM      9  C   UNL     1      30.735 -23.157 -15.702  0.00  0.00    +0.058 C 
ATOM     10  C   UNL     1      31.181 -23.677 -14.488  0.00  0.00    +0.013 C 
ENDROOT
BRANCH   2  12
ATOM     11  F   UNL     1      38.059 -25.410 -11.236  0.00  0.00    -0.204 F 
ATOM     12  C   UNL     1      35.638 -24.039 -14.266  0.00  0.00    +0.056 C 
ATOM     13  C   UNL     1      36.056 -23.161 -13.276  0.00  0.00    +0.017 C 
ATOM     14  C   UNL     1      36.022 -25.372 -14.251  0.00  0.00    +0.017 C 
ATOM     15  C   UNL     1      36.879 -23.626 -12.249  0.00  0.00    +0.031 C 
ATOM     16  C   UNL     1      36.845 -25.836 -13.224  0.00  0.00    +0.031 C 
ATOM     17  C   UNL     1      37.272 -24.964 -12.222  0.00  0.00    +0.140 C 
ENDBRANCH   2  12
BRANCH   3  19
ATOM     18  N   UNL     1      34.433 -19.972 -20.578  0.00  0.00    +0.388 N 
ATOM     19  C   UNL     1      34.242 -22.175 -18.651  0.00  0.00    +0.019 C 
ATOM     20  C   UNL     1      33.059 -21.242 -18.959  0.00  0.00    -0.018 C 
ATOM     21  C   UNL     1      35.566 -21.455 -18.953  0.00  0.00    -0.018 C 
ATOM     22  C   UNL     1      33.157 -20.671 -20.375  0.00  0.00    -0.077 C 
ATOM     23  C   UNL     1      35.572 -20.875 -20.370  0.00  0.00    -0.077 C 
ATOM     24  H   UNL     1      34.495 -19.223 -19.888  0.00  0.00    -0.080 HD
BRANCH  18  25
ATOM     25  C   UNL     1      34.486 -19.383 -21.917  0.00  0.00    -0.055 C 
BRANCH  25  26
ATOM     26  C   UNL     1      35.520 -18.267 -21.962  0.00  0.00    +0.077 C 
BRANCH  26  28
ATOM     27  O   UNL     1      34.451 -18.097 -24.767  0.00  0.00    -0.252 OA
ATOM     28  N   UNL     1      35.027 -17.131 -22.692  0.00  0.00    -0.243 N 
ATOM     29  N   UNL     1      34.133 -15.824 -24.307  0.00  0.00    -0.266 N 
ATOM     30  C   UNL     1      34.902 -15.814 -22.090  0.00  0.00    +0.085 C 
ATOM     31  C   UNL     1      34.411 -14.921 -23.219  0.00  0.00    +0.082 C 
ATOM     32  C   UNL     1      34.530 -17.137 -24.010  0.00  0.00    +0.311 C 
ATOM     33  H   UNL     1      33.715 -15.552 -25.156  0.00  0.00    +0.157 HD
ENDBRANCH  26  28
ENDBRANCH  25  26
ENDBRANCH  18  25
ENDBRANCH   3  19
TORSDOF 5
ENDMDL
MODEL 2
REMARK VINA RESULT:     -11.2      2.804      4.324
REMARK  Name = 60149
REMARK  5 active torsions:
REMARK  status: ('A' for Active; 'I' for Inactive)
REMARK    1  A    between atoms: N_2  and  C_12
REMARK    2  A    between atoms: C_3  and  C_19
REMARK    3  A    between atoms: N_18  and  C_25
REMARK    4  A    between atoms: C_25  and  C_26
REMARK    5  A    between atoms: C_26  and  N_28
REMARK                            x       y       z     vdW  Elec       q    Type
REMARK                         _______ _______ _______ _____ _____    ______ ____
ROOT
ATOM      1 CL   UNL     1      38.488 -23.299 -14.874  0.00  0.00    -0.082 Cl
ATOM      2  N   UNL     1      32.842 -23.246 -16.375  0.00  0.00    -0.265 N 
ATOM      3  C   UNL     1      34.211 -22.350 -17.867  0.00  0.00    -0.006 C 
ATOM      4  C   UNL     1      34.992 -22.794 -16.767  0.00  0.00    +0.012 C 
ATOM      5  C   UNL     1      32.896 -22.639 -17.601  0.00  0.00    +0.065 C 
ATOM      6  C   UNL     1      34.107 -23.354 -15.843  0.00  0.00    +0.055 C 
ATOM      7  C   UNL     1      36.368 -22.776 -16.464  0.00  0.00    +0.012 C 
ATOM      8  C   UNL     1      34.532 -23.900 -14.626  0.00  0.00    +0.016 C 
ATOM      9  C   UNL     1      36.806 -23.317 -15.251  0.00  0.00    +0.058 C 
ATOM     10  C   UNL     1      35.901 -23.870 -14.347  0.00  0.00    +0.013 C 
ENDROOT
BRANCH   2  12
ATOM     11  F   UNL     1      28.186 -24.987 -13.994  0.00  0.00    -0.204 F 
ATOM     12  C   UNL     1      31.661 -23.688 -15.772  0.00  0.00    +0.056 C 
ATOM     13  C   UNL     1      31.719 -24.683 -14.807  0.00  0.00    +0.017 C 
ATOM     14  C   UNL     1      30.451 -23.123 -16.147  0.00  0.00    +0.017 C 
ATOM     15  C   UNL     1      30.540 -25.125 -14.205  0.00  0.00    +0.031 C 
ATOM     16  C   UNL     1      29.272 -23.564 -15.545  0.00  0.00    +0.031 C 
ATOM     17  C   UNL     1      29.317 -24.564 -14.573  0.00  0.00    +0.140 C 
ENDBRANCH   2  12
BRANCH   3  19
ATOM     18  N   UNL     1      35.635 -19.338 -20.643  0.00  0.00    +0.388 N 
ATOM     19  C   UNL     1      34.729 -21.673 -19.117  0.00  0.00    +0.019 C 
ATOM     20  C   UNL     1      33.755 -20.618 -19.667  0.00  0.00    -0.018 C 
ATOM     21  C   UNL     1      36.119 -21.048 -18.921  0.00  0.00    -0.018 C 
ATOM     22  C   UNL     1      34.322 -19.938 -20.916  0.00  0.00    -0.077 C 
ATOM     23  C   UNL     1      36.599 -20.351 -20.197  0.00  0.00    -0.077 C 
ATOM     24  H   UNL     1      35.520 -18.659 -19.891  0.00  0.00    -0.080 HD
BRANCH  18  25
ATOM     25  C   UNL     1      36.136 -18.643 -21.830  0.00  0.00    -0.055 C 
BRANCH  25  26
ATOM     26  C   UNL     1      35.073 -18.625 -22.918  0.00  0.00    +0.077 C 
BRANCH  26  28
ATOM     27  O   UNL     1      33.330 -17.621 -25.152  0.00  0.00    -0.252 OA
ATOM     28  N   UNL     1      34.711 -17.278 -23.270  0.00  0.00    -0.243 N 
ATOM     29  N   UNL     1      33.772 -15.491 -24.288  0.00  0.00    -0.266 N 
ATOM     30  C   UNL     1      35.118 -16.132 -22.476  0.00  0.00    +0.085 C 
ATOM     31  C   UNL     1      34.579 -14.929 -23.235  0.00  0.00    +0.082 C 
ATOM     32  C   UNL     1      33.875 -16.890 -24.334  0.00  0.00    +0.311 C 
ATOM     33  H   UNL     1      33.216 -14.957 -24.901  0.00  0.00    +0.157 HD
ENDBRANCH  26  28
ENDBRANCH  25  26
ENDBRANCH  18  25
ENDBRANCH   3  19
TORSDOF 5
ENDMDL
MODEL 3
REMARK VINA RESULT:     -10.3      8.172     14.618
REMARK  Name = 60149
REMARK  5 active torsions:
REMARK  status: ('A' for Active; 'I' for Inactive)
REMARK    1  A    between atoms: N_2  and  C_12
REMARK    2  A    between atoms: C_3  and  C_19
REMARK    3  A    between atoms: N_18  and  C_25
REMARK    4  A    between atoms: C_25  and  C_26
REMARK    5  A    between atoms: C_26  and  N_28
REMARK                            x       y       z     vdW  Elec       q    Type
REMARK                         _______ _______ _______ _____ _____    ______ ____
ROOT
ATOM      1 CL   UNL     1      31.563 -10.036 -17.968  0.00  0.00    -0.082 Cl
ATOM      2  N   UNL     1      32.992  -8.159 -23.313  0.00  0.00    -0.265 N 
ATOM      3  C   UNL     1      32.730 -10.351 -23.134  0.00  0.00    -0.006 C 
ATOM      4  C   UNL     1      32.492  -9.775 -21.858  0.00  0.00    +0.012 C 
ATOM      5  C   UNL     1      33.034  -9.338 -24.008  0.00  0.00    +0.065 C 
ATOM      6  C   UNL     1      32.662  -8.396 -21.997  0.00  0.00    +0.055 C 
ATOM      7  C   UNL     1      32.147 -10.292 -20.593  0.00  0.00    +0.012 C 
ATOM      8  C   UNL     1      32.503  -7.504 -20.930  0.00  0.00    +0.016 C 
ATOM      9  C   UNL     1      31.986  -9.412 -19.517  0.00  0.00    +0.058 C 
ATOM     10  C   UNL     1      32.162  -8.040 -19.685  0.00  0.00    +0.013 C 
ENDROOT
BRANCH   2  12
ATOM     11  F   UNL     1      33.993  -3.219 -25.542  0.00  0.00    -0.204 F 
ATOM     12  C   UNL     1      33.246  -6.907 -23.878  0.00  0.00    +0.056 C 
ATOM     13  C   UNL     1      32.190  -6.037 -24.112  0.00  0.00    +0.017 C 
ATOM     14  C   UNL     1      34.549  -6.554 -24.196  0.00  0.00    +0.017 C 
ATOM     15  C   UNL     1      32.444  -4.787 -24.678  0.00  0.00    +0.031 C 
ATOM     16  C   UNL     1      34.802  -5.303 -24.762  0.00  0.00    +0.031 C 
ATOM     17  C   UNL     1      33.750  -4.419 -25.001  0.00  0.00    +0.140 C 
ENDBRANCH   2  12
BRANCH   3  19
ATOM     18  N   UNL     1      33.875 -14.437 -24.026  0.00  0.00    +0.388 N 
ATOM     19  C   UNL     1      32.664 -11.822 -23.479  0.00  0.00    +0.019 C 
ATOM     20  C   UNL     1      33.354 -12.150 -24.814  0.00  0.00    -0.018 C 
ATOM     21  C   UNL     1      33.229 -12.719 -22.367  0.00  0.00    -0.018 C 
ATOM     22  C   UNL     1      33.289 -13.648 -25.118  0.00  0.00    -0.077 C 
ATOM     23  C   UNL     1      33.170 -14.197 -22.760  0.00  0.00    -0.077 C 
ATOM     24  H   UNL     1      34.843 -14.141 -23.908  0.00  0.00    -0.080 HD
BRANCH  18  25
ATOM     25  C   UNL     1      33.857 -15.862 -24.358  0.00  0.00    -0.055 C 
BRANCH  25  26
ATOM     26  C   UNL     1      35.207 -16.493 -24.052  0.00  0.00    +0.077 C 
BRANCH  26  28
ATOM     27  O   UNL     1      33.922 -19.174 -24.493  0.00  0.00    -0.252 OA
ATOM     28  N   UNL     1      35.069 -17.607 -23.153  0.00  0.00    -0.243 N 
ATOM     29  N   UNL     1      34.575 -19.639 -22.294  0.00  0.00    -0.266 N 
ATOM     30  C   UNL     1      35.650 -17.608 -21.821  0.00  0.00    +0.085 C 
ATOM     31  C   UNL     1      35.211 -18.931 -21.213  0.00  0.00    +0.082 C 
ATOM     32  C   UNL     1      34.457 -18.842 -23.443  0.00  0.00    +0.311 C 
ATOM     33  H   UNL     1      34.260 -20.570 -22.233  0.00  0.00    +0.157 HD
ENDBRANCH  26  28
ENDBRANCH  25  26
ENDBRANCH  18  25
ENDBRANCH   3  19
TORSDOF 5
ENDMDL
MODEL 4
REMARK VINA RESULT:      -9.5      9.557     13.691
REMARK  Name = 60149
REMARK  5 active torsions:
REMARK  status: ('A' for Active; 'I' for Inactive)
REMARK    1  A    between atoms: N_2  and  C_12
REMARK    2  A    between atoms: C_3  and  C_19
REMARK    3  A    between atoms: N_18  and  C_25
REMARK    4  A    between atoms: C_25  and  C_26
REMARK    5  A    between atoms: C_26  and  N_28
REMARK                            x       y       z     vdW  Elec       q    Type
REMARK                         _______ _______ _______ _____ _____    ______ ____
ROOT
ATOM      1 CL   UNL     1      31.017 -10.139 -18.615  0.00  0.00    -0.082 Cl
ATOM      2  N   UNL     1      33.558 -12.927 -23.077  0.00  0.00    -0.265 N 
ATOM      3  C   UNL     1      33.276 -10.752 -23.377  0.00  0.00    -0.006 C 
ATOM      4  C   UNL     1      32.764 -11.088 -22.096  0.00  0.00    +0.012 C 
ATOM      5  C   UNL     1      33.757 -11.898 -23.958  0.00  0.00    +0.065 C 
ATOM      6  C   UNL     1      32.953 -12.461 -21.931  0.00  0.00    +0.055 C 
ATOM      7  C   UNL     1      32.155 -10.357 -21.056  0.00  0.00    +0.012 C 
ATOM      8  C   UNL     1      32.564 -13.143 -20.773  0.00  0.00    +0.016 C 
ATOM      9  C   UNL     1      31.760 -11.027 -19.892  0.00  0.00    +0.058 C 
ATOM     10  C   UNL     1      31.962 -12.398 -19.755  0.00  0.00    +0.013 C 
ENDROOT
BRANCH   2  12
ATOM     11  F   UNL     1      35.011 -18.153 -24.055  0.00  0.00    -0.204 F 
ATOM     12  C   UNL     1      33.926 -14.253 -23.325  0.00  0.00    +0.056 C 
ATOM     13  C   UNL     1      33.562 -14.849 -24.523  0.00  0.00    +0.017 C 
ATOM     14  C   UNL     1      34.650 -14.949 -22.369  0.00  0.00    +0.017 C 
ATOM     15  C   UNL     1      33.929 -16.173 -24.770  0.00  0.00    +0.031 C 
ATOM     16  C   UNL     1      35.017 -16.273 -22.616  0.00  0.00    +0.031 C 
ATOM     17  C   UNL     1      34.657 -16.884 -23.817  0.00  0.00    +0.140 C 
ENDBRANCH   2  12
BRANCH   3  19
ATOM     18  N   UNL     1      33.428  -6.447 -23.879  0.00  0.00    +0.388 N 
ATOM     19  C   UNL     1      33.292  -9.375 -24.002  0.00  0.00    +0.019 C 
ATOM     20  C   UNL     1      32.098  -8.510 -23.565  0.00  0.00    -0.018 C 
ATOM     21  C   UNL     1      34.605  -8.620 -23.742  0.00  0.00    -0.018 C 
ATOM     22  C   UNL     1      32.160  -7.118 -24.197  0.00  0.00    -0.077 C 
ATOM     23  C   UNL     1      34.576  -7.222 -24.367  0.00  0.00    -0.077 C 
ATOM     24  H   UNL     1      33.502  -6.380 -22.864  0.00  0.00    -0.080 HD
BRANCH  18  25
ATOM     25  C   UNL     1      33.447  -5.096 -24.442  0.00  0.00    -0.055 C 
BRANCH  25  26
ATOM     26  C   UNL     1      32.029  -4.624 -24.728  0.00  0.00    +0.077 C 
BRANCH  26  28
ATOM     27  O   UNL     1      30.923  -5.279 -22.011  0.00  0.00    -0.252 OA
ATOM     28  N   UNL     1      31.554  -3.748 -23.692  0.00  0.00    -0.243 N 
ATOM     29  N   UNL     1      30.737  -2.962 -21.736  0.00  0.00    -0.266 N 
ATOM     30  C   UNL     1      31.620  -2.301 -23.806  0.00  0.00    +0.085 C 
ATOM     31  C   UNL     1      30.962  -1.786 -22.536  0.00  0.00    +0.082 C 
ATOM     32  C   UNL     1      31.057  -4.137 -22.433  0.00  0.00    +0.311 C 
ATOM     33  H   UNL     1      30.400  -2.943 -20.810  0.00  0.00    +0.157 HD
ENDBRANCH  26  28
ENDBRANCH  25  26
ENDBRANCH  18  25
ENDBRANCH   3  19
TORSDOF 5
ENDMDL
MODEL 5
REMARK VINA RESULT:      -9.3      7.464     13.994
REMARK  Name = 60149
REMARK  5 active torsions:
REMARK  status: ('A' for Active; 'I' for Inactive)
REMARK    1  A    between atoms: N_2  and  C_12
REMARK    2  A    between atoms: C_3  and  C_19
REMARK    3  A    between atoms: N_18  and  C_25
REMARK    4  A    between atoms: C_25  and  C_26
REMARK    5  A    between atoms: C_26  and  N_28
REMARK                            x       y       z     vdW  Elec       q    Type
REMARK                         _______ _______ _______ _____ _____    ______ ____
ROOT
ATOM      1 CL   UNL     1      36.489 -10.125 -26.910  0.00  0.00    -0.082 Cl
ATOM      2  N   UNL     1      32.806  -9.349 -22.441  0.00  0.00    -0.265 N 
ATOM      3  C   UNL     1      33.263 -11.463 -22.915  0.00  0.00    -0.006 C 
ATOM      4  C   UNL     1      33.981 -10.644 -23.826  0.00  0.00    +0.012 C 
ATOM      5  C   UNL     1      32.550 -10.644 -22.077  0.00  0.00    +0.065 C 
ATOM      6  C   UNL     1      33.677  -9.320 -23.507  0.00  0.00    +0.055 C 
ATOM      7  C   UNL     1      34.864 -10.899 -24.895  0.00  0.00    +0.012 C 
ATOM      8  C   UNL     1      34.214  -8.232 -24.205  0.00  0.00    +0.016 C 
ATOM      9  C   UNL     1      35.408  -9.821 -25.602  0.00  0.00    +0.058 C 
ATOM     10  C   UNL     1      35.086  -8.509 -25.261  0.00  0.00    +0.013 C 
ENDROOT
BRANCH   2  12
ATOM     11  F   UNL     1      30.626  -4.949 -19.938  0.00  0.00    -0.204 F 
ATOM     12  C   UNL     1      32.253  -8.234 -21.806  0.00  0.00    +0.056 C 
ATOM     13  C   UNL     1      31.389  -7.407 -22.510  0.00  0.00    +0.017 C 
ATOM     14  C   UNL     1      32.578  -7.972 -20.483  0.00  0.00    +0.017 C 
ATOM     15  C   UNL     1      30.838  -6.292 -21.876  0.00  0.00    +0.031 C 
ATOM     16  C   UNL     1      32.027  -6.857 -19.850  0.00  0.00    +0.031 C 
ATOM     17  C   UNL     1      31.156  -6.018 -20.546  0.00  0.00    +0.140 C 
ENDBRANCH   2  12
BRANCH   3  19
ATOM     18  N   UNL     1      34.535 -15.595 -23.260  0.00  0.00    +0.388 N 
ATOM     19  C   UNL     1      33.274 -12.975 -22.870  0.00  0.00    +0.019 C 
ATOM     20  C   UNL     1      33.448 -13.610 -24.260  0.00  0.00    -0.018 C 
ATOM     21  C   UNL     1      34.334 -13.533 -21.907  0.00  0.00    -0.018 C 
ATOM     22  C   UNL     1      33.478 -15.137 -24.173  0.00  0.00    -0.077 C 
ATOM     23  C   UNL     1      34.333 -15.064 -21.906  0.00  0.00    -0.077 C 
ATOM     24  H   UNL     1      35.426 -15.241 -23.608  0.00  0.00    -0.080 HD
BRANCH  18  25
ATOM     25  C   UNL     1      34.588 -17.057 -23.233  0.00  0.00    -0.055 C 
BRANCH  25  26
ATOM     26  C   UNL     1      35.918 -17.526 -22.662  0.00  0.00    +0.077 C 
BRANCH  26  28
ATOM     27  O   UNL     1      37.842 -18.630 -20.633  0.00  0.00    -0.252 OA
ATOM     28  N   UNL     1      35.727 -18.557 -21.678  0.00  0.00    -0.243 N 
ATOM     29  N   UNL     1      36.064 -19.999 -19.969  0.00  0.00    -0.266 N 
ATOM     30  C   UNL     1      34.444 -19.206 -21.470  0.00  0.00    +0.085 C 
ATOM     31  C   UNL     1      34.712 -20.252 -20.400  0.00  0.00    +0.082 C 
ATOM     32  C   UNL     1      36.685 -19.012 -20.751  0.00  0.00    +0.311 C 
ATOM     33  H   UNL     1      36.498 -20.463 -19.217  0.00  0.00    +0.157 HD
ENDBRANCH  26  28
ENDBRANCH  25  26
ENDBRANCH  18  25
ENDBRANCH   3  19
TORSDOF 5
ENDMDL
