MODEL 1
REMARK VINA RESULT:     -11.7      0.000      0.000
REMARK  Name = 24875320
REMARK  6 active torsions:
REMARK  status: ('A' for Active; 'I' for Inactive)
REMARK    1  A    between atoms: C_1  and  N_22
REMARK    2  A    between atoms: C_3  and  C_10
REMARK    3  A    between atoms: N_9  and  C_12
REMARK    4  A    between atoms: C_14  and  C_21
REMARK    5  A    between atoms: N_22  and  C_25
REMARK    6  A    between atoms: C_28  and  C_32
REMARK                            x       y       z     vdW  Elec       q    Type
REMARK                         _______ _______ _______ _____ _____    ______ ____
ROOT
ATOM      1  C   UNL     1      34.802 -23.037 -15.341  0.00  0.00    +0.044 C 
ATOM      2  C   UNL     1      33.450 -23.355 -15.206  0.00  0.00    -0.008 C 
ATOM      3  C   UNL     1      34.445 -22.523 -17.676  0.00  0.00    +0.055 C 
ATOM      4  C   UNL     1      35.299 -22.621 -16.577  0.00  0.00    +0.019 C 
ATOM      5  C   UNL     1      32.596 -23.257 -16.304  0.00  0.00    -0.003 C 
ATOM      6  C   UNL     1      33.094 -22.841 -17.539  0.00  0.00    +0.004 C 
ATOM      7  C   UNL     1      32.890 -23.801 -13.894  0.00  0.00    +0.032 C 
ENDROOT
BRANCH   3  10
ATOM      8  O   UNL     1      35.306 -22.948 -19.794  0.00  0.00    -0.270 OA
ATOM      9  N   UNL     1      35.055 -20.705 -19.152  0.00  0.00    -0.280 N 
ATOM     10  C   UNL     1      34.964 -22.091 -18.963  0.00  0.00    +0.250 C 
ATOM     11  H   UNL     1      34.744 -20.149 -18.401  0.00  0.00    +0.155 HD
BRANCH   9  12
ATOM     12  C   UNL     1      35.539 -19.999 -20.281  0.00  0.00    +0.050 C 
ATOM     13  C   UNL     1      34.760 -19.910 -21.436  0.00  0.00    +0.019 C 
ATOM     14  C   UNL     1      35.237 -19.215 -22.547  0.00  0.00    +0.073 C 
ATOM     15  C   UNL     1      36.794 -19.391 -20.239  0.00  0.00    +0.015 C 
ATOM     16  C   UNL     1      36.493 -18.608 -22.504  0.00  0.00    +0.004 C 
ATOM     17  C   UNL     1      37.270 -18.696 -21.350  0.00  0.00    +0.001 C 
BRANCH  14  21
ATOM     18  F   UNL     1      34.627 -17.985 -24.506  0.00  0.00    -0.166 F 
ATOM     19  F   UNL     1      34.610 -20.149 -24.657  0.00  0.00    -0.166 F 
ATOM     20  F   UNL     1      33.067 -19.129 -23.514  0.00  0.00    -0.166 F 
ATOM     21  C   UNL     1      34.405 -19.121 -23.781  0.00  0.00    +0.419 C 
ENDBRANCH  14  21
ENDBRANCH   9  12
ENDBRANCH   3  10
BRANCH   1  22
ATOM     22  N   UNL     1      35.680 -23.130 -14.240  0.00  0.00    -0.312 N 
ATOM     23  H   UNL     1      35.671 -22.336 -13.658  0.00  0.00    +0.152 HD
BRANCH  22  25
ATOM     24  N   UNL     1      37.057 -25.942 -12.283  0.00  0.00    -0.241 NA
ATOM     25  C   UNL     1      36.568 -24.135 -13.812  0.00  0.00    +0.068 C 
ATOM     26  C   UNL     1      37.788 -24.332 -14.448  0.00  0.00    +0.022 C 
ATOM     27  C   UNL     1      36.252 -24.959 -12.744  0.00  0.00    +0.113 C 
ATOM     28  C   UNL     1      38.644 -25.334 -14.003  0.00  0.00    +0.073 C 
ATOM     29  C   UNL     1      38.236 -26.104 -12.926  0.00  0.00    +0.103 C 
BRANCH  28  32
ATOM     30  O   UNL     1      40.936 -24.910 -14.335  0.00  0.00    -0.270 OA
ATOM     31  N   UNL     1      39.995 -26.562 -15.616  0.00  0.00    -0.325 N 
ATOM     32  C   UNL     1      39.925 -25.565 -14.646  0.00  0.00    +0.244 C 
ATOM     33  H   UNL     1      40.847 -26.747 -16.072  0.00  0.00    +0.145 HD
ATOM     34  H   UNL     1      39.191 -27.084 -15.844  0.00  0.00    +0.145 HD
ENDBRANCH  28  32
ENDBRANCH  22  25
ENDBRANCH   1  22
TORSDOF 6
ENDMDL
MODEL 2
REMARK VINA RESULT:     -11.5      6.512      9.915
REMARK  Name = 24875320
REMARK  6 active torsions:
REMARK  status: ('A' for Active; 'I' for Inactive)
REMARK    1  A    between atoms: C_1  and  N_22
REMARK    2  A    between atoms: C_3  and  C_10
REMARK    3  A    between atoms: N_9  and  C_12
REMARK    4  A    between atoms: C_14  and  C_21
REMARK    5  A    between atoms: N_22  and  C_25
REMARK    6  A    between atoms: C_28  and  C_32
REMARK                            x       y       z     vdW  Elec       q    Type
REMARK                         _______ _______ _______ _____ _____    ______ ____
ROOT
ATOM      1  C   UNL     1      35.263 -17.248 -22.861  0.00  0.00    +0.044 C 
ATOM      2  C   UNL     1      34.515 -17.716 -23.941  0.00  0.00    -0.008 C 
ATOM      3  C   UNL     1      34.321 -15.044 -23.165  0.00  0.00    +0.055 C 
ATOM      4  C   UNL     1      35.166 -15.912 -22.473  0.00  0.00    +0.019 C 
ATOM      5  C   UNL     1      33.670 -16.849 -24.633  0.00  0.00    -0.003 C 
ATOM      6  C   UNL     1      33.573 -15.512 -24.246  0.00  0.00    +0.004 C 
ATOM      7  C   UNL     1      34.598 -19.143 -24.378  0.00  0.00    +0.032 C 
ENDROOT
BRANCH   3  10
ATOM      8  O   UNL     1      34.204 -13.373 -21.551  0.00  0.00    -0.270 OA
ATOM      9  N   UNL     1      34.128 -12.717 -23.802  0.00  0.00    -0.280 N 
ATOM     10  C   UNL     1      34.221 -13.651 -22.761  0.00  0.00    +0.250 C 
ATOM     11  H   UNL     1      34.156 -13.088 -24.714  0.00  0.00    +0.155 HD
BRANCH   9  12
ATOM     12  C   UNL     1      33.998 -11.309 -23.715  0.00  0.00    +0.050 C 
ATOM     13  C   UNL     1      32.971 -10.748 -22.956  0.00  0.00    +0.019 C 
ATOM     14  C   UNL     1      32.843  -9.362 -22.871  0.00  0.00    +0.073 C 
ATOM     15  C   UNL     1      34.898 -10.483 -24.389  0.00  0.00    +0.015 C 
ATOM     16  C   UNL     1      33.743  -8.536 -23.545  0.00  0.00    +0.004 C 
ATOM     17  C   UNL     1      34.770  -9.097 -24.303  0.00  0.00    +0.001 C 
BRANCH  14  21
ATOM     18  F   UNL     1      31.164  -9.640 -21.190  0.00  0.00    -0.166 F 
ATOM     19  F   UNL     1      32.148  -7.710 -21.288  0.00  0.00    -0.166 F 
ATOM     20  F   UNL     1      30.725  -8.282 -22.830  0.00  0.00    -0.166 F 
ATOM     21  C   UNL     1      31.745  -8.762 -22.060  0.00  0.00    +0.419 C 
ENDBRANCH  14  21
ENDBRANCH   9  12
ENDBRANCH   3  10
BRANCH   1  22
ATOM     22  N   UNL     1      36.123 -18.113 -22.149  0.00  0.00    -0.312 N 
ATOM     23  H   UNL     1      37.074 -18.003 -22.379  0.00  0.00    +0.152 HD
BRANCH  22  25
ATOM     24  N   UNL     1      36.760 -20.547 -19.446  0.00  0.00    -0.241 NA
ATOM     25  C   UNL     1      35.886 -19.101 -21.174  0.00  0.00    +0.068 C 
ATOM     26  C   UNL     1      34.608 -19.606 -20.962  0.00  0.00    +0.022 C 
ATOM     27  C   UNL     1      36.919 -19.600 -20.397  0.00  0.00    +0.113 C 
ATOM     28  C   UNL     1      34.405 -20.581 -19.991  0.00  0.00    +0.073 C 
ATOM     29  C   UNL     1      35.504 -21.014 -19.267  0.00  0.00    +0.103 C 
BRANCH  28  32
ATOM     30  O   UNL     1      32.093 -20.761 -20.403  0.00  0.00    -0.270 OA
ATOM     31  N   UNL     1      32.956 -22.099 -18.753  0.00  0.00    -0.325 N 
ATOM     32  C   UNL     1      33.083 -21.128 -19.744  0.00  0.00    +0.244 C 
ATOM     33  H   UNL     1      32.075 -22.493 -18.559  0.00  0.00    +0.145 HD
ATOM     34  H   UNL     1      33.748 -22.392 -18.247  0.00  0.00    +0.145 HD
ENDBRANCH  28  32
ENDBRANCH  22  25
ENDBRANCH   1  22
TORSDOF 6
ENDMDL
MODEL 3
REMARK VINA RESULT:     -11.5      6.428      9.828
REMARK  Name = 24875320
REMARK  6 active torsions:
REMARK  status: ('A' for Active; 'I' for Inactive)
REMARK    1  A    between atoms: C_1  and  N_22
REMARK    2  A    between atoms: C_3  and  C_10
REMARK    3  A    between atoms: N_9  and  C_12
REMARK    4  A    between atoms: C_14  and  C_21
REMARK    5  A    between atoms: N_22  and  C_25
REMARK    6  A    between atoms: C_28  and  C_32
REMARK                            x       y       z     vdW  Elec       q    Type
REMARK                         _______ _______ _______ _____ _____    ______ ____
ROOT
ATOM      1  C   UNL     1      35.306 -17.373 -22.729  0.00  0.00    +0.044 C 
ATOM      2  C   UNL     1      34.649 -17.752 -23.899  0.00  0.00    -0.008 C 
ATOM      3  C   UNL     1      34.329 -15.169 -22.894  0.00  0.00    +0.055 C 
ATOM      4  C   UNL     1      35.147 -16.081 -22.227  0.00  0.00    +0.019 C 
ATOM      5  C   UNL     1      33.831 -16.840 -24.567  0.00  0.00    -0.003 C 
ATOM      6  C   UNL     1      33.672 -15.549 -24.065  0.00  0.00    +0.004 C 
ATOM      7  C   UNL     1      34.800 -19.129 -24.459  0.00  0.00    +0.032 C 
ENDROOT
BRANCH   3  10
ATOM      8  O   UNL     1      34.600 -13.557 -21.239  0.00  0.00    -0.270 OA
ATOM      9  N   UNL     1      33.489 -12.921 -23.206  0.00  0.00    -0.280 N 
ATOM     10  C   UNL     1      34.164 -13.823 -22.371  0.00  0.00    +0.250 C 
ATOM     11  H   UNL     1      33.202 -13.277 -24.078  0.00  0.00    +0.155 HD
BRANCH   9  12
ATOM     12  C   UNL     1      33.163 -11.565 -22.957  0.00  0.00    +0.050 C 
ATOM     13  C   UNL     1      33.948 -10.547 -23.501  0.00  0.00    +0.019 C 
ATOM     14  C   UNL     1      33.627  -9.212 -23.256  0.00  0.00    +0.073 C 
ATOM     15  C   UNL     1      32.057 -11.246 -22.170  0.00  0.00    +0.015 C 
ATOM     16  C   UNL     1      32.520  -8.894 -22.467  0.00  0.00    +0.004 C 
ATOM     17  C   UNL     1      31.736  -9.911 -21.925  0.00  0.00    +0.001 C 
BRANCH  14  21
ATOM     18  F   UNL     1      33.745  -7.051 -24.274  0.00  0.00    -0.166 F 
ATOM     19  F   UNL     1      35.375  -7.608 -22.957  0.00  0.00    -0.166 F 
ATOM     20  F   UNL     1      35.194  -8.541 -24.913  0.00  0.00    -0.166 F 
ATOM     21  C   UNL     1      34.466  -8.125 -23.836  0.00  0.00    +0.419 C 
ENDBRANCH  14  21
ENDBRANCH   9  12
ENDBRANCH   3  10
BRANCH   1  22
ATOM     22  N   UNL     1      36.137 -18.283 -22.040  0.00  0.00    -0.312 N 
ATOM     23  H   UNL     1      37.085 -18.230 -22.302  0.00  0.00    +0.152 HD
BRANCH  22  25
ATOM     24  N   UNL     1      36.706 -20.668 -19.279  0.00  0.00    -0.241 NA
ATOM     25  C   UNL     1      35.876 -19.252 -21.053  0.00  0.00    +0.068 C 
ATOM     26  C   UNL     1      34.591 -19.748 -20.858  0.00  0.00    +0.022 C 
ATOM     27  C   UNL     1      36.889 -19.740 -20.244  0.00  0.00    +0.113 C 
ATOM     28  C   UNL     1      34.363 -20.703 -19.874  0.00  0.00    +0.073 C 
ATOM     29  C   UNL     1      35.444 -21.127 -19.118  0.00  0.00    +0.103 C 
BRANCH  28  32
ATOM     30  O   UNL     1      32.055 -20.864 -20.316  0.00  0.00    -0.270 OA
ATOM     31  N   UNL     1      32.887 -22.214 -18.660  0.00  0.00    -0.325 N 
ATOM     32  C   UNL     1      33.034 -21.241 -19.646  0.00  0.00    +0.244 C 
ATOM     33  H   UNL     1      32.000 -22.602 -18.478  0.00  0.00    +0.145 HD
ATOM     34  H   UNL     1      33.670 -22.515 -18.144  0.00  0.00    +0.145 HD
ENDBRANCH  28  32
ENDBRANCH  22  25
ENDBRANCH   1  22
TORSDOF 6
ENDMDL
MODEL 4
REMARK VINA RESULT:     -11.5      1.514      2.253
REMARK  Name = 24875320
REMARK  6 active torsions:
REMARK  status: ('A' for Active; 'I' for Inactive)
REMARK    1  A    between atoms: C_1  and  N_22
REMARK    2  A    between atoms: C_3  and  C_10
REMARK    3  A    between atoms: N_9  and  C_12
REMARK    4  A    between atoms: C_14  and  C_21
REMARK    5  A    between atoms: N_22  and  C_25
REMARK    6  A    between atoms: C_28  and  C_32
REMARK                            x       y       z     vdW  Elec       q    Type
REMARK                         _______ _______ _______ _____ _____    ______ ____
ROOT
ATOM      1  C   UNL     1      33.546 -23.624 -15.641  0.00  0.00    +0.044 C 
ATOM      2  C   UNL     1      32.170 -23.437 -15.765  0.00  0.00    -0.008 C 
ATOM      3  C   UNL     1      33.897 -22.412 -17.702  0.00  0.00    +0.055 C 
ATOM      4  C   UNL     1      34.410 -23.112 -16.610  0.00  0.00    +0.019 C 
ATOM      5  C   UNL     1      31.657 -22.737 -16.857  0.00  0.00    -0.003 C 
ATOM      6  C   UNL     1      32.520 -22.225 -17.826  0.00  0.00    +0.004 C 
ATOM      7  C   UNL     1      31.222 -23.973 -14.742  0.00  0.00    +0.032 C 
ENDROOT
BRANCH   3  10
ATOM      8  O   UNL     1      35.918 -22.394 -18.852  0.00  0.00    -0.270 OA
ATOM      9  N   UNL     1      34.315 -20.786 -19.445  0.00  0.00    -0.280 N 
ATOM     10  C   UNL     1      34.797 -21.879 -18.711  0.00  0.00    +0.250 C 
ATOM     11  H   UNL     1      33.404 -20.488 -19.221  0.00  0.00    +0.155 HD
BRANCH   9  12
ATOM     12  C   UNL     1      34.969 -20.052 -20.465  0.00  0.00    +0.050 C 
ATOM     13  C   UNL     1      34.360 -19.892 -21.710  0.00  0.00    +0.019 C 
ATOM     14  C   UNL     1      35.004 -19.170 -22.715  0.00  0.00    +0.073 C 
ATOM     15  C   UNL     1      36.222 -19.488 -20.225  0.00  0.00    +0.015 C 
ATOM     16  C   UNL     1      36.258 -18.606 -22.474  0.00  0.00    +0.004 C 
ATOM     17  C   UNL     1      36.866 -18.765 -21.229  0.00  0.00    +0.001 C 
BRANCH  14  21
ATOM     18  F   UNL     1      34.637 -20.004 -24.926  0.00  0.00    -0.166 F 
ATOM     19  F   UNL     1      32.990 -18.952 -23.985  0.00  0.00    -0.166 F 
ATOM     20  F   UNL     1      34.733 -17.847 -24.671  0.00  0.00    -0.166 F 
ATOM     21  C   UNL     1      34.354 -19.000 -24.045  0.00  0.00    +0.419 C 
ENDBRANCH  14  21
ENDBRANCH   9  12
ENDBRANCH   3  10
BRANCH   1  22
ATOM     22  N   UNL     1      34.083 -24.329 -14.542  0.00  0.00    -0.312 N 
ATOM     23  H   UNL     1      33.409 -24.825 -14.022  0.00  0.00    +0.152 HD
BRANCH  22  25
ATOM     24  N   UNL     1      37.584 -25.465 -14.239  0.00  0.00    -0.241 NA
ATOM     25  C   UNL     1      35.393 -24.463 -14.044  0.00  0.00    +0.068 C 
ATOM     26  C   UNL     1      35.804 -23.766 -12.913  0.00  0.00    +0.022 C 
ATOM     27  C   UNL     1      36.312 -25.292 -14.665  0.00  0.00    +0.113 C 
ATOM     28  C   UNL     1      37.105 -23.917 -12.445  0.00  0.00    +0.073 C 
ATOM     29  C   UNL     1      37.948 -24.771 -13.137  0.00  0.00    +0.103 C 
BRANCH  28  32
ATOM     30  O   UNL     1      38.442 -22.324 -11.341  0.00  0.00    -0.270 OA
ATOM     31  N   UNL     1      36.978 -23.521 -10.045  0.00  0.00    -0.325 N 
ATOM     32  C   UNL     1      37.565 -23.203 -11.267  0.00  0.00    +0.244 C 
ATOM     33  H   UNL     1      37.265 -23.057  -9.225  0.00  0.00    +0.145 HD
ATOM     34  H   UNL     1      36.275 -24.209 -10.000  0.00  0.00    +0.145 HD
ENDBRANCH  28  32
ENDBRANCH  22  25
ENDBRANCH   1  22
TORSDOF 6
ENDMDL
MODEL 5
REMARK VINA RESULT:     -11.2      3.354      5.472
REMARK  Name = 24875320
REMARK  6 active torsions:
REMARK  status: ('A' for Active; 'I' for Inactive)
REMARK    1  A    between atoms: C_1  and  N_22
REMARK    2  A    between atoms: C_3  and  C_10
REMARK    3  A    between atoms: N_9  and  C_12
REMARK    4  A    between atoms: C_14  and  C_21
REMARK    5  A    between atoms: N_22  and  C_25
REMARK    6  A    between atoms: C_28  and  C_32
REMARK                            x       y       z     vdW  Elec       q    Type
REMARK                         _______ _______ _______ _____ _____    ______ ____
ROOT
ATOM      1  C   UNL     1      34.910 -22.810 -16.921  0.00  0.00    +0.044 C 
ATOM      2  C   UNL     1      36.252 -22.573 -16.621  0.00  0.00    -0.008 C 
ATOM      3  C   UNL     1      35.080 -21.346 -18.836  0.00  0.00    +0.055 C 
ATOM      4  C   UNL     1      34.325 -22.196 -18.028  0.00  0.00    +0.019 C 
ATOM      5  C   UNL     1      37.007 -21.723 -17.429  0.00  0.00    -0.003 C 
ATOM      6  C   UNL     1      36.421 -21.109 -18.536  0.00  0.00    +0.004 C 
ATOM      7  C   UNL     1      36.905 -23.217 -15.442  0.00  0.00    +0.032 C 
ENDROOT
BRANCH   3  10
ATOM      8  O   UNL     1      33.273 -20.927 -20.239  0.00  0.00    -0.270 OA
ATOM      9  N   UNL     1      35.313 -19.889 -20.754  0.00  0.00    -0.280 N 
ATOM     10  C   UNL     1      34.469 -20.706 -19.990  0.00  0.00    +0.250 C 
ATOM     11  H   UNL     1      36.240 -19.809 -20.431  0.00  0.00    +0.155 HD
BRANCH   9  12
ATOM     12  C   UNL     1      35.008 -19.164 -21.933  0.00  0.00    +0.050 C 
ATOM     13  C   UNL     1      34.984 -17.769 -21.908  0.00  0.00    +0.019 C 
ATOM     14  C   UNL     1      34.684 -17.056 -23.068  0.00  0.00    +0.073 C 
ATOM     15  C   UNL     1      34.730 -19.845 -23.118  0.00  0.00    +0.015 C 
ATOM     16  C   UNL     1      34.406 -17.738 -24.254  0.00  0.00    +0.004 C 
ATOM     17  C   UNL     1      34.429 -19.131 -24.278  0.00  0.00    +0.001 C 
BRANCH  14  21
ATOM     18  F   UNL     1      33.456 -15.031 -23.406  0.00  0.00    -0.166 F 
ATOM     19  F   UNL     1      34.927 -15.036 -21.812  0.00  0.00    -0.166 F 
ATOM     20  F   UNL     1      35.576 -15.010 -23.888  0.00  0.00    -0.166 F 
ATOM     21  C   UNL     1      34.659 -15.565 -23.043  0.00  0.00    +0.419 C 
ENDBRANCH  14  21
ENDBRANCH   9  12
ENDBRANCH   3  10
BRANCH   1  22
ATOM     22  N   UNL     1      34.131 -23.668 -16.115  0.00  0.00    -0.312 N 
ATOM     23  H   UNL     1      34.504 -24.575 -16.025  0.00  0.00    +0.152 HD
BRANCH  22  25
ATOM     24  N   UNL     1      31.790 -23.139 -13.309  0.00  0.00    -0.241 NA
ATOM     25  C   UNL     1      32.923 -23.482 -15.416  0.00  0.00    +0.068 C 
ATOM     26  C   UNL     1      31.705 -23.451 -16.085  0.00  0.00    +0.022 C 
ATOM     27  C   UNL     1      32.912 -23.323 -14.040  0.00  0.00    +0.113 C 
ATOM     28  C   UNL     1      30.529 -23.263 -15.367  0.00  0.00    +0.073 C 
ATOM     29  C   UNL     1      30.624 -23.115 -13.993  0.00  0.00    +0.103 C 
BRANCH  28  32
ATOM     30  O   UNL     1      28.821 -22.191 -16.584  0.00  0.00    -0.270 OA
ATOM     31  N   UNL     1      28.489 -24.399 -16.064  0.00  0.00    -0.325 N 
ATOM     32  C   UNL     1      29.241 -23.226 -16.037  0.00  0.00    +0.244 C 
ATOM     33  H   UNL     1      27.611 -24.411 -16.509  0.00  0.00    +0.145 HD
ATOM     34  H   UNL     1      28.837 -25.217 -15.639  0.00  0.00    +0.145 HD
ENDBRANCH  28  32
ENDBRANCH  22  25
ENDBRANCH   1  22
TORSDOF 6
ENDMDL
MODEL 6
REMARK VINA RESULT:     -11.1      6.007      9.156
REMARK  Name = 24875320
REMARK  6 active torsions:
REMARK  status: ('A' for Active; 'I' for Inactive)
REMARK    1  A    between atoms: C_1  and  N_22
REMARK    2  A    between atoms: C_3  and  C_10
REMARK    3  A    between atoms: N_9  and  C_12
REMARK    4  A    between atoms: C_14  and  C_21
REMARK    5  A    between atoms: N_22  and  C_25
REMARK    6  A    between atoms: C_28  and  C_32
REMARK                            x       y       z     vdW  Elec       q    Type
REMARK                         _______ _______ _______ _____ _____    ______ ____
ROOT
ATOM      1  C   UNL     1      35.020 -18.024 -22.548  0.00  0.00    +0.044 C 
ATOM      2  C   UNL     1      34.657 -18.343 -23.856  0.00  0.00    -0.008 C 
ATOM      3  C   UNL     1      34.464 -15.709 -22.958  0.00  0.00    +0.055 C 
ATOM      4  C   UNL     1      34.924 -16.707 -22.099  0.00  0.00    +0.019 C 
ATOM      5  C   UNL     1      34.198 -17.346 -24.715  0.00  0.00    -0.003 C 
ATOM      6  C   UNL     1      34.101 -16.028 -24.267  0.00  0.00    +0.004 C 
ATOM      7  C   UNL     1      34.749 -19.746 -24.363  0.00  0.00    +0.032 C 
ENDROOT
BRANCH   3  10
ATOM      8  O   UNL     1      34.989 -13.999 -21.471  0.00  0.00    -0.270 OA
ATOM      9  N   UNL     1      33.533 -13.493 -23.240  0.00  0.00    -0.280 N 
ATOM     10  C   UNL     1      34.365 -14.336 -22.491  0.00  0.00    +0.250 C 
ATOM     11  H   UNL     1      33.104 -13.903 -24.026  0.00  0.00    +0.155 HD
BRANCH   9  12
ATOM     12  C   UNL     1      33.227 -12.128 -23.015  0.00  0.00    +0.050 C 
ATOM     13  C   UNL     1      34.007 -11.131 -23.601  0.00  0.00    +0.019 C 
ATOM     14  C   UNL     1      33.705  -9.788 -23.378  0.00  0.00    +0.073 C 
ATOM     15  C   UNL     1      32.144 -11.781 -22.206  0.00  0.00    +0.015 C 
ATOM     16  C   UNL     1      32.622  -9.441 -22.569  0.00  0.00    +0.004 C 
ATOM     17  C   UNL     1      31.843 -10.438 -21.984  0.00  0.00    +0.001 C 
BRANCH  14  21
ATOM     18  F   UNL     1      35.459  -8.176 -23.156  0.00  0.00    -0.166 F 
ATOM     19  F   UNL     1      35.260  -9.154 -25.081  0.00  0.00    -0.166 F 
ATOM     20  F   UNL     1      33.794  -7.673 -24.460  0.00  0.00    -0.166 F 
ATOM     21  C   UNL     1      34.539  -8.722 -24.004  0.00  0.00    +0.419 C 
ENDBRANCH  14  21
ENDBRANCH   9  12
ENDBRANCH   3  10
BRANCH   1  22
ATOM     22  N   UNL     1      35.487 -19.022 -21.664  0.00  0.00    -0.312 N 
ATOM     23  H   UNL     1      36.464 -19.142 -21.682  0.00  0.00    +0.152 HD
BRANCH  22  25
ATOM     24  N   UNL     1      32.764 -20.864 -19.983  0.00  0.00    -0.241 NA
ATOM     25  C   UNL     1      34.829 -19.878 -20.761  0.00  0.00    +0.068 C 
ATOM     26  C   UNL     1      35.536 -20.571 -19.785  0.00  0.00    +0.022 C 
ATOM     27  C   UNL     1      33.456 -20.058 -20.818  0.00  0.00    +0.113 C 
ATOM     28  C   UNL     1      34.859 -21.411 -18.908  0.00  0.00    +0.073 C 
ATOM     29  C   UNL     1      33.485 -21.522 -19.047  0.00  0.00    +0.103 C 
BRANCH  28  32
ATOM     30  O   UNL     1      35.020 -23.063 -17.237  0.00  0.00    -0.270 OA
ATOM     31  N   UNL     1      36.899 -21.810 -17.637  0.00  0.00    -0.325 N 
ATOM     32  C   UNL     1      35.569 -22.148 -17.878  0.00  0.00    +0.244 C 
ATOM     33  H   UNL     1      37.411 -22.289 -16.946  0.00  0.00    +0.145 HD
ATOM     34  H   UNL     1      37.327 -21.094 -18.159  0.00  0.00    +0.145 HD
ENDBRANCH  28  32
ENDBRANCH  22  25
ENDBRANCH   1  22
TORSDOF 6
ENDMDL
MODEL 7
REMARK VINA RESULT:     -11.1      2.555      5.149
REMARK  Name = 24875320
REMARK  6 active torsions:
REMARK  status: ('A' for Active; 'I' for Inactive)
REMARK    1  A    between atoms: C_1  and  N_22
REMARK    2  A    between atoms: C_3  and  C_10
REMARK    3  A    between atoms: N_9  and  C_12
REMARK    4  A    between atoms: C_14  and  C_21
REMARK    5  A    between atoms: N_22  and  C_25
REMARK    6  A    between atoms: C_28  and  C_32
REMARK                            x       y       z     vdW  Elec       q    Type
REMARK                         _______ _______ _______ _____ _____    ______ ____
ROOT
ATOM      1  C   UNL     1      35.677 -24.299 -14.439  0.00  0.00    +0.044 C 
ATOM      2  C   UNL     1      36.954 -24.620 -13.981  0.00  0.00    -0.008 C 
ATOM      3  C   UNL     1      36.637 -22.763 -16.039  0.00  0.00    +0.055 C 
ATOM      4  C   UNL     1      35.518 -23.370 -15.468  0.00  0.00    +0.019 C 
ATOM      5  C   UNL     1      38.073 -24.014 -14.552  0.00  0.00    -0.003 C 
ATOM      6  C   UNL     1      37.914 -23.085 -15.581  0.00  0.00    +0.004 C 
ATOM      7  C   UNL     1      37.154 -25.612 -12.882  0.00  0.00    +0.032 C 
ENDROOT
BRANCH   3  10
ATOM      8  O   UNL     1      37.268 -20.847 -17.195  0.00  0.00    -0.270 OA
ATOM      9  N   UNL     1      35.381 -22.009 -17.966  0.00  0.00    -0.280 N 
ATOM     10  C   UNL     1      36.471 -21.795 -17.110  0.00  0.00    +0.250 C 
ATOM     11  H   UNL     1      34.836 -22.807 -17.774  0.00  0.00    +0.155 HD
BRANCH   9  12
ATOM     12  C   UNL     1      34.960 -21.228 -19.070  0.00  0.00    +0.050 C 
ATOM     13  C   UNL     1      35.884 -20.447 -19.766  0.00  0.00    +0.019 C 
ATOM     14  C   UNL     1      35.469 -19.678 -20.853  0.00  0.00    +0.073 C 
ATOM     15  C   UNL     1      33.622 -21.240 -19.462  0.00  0.00    +0.015 C 
ATOM     16  C   UNL     1      34.129 -19.690 -21.245  0.00  0.00    +0.004 C 
ATOM     17  C   UNL     1      33.207 -20.471 -20.549  0.00  0.00    +0.001 C 
BRANCH  14  21
ATOM     18  F   UNL     1      37.744 -19.016 -21.181  0.00  0.00    -0.166 F 
ATOM     19  F   UNL     1      36.477 -19.090 -22.940  0.00  0.00    -0.166 F 
ATOM     20  F   UNL     1      36.208 -17.506 -21.474  0.00  0.00    -0.166 F 
ATOM     21  C   UNL     1      36.455 -18.843 -21.596  0.00  0.00    +0.419 C 
ENDBRANCH  14  21
ENDBRANCH   9  12
ENDBRANCH   3  10
BRANCH   1  22
ATOM     22  N   UNL     1      34.533 -24.904 -13.873  0.00  0.00    -0.312 N 
ATOM     23  H   UNL     1      34.731 -25.715 -13.351  0.00  0.00    +0.152 HD
BRANCH  22  25
ATOM     24  N   UNL     1      31.004 -24.606 -12.827  0.00  0.00    -0.241 NA
ATOM     25  C   UNL     1      33.165 -24.575 -13.910  0.00  0.00    +0.068 C 
ATOM     26  C   UNL     1      32.615 -23.919 -15.006  0.00  0.00    +0.022 C 
ATOM     27  C   UNL     1      32.324 -24.893 -12.856  0.00  0.00    +0.113 C 
ATOM     28  C   UNL     1      31.260 -23.606 -15.014  0.00  0.00    +0.073 C 
ATOM     29  C   UNL     1      30.504 -23.968 -13.910  0.00  0.00    +0.103 C 
BRANCH  28  32
ATOM     30  O   UNL     1      31.346 -22.453 -17.066  0.00  0.00    -0.270 OA
ATOM     31  N   UNL     1      29.266 -22.820 -16.173  0.00  0.00    -0.325 N 
ATOM     32  C   UNL     1      30.655 -22.922 -16.143  0.00  0.00    +0.244 C 
ATOM     33  H   UNL     1      28.822 -22.363 -16.923  0.00  0.00    +0.145 HD
ATOM     34  H   UNL     1      28.728 -23.206 -15.444  0.00  0.00    +0.145 HD
ENDBRANCH  28  32
ENDBRANCH  22  25
ENDBRANCH   1  22
TORSDOF 6
ENDMDL
MODEL 8
REMARK VINA RESULT:     -11.0      5.800      8.873
REMARK  Name = 24875320
REMARK  6 active torsions:
REMARK  status: ('A' for Active; 'I' for Inactive)
REMARK    1  A    between atoms: C_1  and  N_22
REMARK    2  A    between atoms: C_3  and  C_10
REMARK    3  A    between atoms: N_9  and  C_12
REMARK    4  A    between atoms: C_14  and  C_21
REMARK    5  A    between atoms: N_22  and  C_25
REMARK    6  A    between atoms: C_28  and  C_32
REMARK                            x       y       z     vdW  Elec       q    Type
REMARK                         _______ _______ _______ _____ _____    ______ ____
ROOT
ATOM      1  C   UNL     1      35.091 -18.376 -22.550  0.00  0.00    +0.044 C 
ATOM      2  C   UNL     1      34.746 -18.749 -23.849  0.00  0.00    -0.008 C 
ATOM      3  C   UNL     1      34.547 -16.078 -23.066  0.00  0.00    +0.055 C 
ATOM      4  C   UNL     1      34.992 -17.040 -22.159  0.00  0.00    +0.019 C 
ATOM      5  C   UNL     1      34.302 -17.787 -24.756  0.00  0.00    -0.003 C 
ATOM      6  C   UNL     1      34.203 -16.452 -24.365  0.00  0.00    +0.004 C 
ATOM      7  C   UNL     1      34.842 -20.172 -24.295  0.00  0.00    +0.032 C 
ENDROOT
BRANCH   3  10
ATOM      8  O   UNL     1      35.027 -14.316 -21.626  0.00  0.00    -0.270 OA
ATOM      9  N   UNL     1      33.658 -13.866 -23.477  0.00  0.00    -0.280 N 
ATOM     10  C   UNL     1      34.445 -14.687 -22.658  0.00  0.00    +0.250 C 
ATOM     11  H   UNL     1      33.259 -14.302 -24.265  0.00  0.00    +0.155 HD
BRANCH   9  12
ATOM     12  C   UNL     1      33.359 -12.489 -23.320  0.00  0.00    +0.050 C 
ATOM     13  C   UNL     1      32.617 -12.057 -22.221  0.00  0.00    +0.019 C 
ATOM     14  C   UNL     1      32.324 -10.702 -22.067  0.00  0.00    +0.073 C 
ATOM     15  C   UNL     1      33.807 -11.567 -24.265  0.00  0.00    +0.015 C 
ATOM     16  C   UNL     1      32.772  -9.779 -23.013  0.00  0.00    +0.004 C 
ATOM     17  C   UNL     1      33.514 -10.212 -24.111  0.00  0.00    +0.001 C 
BRANCH  14  21
ATOM     18  F   UNL     1      30.224 -10.634 -20.923  0.00  0.00    -0.166 F 
ATOM     19  F   UNL     1      32.011 -10.691 -19.696  0.00  0.00    -0.166 F 
ATOM     20  F   UNL     1      31.499  -8.879 -20.783  0.00  0.00    -0.166 F 
ATOM     21  C   UNL     1      31.531 -10.239 -20.892  0.00  0.00    +0.419 C 
ENDBRANCH  14  21
ENDBRANCH   9  12
ENDBRANCH   3  10
BRANCH   1  22
ATOM     22  N   UNL     1      35.543 -19.336 -21.618  0.00  0.00    -0.312 N 
ATOM     23  H   UNL     1      36.515 -19.488 -21.646  0.00  0.00    +0.152 HD
BRANCH  22  25
ATOM     24  N   UNL     1      32.794 -20.990 -19.789  0.00  0.00    -0.241 NA
ATOM     25  C   UNL     1      34.875 -20.118 -20.657  0.00  0.00    +0.068 C 
ATOM     26  C   UNL     1      35.578 -20.777 -19.655  0.00  0.00    +0.022 C 
ATOM     27  C   UNL     1      33.496 -20.255 -20.680  0.00  0.00    +0.113 C 
ATOM     28  C   UNL     1      34.891 -21.543 -18.720  0.00  0.00    +0.073 C 
ATOM     29  C   UNL     1      33.512 -21.617 -18.829  0.00  0.00    +0.103 C 
BRANCH  28  32
ATOM     30  O   UNL     1      35.038 -23.120 -16.976  0.00  0.00    -0.270 OA
ATOM     31  N   UNL     1      36.933 -21.917 -17.445  0.00  0.00    -0.325 N 
ATOM     32  C   UNL     1      35.596 -22.244 -17.661  0.00  0.00    +0.244 C 
ATOM     33  H   UNL     1      37.442 -22.371 -16.735  0.00  0.00    +0.145 HD
ATOM     34  H   UNL     1      37.369 -21.231 -18.001  0.00  0.00    +0.145 HD
ENDBRANCH  28  32
ENDBRANCH  22  25
ENDBRANCH   1  22
TORSDOF 6
ENDMDL
MODEL 9
REMARK VINA RESULT:     -10.9      4.761      8.794
REMARK  Name = 24875320
REMARK  6 active torsions:
REMARK  status: ('A' for Active; 'I' for Inactive)
REMARK    1  A    between atoms: C_1  and  N_22
REMARK    2  A    between atoms: C_3  and  C_10
REMARK    3  A    between atoms: N_9  and  C_12
REMARK    4  A    between atoms: C_14  and  C_21
REMARK    5  A    between atoms: N_22  and  C_25
REMARK    6  A    between atoms: C_28  and  C_32
REMARK                            x       y       z     vdW  Elec       q    Type
REMARK                         _______ _______ _______ _____ _____    ______ ____
ROOT
ATOM      1  C   UNL     1      31.658 -23.012 -16.177  0.00  0.00    +0.044 C 
ATOM      2  C   UNL     1      30.357 -23.141 -15.692  0.00  0.00    -0.008 C 
ATOM      3  C   UNL     1      32.522 -23.866 -14.088  0.00  0.00    +0.055 C 
ATOM      4  C   UNL     1      32.741 -23.374 -15.375  0.00  0.00    +0.019 C 
ATOM      5  C   UNL     1      30.138 -23.633 -14.405  0.00  0.00    -0.003 C 
ATOM      6  C   UNL     1      31.220 -23.995 -13.603  0.00  0.00    +0.004 C 
ATOM      7  C   UNL     1      29.179 -22.762 -16.529  0.00  0.00    +0.032 C 
ENDROOT
BRANCH   3  10
ATOM      8  O   UNL     1      33.435 -24.800 -12.164  0.00  0.00    -0.270 OA
ATOM      9  N   UNL     1      34.918 -23.915 -13.752  0.00  0.00    -0.280 N 
ATOM     10  C   UNL     1      33.650 -24.243 -13.252  0.00  0.00    +0.250 C 
ATOM     11  H   UNL     1      34.931 -23.475 -14.633  0.00  0.00    +0.155 HD
BRANCH   9  12
ATOM     12  C   UNL     1      36.185 -24.133 -13.156  0.00  0.00    +0.050 C 
ATOM     13  C   UNL     1      37.161 -24.862 -13.836  0.00  0.00    +0.019 C 
ATOM     14  C   UNL     1      38.407 -25.077 -13.248  0.00  0.00    +0.073 C 
ATOM     15  C   UNL     1      36.456 -23.620 -11.887  0.00  0.00    +0.015 C 
ATOM     16  C   UNL     1      38.678 -24.563 -11.979  0.00  0.00    +0.004 C 
ATOM     17  C   UNL     1      37.702 -23.835 -11.300  0.00  0.00    +0.001 C 
BRANCH  14  21
ATOM     18  F   UNL     1      40.443 -26.330 -13.166  0.00  0.00    -0.166 F 
ATOM     19  F   UNL     1      38.961 -26.956 -14.620  0.00  0.00    -0.166 F 
ATOM     20  F   UNL     1      40.082 -25.119 -14.935  0.00  0.00    -0.166 F 
ATOM     21  C   UNL     1      39.451 -25.856 -13.975  0.00  0.00    +0.419 C 
ENDBRANCH  14  21
ENDBRANCH   9  12
ENDBRANCH   3  10
BRANCH   1  22
ATOM     22  N   UNL     1      31.899 -22.517 -17.478  0.00  0.00    -0.312 N 
ATOM     23  H   UNL     1      31.083 -22.420 -18.022  0.00  0.00    +0.152 HD
BRANCH  22  25
ATOM     24  N   UNL     1      35.460 -22.393 -18.445  0.00  0.00    -0.241 NA
ATOM     25  C   UNL     1      33.075 -22.134 -18.149  0.00  0.00    +0.068 C 
ATOM     26  C   UNL     1      33.049 -21.162 -19.142  0.00  0.00    +0.022 C 
ATOM     27  C   UNL     1      34.295 -22.714 -17.840  0.00  0.00    +0.113 C 
ATOM     28  C   UNL     1      34.228 -20.805 -19.789  0.00  0.00    +0.073 C 
ATOM     29  C   UNL     1      35.396 -21.444 -19.407  0.00  0.00    +0.103 C 
BRANCH  28  32
ATOM     30  O   UNL     1      33.412 -19.815 -21.764  0.00  0.00    -0.270 OA
ATOM     31  N   UNL     1      35.184 -18.778 -20.744  0.00  0.00    -0.325 N 
ATOM     32  C   UNL     1      34.234 -19.793 -20.830  0.00  0.00    +0.244 C 
ATOM     33  H   UNL     1      35.218 -18.075 -21.432  0.00  0.00    +0.145 HD
ATOM     34  H   UNL     1      35.822 -18.763 -19.993  0.00  0.00    +0.145 HD
ENDBRANCH  28  32
ENDBRANCH  22  25
ENDBRANCH   1  22
TORSDOF 6
ENDMDL
