MODEL 1
REMARK VINA RESULT:     -11.9      0.000      0.000
REMARK  Name = 11633167
REMARK  7 active torsions:
REMARK  status: ('A' for Active; 'I' for Inactive)
REMARK    1  A    between atoms: C_1  and  C_8
REMARK    2  A    between atoms: C_2  and  C_25
REMARK    3  A    between atoms: C_4  and  O_17
REMARK    4  A    between atoms: O_17  and  C_18
REMARK    5  A    between atoms: C_18  and  C_20
REMARK    6  A    between atoms: C_25  and  N_26
REMARK    7  A    between atoms: N_26  and  C_29
REMARK                            x       y       z     vdW  Elec       q    Type
REMARK                         _______ _______ _______ _____ _____    ______ ____
ROOT
ATOM      1  C   UNL     1      35.347 -20.765 -19.563  0.00  0.00    -0.000 C 
ATOM      2  C   UNL     1      34.227 -22.264 -18.037  0.00  0.00    +0.031 C 
ATOM      3  C   UNL     1      34.184 -21.406 -19.136  0.00  0.00    +0.000 C 
ATOM      4  C   UNL     1      35.430 -22.480 -17.367  0.00  0.00    +0.137 C 
ATOM      5  C   UNL     1      36.550 -20.981 -18.894  0.00  0.00    +0.003 C 
ATOM      6  C   UNL     1      36.593 -21.840 -17.795  0.00  0.00    +0.037 C 
ENDROOT
BRANCH   1   8
ATOM      7  N   UNL     1      33.439 -19.073 -23.825  0.00  0.00    -0.312 N 
ATOM      8  C   UNL     1      35.304 -19.874 -20.704  0.00  0.00    +0.001 C 
ATOM      9  C   UNL     1      34.293 -19.152 -22.748  0.00  0.00    +0.048 C 
ATOM     10  C   UNL     1      35.241 -18.137 -22.900  0.00  0.00    +0.015 C 
ATOM     11  C   UNL     1      34.299 -20.035 -21.662  0.00  0.00    +0.015 C 
ATOM     12  C   UNL     1      36.262 -18.871 -20.829  0.00  0.00    +0.000 C 
ATOM     13  C   UNL     1      36.245 -17.996 -21.921  0.00  0.00    +0.001 C 
ATOM     14  C   UNL     1      34.925 -17.447 -24.103  0.00  0.00    +0.017 C 
ATOM     15  C   UNL     1      33.814 -18.046 -24.650  0.00  0.00    +0.062 C 
ATOM     16  H   UNL     1      32.671 -19.669 -23.981  0.00  0.00    +0.152 HD
ENDBRANCH   1   8
BRANCH   4  17
ATOM     17  O   UNL     1      35.489 -23.315 -16.292  0.00  0.00    -0.469 OA
BRANCH  17  18
ATOM     18  C   UNL     1      36.458 -23.014 -15.289  0.00  0.00    +0.251 C 
BRANCH  18  20
ATOM     19  N   UNL     1      36.295 -25.419 -15.061  0.00  0.00    -0.244 NA
ATOM     20  C   UNL     1      36.893 -24.290 -14.630  0.00  0.00    +0.103 C 
ATOM     21  C   UNL     1      37.857 -24.240 -13.642  0.00  0.00    +0.018 C 
ATOM     22  C   UNL     1      38.237 -25.439 -13.051  0.00  0.00    +0.003 C 
ATOM     23  C   UNL     1      36.690 -26.565 -14.464  0.00  0.00    +0.099 C 
ATOM     24  C   UNL     1      37.648 -26.629 -13.464  0.00  0.00    +0.021 C 
ENDBRANCH  18  20
ENDBRANCH  17  18
ENDBRANCH   4  17
BRANCH   2  25
ATOM     25  C   UNL     1      32.974 -22.942 -17.592  0.00  0.00    +0.117 C 
BRANCH  25  26
ATOM     26  N   UNL     1      32.737 -22.787 -16.156  0.00  0.00    -0.327 N 
ATOM     27  H   UNL     1      33.285 -22.139 -15.657  0.00  0.00    +0.147 HD
BRANCH  26  29
ATOM     28  N   UNL     1      31.174 -25.063 -13.688  0.00  0.00    -0.228 NA
ATOM     29  C   UNL     1      31.784 -23.503 -15.470  0.00  0.00    +0.077 C 
ATOM     30  C   UNL     1      32.081 -24.344 -14.386  0.00  0.00    +0.139 C 
ATOM     31  C   UNL     1      30.426 -23.429 -15.829  0.00  0.00    +0.019 C 
ATOM     32  C   UNL     1      29.463 -24.154 -15.135  0.00  0.00    +0.022 C 
ATOM     33  C   UNL     1      29.886 -24.949 -14.081  0.00  0.00    +0.100 C 
ATOM     34  N   UNL     1      33.441 -24.443 -13.997  0.00  0.00    -0.342 N 
ATOM     35  H   UNL     1      33.695 -25.020 -13.242  0.00  0.00    +0.144 HD
ATOM     36  H   UNL     1      34.130 -23.934 -14.482  0.00  0.00    +0.144 HD
ENDBRANCH  26  29
ENDBRANCH  25  26
ENDBRANCH   2  25
TORSDOF 7
ENDMDL
MODEL 2
REMARK VINA RESULT:     -11.7      1.173      4.744
REMARK  Name = 11633167
REMARK  7 active torsions:
REMARK  status: ('A' for Active; 'I' for Inactive)
REMARK    1  A    between atoms: C_1  and  C_8
REMARK    2  A    between atoms: C_2  and  C_25
REMARK    3  A    between atoms: C_4  and  O_17
REMARK    4  A    between atoms: O_17  and  C_18
REMARK    5  A    between atoms: C_18  and  C_20
REMARK    6  A    between atoms: C_25  and  N_26
REMARK    7  A    between atoms: N_26  and  C_29
REMARK                            x       y       z     vdW  Elec       q    Type
REMARK                         _______ _______ _______ _____ _____    ______ ____
ROOT
ATOM      1  C   UNL     1      35.019 -21.635 -18.528  0.00  0.00    -0.000 C 
ATOM      2  C   UNL     1      35.719 -22.643 -16.448  0.00  0.00    +0.031 C 
ATOM      3  C   UNL     1      35.977 -21.797 -17.528  0.00  0.00    +0.000 C 
ATOM      4  C   UNL     1      34.506 -23.325 -16.371  0.00  0.00    +0.137 C 
ATOM      5  C   UNL     1      33.805 -22.316 -18.451  0.00  0.00    +0.003 C 
ATOM      6  C   UNL     1      33.548 -23.162 -17.372  0.00  0.00    +0.037 C 
ENDROOT
BRANCH   1   8
ATOM      7  N   UNL     1      33.810 -19.289 -22.735  0.00  0.00    -0.312 N 
ATOM      8  C   UNL     1      35.285 -20.757 -19.648  0.00  0.00    +0.001 C 
ATOM      9  C   UNL     1      34.584 -19.683 -21.668  0.00  0.00    +0.048 C 
ATOM     10  C   UNL     1      35.824 -19.054 -21.806  0.00  0.00    +0.015 C 
ATOM     11  C   UNL     1      34.286 -20.539 -20.601  0.00  0.00    +0.015 C 
ATOM     12  C   UNL     1      36.531 -20.144 -19.760  0.00  0.00    +0.000 C 
ATOM     13  C   UNL     1      36.816 -19.291 -20.833  0.00  0.00    +0.001 C 
ATOM     14  C   UNL     1      35.765 -18.270 -22.991  0.00  0.00    +0.017 C 
ATOM     15  C   UNL     1      34.515 -18.436 -23.542  0.00  0.00    +0.062 C 
ATOM     16  H   UNL     1      32.883 -19.580 -22.897  0.00  0.00    +0.152 HD
ENDBRANCH   1   8
BRANCH   4  17
ATOM     17  O   UNL     1      34.238 -24.155 -15.325  0.00  0.00    -0.469 OA
BRANCH  17  18
ATOM     18  C   UNL     1      33.605 -23.578 -14.184  0.00  0.00    +0.251 C 
BRANCH  18  20
ATOM     19  N   UNL     1      31.788 -25.147 -13.872  0.00  0.00    -0.244 NA
ATOM     20  C   UNL     1      32.139 -23.894 -14.225  0.00  0.00    +0.103 C 
ATOM     21  C   UNL     1      31.250 -22.910 -14.611  0.00  0.00    +0.018 C 
ATOM     22  C   UNL     1      29.899 -23.236 -14.638  0.00  0.00    +0.003 C 
ATOM     23  C   UNL     1      30.467 -25.427 -13.910  0.00  0.00    +0.099 C 
ATOM     24  C   UNL     1      29.491 -24.516 -14.282  0.00  0.00    +0.021 C 
ENDBRANCH  18  20
ENDBRANCH  17  18
ENDBRANCH   4  17
BRANCH   2  25
ATOM     25  C   UNL     1      36.755 -22.806 -15.386  0.00  0.00    +0.117 C 
BRANCH  25  26
ATOM     26  N   UNL     1      37.200 -24.194 -15.252  0.00  0.00    -0.327 N 
ATOM     27  H   UNL     1      37.418 -24.698 -16.069  0.00  0.00    +0.147 HD
BRANCH  26  29
ATOM     28  N   UNL     1      36.889 -26.746 -12.586  0.00  0.00    -0.228 NA
ATOM     29  C   UNL     1      37.328 -24.828 -14.038  0.00  0.00    +0.077 C 
ATOM     30  C   UNL     1      36.785 -26.092 -13.765  0.00  0.00    +0.139 C 
ATOM     31  C   UNL     1      38.029 -24.224 -12.978  0.00  0.00    +0.019 C 
ATOM     32  C   UNL     1      38.157 -24.865 -11.750  0.00  0.00    +0.022 C 
ATOM     33  C   UNL     1      37.574 -26.114 -11.608  0.00  0.00    +0.100 C 
ATOM     34  N   UNL     1      36.071 -26.730 -14.811  0.00  0.00    -0.342 N 
ATOM     35  H   UNL     1      35.674 -27.618 -14.665  0.00  0.00    +0.144 HD
ATOM     36  H   UNL     1      35.974 -26.284 -15.684  0.00  0.00    +0.144 HD
ENDBRANCH  26  29
ENDBRANCH  25  26
ENDBRANCH   2  25
TORSDOF 7
ENDMDL
MODEL 3
REMARK VINA RESULT:     -10.5      2.931      7.375
REMARK  Name = 11633167
REMARK  7 active torsions:
REMARK  status: ('A' for Active; 'I' for Inactive)
REMARK    1  A    between atoms: C_1  and  C_8
REMARK    2  A    between atoms: C_2  and  C_25
REMARK    3  A    between atoms: C_4  and  O_17
REMARK    4  A    between atoms: O_17  and  C_18
REMARK    5  A    between atoms: C_18  and  C_20
REMARK    6  A    between atoms: C_25  and  N_26
REMARK    7  A    between atoms: N_26  and  C_29
REMARK                            x       y       z     vdW  Elec       q    Type
REMARK                         _______ _______ _______ _____ _____    ______ ____
ROOT
ATOM      1  C   UNL     1      33.675 -23.974 -13.707  0.00  0.00    -0.000 C 
ATOM      2  C   UNL     1      35.990 -23.527 -14.230  0.00  0.00    +0.031 C 
ATOM      3  C   UNL     1      34.664 -23.668 -14.641  0.00  0.00    +0.000 C 
ATOM      4  C   UNL     1      36.324 -23.692 -12.887  0.00  0.00    +0.137 C 
ATOM      5  C   UNL     1      34.008 -24.138 -12.364  0.00  0.00    +0.003 C 
ATOM      6  C   UNL     1      35.334 -23.996 -11.952  0.00  0.00    +0.037 C 
ENDROOT
BRANCH   1   8
ATOM      7  N   UNL     1      29.711 -22.790 -16.456  0.00  0.00    -0.312 N 
ATOM      8  C   UNL     1      32.299 -24.120 -14.133  0.00  0.00    +0.001 C 
ATOM      9  C   UNL     1      30.462 -23.457 -15.515  0.00  0.00    +0.048 C 
ATOM     10  C   UNL     1      29.634 -24.425 -14.940  0.00  0.00    +0.015 C 
ATOM     11  C   UNL     1      31.797 -23.282 -15.132  0.00  0.00    +0.015 C 
ATOM     12  C   UNL     1      31.496 -25.094 -13.542  0.00  0.00    +0.000 C 
ATOM     13  C   UNL     1      30.162 -25.258 -13.934  0.00  0.00    +0.001 C 
ATOM     14  C   UNL     1      28.363 -24.315 -15.570  0.00  0.00    +0.017 C 
ATOM     15  C   UNL     1      28.441 -23.300 -16.496  0.00  0.00    +0.062 C 
ATOM     16  H   UNL     1      30.039 -22.052 -17.019  0.00  0.00    +0.152 HD
ENDBRANCH   1   8
BRANCH   4  17
ATOM     17  O   UNL     1      37.614 -23.557 -12.468  0.00  0.00    -0.469 OA
BRANCH  17  18
ATOM     18  C   UNL     1      38.269 -24.733 -11.997  0.00  0.00    +0.251 C 
BRANCH  18  20
ATOM     19  N   UNL     1      40.089 -24.998 -13.571  0.00  0.00    -0.244 NA
ATOM     20  C   UNL     1      38.886 -25.450 -13.161  0.00  0.00    +0.103 C 
ATOM     21  C   UNL     1      38.208 -26.507 -13.736  0.00  0.00    +0.018 C 
ATOM     22  C   UNL     1      38.808 -27.149 -14.813  0.00  0.00    +0.003 C 
ATOM     23  C   UNL     1      40.641 -25.646 -14.620  0.00  0.00    +0.099 C 
ATOM     24  C   UNL     1      40.049 -26.717 -15.270  0.00  0.00    +0.021 C 
ENDBRANCH  18  20
ENDBRANCH  17  18
ENDBRANCH   4  17
BRANCH   2  25
ATOM     25  C   UNL     1      37.037 -23.201 -15.242  0.00  0.00    +0.117 C 
BRANCH  25  26
ATOM     26  N   UNL     1      36.924 -21.827 -15.735  0.00  0.00    -0.327 N 
ATOM     27  H   UNL     1      37.042 -21.087 -15.096  0.00  0.00    +0.147 HD
BRANCH  26  29
ATOM     28  N   UNL     1      37.067 -20.149 -19.033  0.00  0.00    -0.228 NA
ATOM     29  C   UNL     1      36.661 -21.520 -17.050  0.00  0.00    +0.077 C 
ATOM     30  C   UNL     1      37.299 -20.481 -17.744  0.00  0.00    +0.139 C 
ATOM     31  C   UNL     1      35.714 -22.253 -17.787  0.00  0.00    +0.019 C 
ATOM     32  C   UNL     1      35.448 -21.942 -19.117  0.00  0.00    +0.022 C 
ATOM     33  C   UNL     1      36.146 -20.890 -19.688  0.00  0.00    +0.100 C 
ATOM     34  N   UNL     1      38.260 -19.721 -17.030  0.00  0.00    -0.342 N 
ATOM     35  H   UNL     1      38.733 -18.982 -17.477  0.00  0.00    +0.144 HD
ATOM     36  H   UNL     1      38.455 -19.933 -16.088  0.00  0.00    +0.144 HD
ENDBRANCH  26  29
ENDBRANCH  25  26
ENDBRANCH   2  25
TORSDOF 7
ENDMDL
MODEL 4
REMARK VINA RESULT:     -10.4      1.696      5.840
REMARK  Name = 11633167
REMARK  7 active torsions:
REMARK  status: ('A' for Active; 'I' for Inactive)
REMARK    1  A    between atoms: C_1  and  C_8
REMARK    2  A    between atoms: C_2  and  C_25
REMARK    3  A    between atoms: C_4  and  O_17
REMARK    4  A    between atoms: O_17  and  C_18
REMARK    5  A    between atoms: C_18  and  C_20
REMARK    6  A    between atoms: C_25  and  N_26
REMARK    7  A    between atoms: N_26  and  C_29
REMARK                            x       y       z     vdW  Elec       q    Type
REMARK                         _______ _______ _______ _____ _____    ______ ____
ROOT
ATOM      1  C   UNL     1      34.406 -22.614 -17.075  0.00  0.00    -0.000 C 
ATOM      2  C   UNL     1      34.686 -23.441 -14.823  0.00  0.00    +0.031 C 
ATOM      3  C   UNL     1      35.158 -22.694 -15.903  0.00  0.00    +0.000 C 
ATOM      4  C   UNL     1      33.465 -24.106 -14.915  0.00  0.00    +0.137 C 
ATOM      5  C   UNL     1      33.184 -23.279 -17.168  0.00  0.00    +0.003 C 
ATOM      6  C   UNL     1      32.712 -24.025 -16.087  0.00  0.00    +0.037 C 
ENDROOT
BRANCH   1   8
ATOM      7  N   UNL     1      33.849 -19.947 -21.226  0.00  0.00    -0.312 N 
ATOM      8  C   UNL     1      34.894 -21.840 -18.196  0.00  0.00    +0.001 C 
ATOM      9  C   UNL     1      34.496 -20.573 -20.186  0.00  0.00    +0.048 C 
ATOM     10  C   UNL     1      35.864 -20.345 -20.358  0.00  0.00    +0.015 C 
ATOM     11  C   UNL     1      33.982 -21.315 -19.116  0.00  0.00    +0.015 C 
ATOM     12  C   UNL     1      36.263 -21.629 -18.342  0.00  0.00    +0.000 C 
ATOM     13  C   UNL     1      36.764 -20.885 -19.417  0.00  0.00    +0.001 C 
ATOM     14  C   UNL     1      36.013 -19.561 -21.534  0.00  0.00    +0.017 C 
ATOM     15  C   UNL     1      34.757 -19.333 -22.048  0.00  0.00    +0.062 C 
ATOM     16  H   UNL     1      32.873 -19.941 -21.362  0.00  0.00    +0.152 HD
ENDBRANCH   1   8
BRANCH   4  17
ATOM     17  O   UNL     1      32.989 -24.839 -13.870  0.00  0.00    -0.469 OA
BRANCH  17  18
ATOM     18  C   UNL     1      32.017 -24.218 -13.031  0.00  0.00    +0.251 C 
BRANCH  18  20
ATOM     19  N   UNL     1      30.362 -22.810 -14.098  0.00  0.00    -0.244 NA
ATOM     20  C   UNL     1      30.734 -24.070 -13.794  0.00  0.00    +0.103 C 
ATOM     21  C   UNL     1      30.022 -25.203 -14.137  0.00  0.00    +0.018 C 
ATOM     22  C   UNL     1      28.838 -25.031 -14.844  0.00  0.00    +0.003 C 
ATOM     23  C   UNL     1      29.205 -22.682 -14.785  0.00  0.00    +0.099 C 
ATOM     24  C   UNL     1      28.414 -23.750 -15.179  0.00  0.00    +0.021 C 
ENDBRANCH  18  20
ENDBRANCH  17  18
ENDBRANCH   4  17
BRANCH   2  25
ATOM     25  C   UNL     1      35.504 -23.516 -13.576  0.00  0.00    +0.117 C 
BRANCH  25  26
ATOM     26  N   UNL     1      35.900 -24.887 -13.254  0.00  0.00    -0.327 N 
ATOM     27  H   UNL     1      35.267 -25.456 -12.759  0.00  0.00    +0.147 HD
BRANCH  26  29
ATOM     28  N   UNL     1      38.441 -27.006 -14.920  0.00  0.00    -0.228 NA
ATOM     29  C   UNL     1      37.117 -25.420 -13.610  0.00  0.00    +0.077 C 
ATOM     30  C   UNL     1      37.264 -26.456 -14.545  0.00  0.00    +0.139 C 
ATOM     31  C   UNL     1      38.311 -24.941 -13.040  0.00  0.00    +0.019 C 
ATOM     32  C   UNL     1      39.541 -25.480 -13.401  0.00  0.00    +0.022 C 
ATOM     33  C   UNL     1      39.551 -26.502 -14.337  0.00  0.00    +0.100 C 
ATOM     34  N   UNL     1      36.081 -26.964 -15.139  0.00  0.00    -0.342 N 
ATOM     35  H   UNL     1      36.136 -27.691 -15.800  0.00  0.00    +0.144 HD
ATOM     36  H   UNL     1      35.205 -26.589 -14.890  0.00  0.00    +0.144 HD
ENDBRANCH  26  29
ENDBRANCH  25  26
ENDBRANCH   2  25
TORSDOF 7
ENDMDL
MODEL 5
REMARK VINA RESULT:     -10.2      1.929      7.980
REMARK  Name = 11633167
REMARK  7 active torsions:
REMARK  status: ('A' for Active; 'I' for Inactive)
REMARK    1  A    between atoms: C_1  and  C_8
REMARK    2  A    between atoms: C_2  and  C_25
REMARK    3  A    between atoms: C_4  and  O_17
REMARK    4  A    between atoms: O_17  and  C_18
REMARK    5  A    between atoms: C_18  and  C_20
REMARK    6  A    between atoms: C_25  and  N_26
REMARK    7  A    between atoms: N_26  and  C_29
REMARK                            x       y       z     vdW  Elec       q    Type
REMARK                         _______ _______ _______ _____ _____    ______ ____
ROOT
ATOM      1  C   UNL     1      35.675 -22.914 -15.998  0.00  0.00    -0.000 C 
ATOM      2  C   UNL     1      33.769 -22.746 -17.470  0.00  0.00    +0.031 C 
ATOM      3  C   UNL     1      34.322 -23.134 -16.249  0.00  0.00    +0.000 C 
ATOM      4  C   UNL     1      34.569 -22.139 -18.437  0.00  0.00    +0.137 C 
ATOM      5  C   UNL     1      36.476 -22.307 -16.964  0.00  0.00    +0.003 C 
ATOM      6  C   UNL     1      35.923 -21.918 -18.184  0.00  0.00    +0.037 C 
ENDROOT
BRANCH   1   8
ATOM      7  N   UNL     1      35.487 -23.918 -11.138  0.00  0.00    -0.312 N 
ATOM      8  C   UNL     1      36.251 -23.317 -14.731  0.00  0.00    +0.001 C 
ATOM      9  C   UNL     1      36.032 -23.771 -12.393  0.00  0.00    +0.048 C 
ATOM     10  C   UNL     1      37.386 -24.100 -12.293  0.00  0.00    +0.015 C 
ATOM     11  C   UNL     1      35.436 -23.377 -13.597  0.00  0.00    +0.015 C 
ATOM     12  C   UNL     1      37.604 -23.639 -14.662  0.00  0.00    +0.000 C 
ATOM     13  C   UNL     1      38.186 -24.031 -13.452  0.00  0.00    +0.001 C 
ATOM     14  C   UNL     1      37.633 -24.450 -10.937  0.00  0.00    +0.017 C 
ATOM     15  C   UNL     1      36.446 -24.327 -10.250  0.00  0.00    +0.062 C 
ATOM     16  H   UNL     1      34.543 -23.753 -10.909  0.00  0.00    +0.152 HD
ENDBRANCH   1   8
BRANCH   4  17
ATOM     17  O   UNL     1      34.045 -21.754 -19.634  0.00  0.00    -0.469 OA
BRANCH  17  18
ATOM     18  C   UNL     1      33.694 -20.379 -19.776  0.00  0.00    +0.251 C 
BRANCH  18  20
ATOM     19  N   UNL     1      35.799 -19.259 -20.193  0.00  0.00    -0.244 NA
ATOM     20  C   UNL     1      34.652 -19.724 -20.727  0.00  0.00    +0.103 C 
ATOM     21  C   UNL     1      34.317 -19.637 -22.064  0.00  0.00    +0.018 C 
ATOM     22  C   UNL     1      35.226 -19.025 -22.918  0.00  0.00    +0.003 C 
ATOM     23  C   UNL     1      36.659 -18.670 -21.054  0.00  0.00    +0.099 C 
ATOM     24  C   UNL     1      36.423 -18.529 -22.412  0.00  0.00    +0.021 C 
ENDBRANCH  18  20
ENDBRANCH  17  18
ENDBRANCH   4  17
BRANCH   2  25
ATOM     25  C   UNL     1      32.318 -22.989 -17.724  0.00  0.00    +0.117 C 
BRANCH  25  26
ATOM     26  N   UNL     1      31.479 -22.564 -16.603  0.00  0.00    -0.327 N 
ATOM     27  H   UNL     1      31.368 -21.599 -16.438  0.00  0.00    +0.147 HD
BRANCH  26  29
ATOM     28  N   UNL     1      28.799 -24.592 -15.047  0.00  0.00    -0.228 NA
ATOM     29  C   UNL     1      30.837 -23.448 -15.768  0.00  0.00    +0.077 C 
ATOM     30  C   UNL     1      29.465 -23.731 -15.849  0.00  0.00    +0.139 C 
ATOM     31  C   UNL     1      31.542 -24.133 -14.761  0.00  0.00    +0.019 C 
ATOM     32  C   UNL     1      30.892 -25.027 -13.917  0.00  0.00    +0.022 C 
ATOM     33  C   UNL     1      29.531 -25.219 -14.100  0.00  0.00    +0.100 C 
ATOM     34  N   UNL     1      28.723 -23.058 -16.852  0.00  0.00    -0.342 N 
ATOM     35  H   UNL     1      27.758 -23.226 -16.946  0.00  0.00    +0.144 HD
ATOM     36  H   UNL     1      29.174 -22.422 -17.455  0.00  0.00    +0.144 HD
ENDBRANCH  26  29
ENDBRANCH  25  26
ENDBRANCH   2  25
TORSDOF 7
ENDMDL
MODEL 6
REMARK VINA RESULT:     -10.1      1.754      8.554
REMARK  Name = 11633167
REMARK  7 active torsions:
REMARK  status: ('A' for Active; 'I' for Inactive)
REMARK    1  A    between atoms: C_1  and  C_8
REMARK    2  A    between atoms: C_2  and  C_25
REMARK    3  A    between atoms: C_4  and  O_17
REMARK    4  A    between atoms: O_17  and  C_18
REMARK    5  A    between atoms: C_18  and  C_20
REMARK    6  A    between atoms: C_25  and  N_26
REMARK    7  A    between atoms: N_26  and  C_29
REMARK                            x       y       z     vdW  Elec       q    Type
REMARK                         _______ _______ _______ _____ _____    ______ ____
ROOT
ATOM      1  C   UNL     1      33.214 -22.418 -17.473  0.00  0.00    -0.000 C 
ATOM      2  C   UNL     1      35.459 -21.859 -18.166  0.00  0.00    +0.031 C 
ATOM      3  C   UNL     1      34.587 -22.414 -17.228  0.00  0.00    +0.000 C 
ATOM      4  C   UNL     1      34.958 -21.311 -19.345  0.00  0.00    +0.137 C 
ATOM      5  C   UNL     1      32.712 -21.870 -18.652  0.00  0.00    +0.003 C 
ATOM      6  C   UNL     1      33.584 -21.317 -19.590  0.00  0.00    +0.037 C 
ENDROOT
BRANCH   1   8
ATOM      7  N   UNL     1      32.135 -25.032 -13.390  0.00  0.00    -0.312 N 
ATOM      8  C   UNL     1      32.308 -22.993 -16.500  0.00  0.00    +0.001 C 
ATOM      9  C   UNL     1      31.917 -24.273 -14.517  0.00  0.00    +0.048 C 
ATOM     10  C   UNL     1      30.536 -24.094 -14.631  0.00  0.00    +0.015 C 
ATOM     11  C   UNL     1      32.827 -23.735 -15.435  0.00  0.00    +0.015 C 
ATOM     12  C   UNL     1      30.936 -22.798 -16.639  0.00  0.00    +0.000 C 
ATOM     13  C   UNL     1      30.038 -23.343 -15.714  0.00  0.00    +0.001 C 
ATOM     14  C   UNL     1      29.935 -24.771 -13.534  0.00  0.00    +0.017 C 
ATOM     15  C   UNL     1      30.943 -25.339 -12.789  0.00  0.00    +0.062 C 
ATOM     16  H   UNL     1      33.019 -25.315 -13.063  0.00  0.00    +0.152 HD
ENDBRANCH   1   8
BRANCH   4  17
ATOM     17  O   UNL     1      35.795 -20.765 -20.271  0.00  0.00    -0.469 OA
BRANCH  17  18
ATOM     18  C   UNL     1      35.956 -19.349 -20.246  0.00  0.00    +0.251 C 
BRANCH  18  20
ATOM     19  N   UNL     1      35.597 -17.443 -21.696  0.00  0.00    -0.244 NA
ATOM     20  C   UNL     1      35.455 -18.775 -21.539  0.00  0.00    +0.103 C 
ATOM     21  C   UNL     1      34.892 -19.620 -22.475  0.00  0.00    +0.018 C 
ATOM     22  C   UNL     1      34.438 -19.056 -23.662  0.00  0.00    +0.003 C 
ATOM     23  C   UNL     1      35.145 -16.931 -22.862  0.00  0.00    +0.099 C 
ATOM     24  C   UNL     1      34.563 -17.687 -23.867  0.00  0.00    +0.021 C 
ENDBRANCH  18  20
ENDBRANCH  17  18
ENDBRANCH   4  17
BRANCH   2  25
ATOM     25  C   UNL     1      36.926 -21.862 -17.889  0.00  0.00    +0.117 C 
BRANCH  25  26
ATOM     26  N   UNL     1      37.224 -21.652 -16.472  0.00  0.00    -0.327 N 
ATOM     27  H   UNL     1      37.155 -20.741 -16.107  0.00  0.00    +0.147 HD
BRANCH  26  29
ATOM     28  N   UNL     1      37.192 -24.039 -13.640  0.00  0.00    -0.228 NA
ATOM     29  C   UNL     1      37.598 -22.670 -15.625  0.00  0.00    +0.077 C 
ATOM     30  C   UNL     1      36.857 -23.047 -14.495  0.00  0.00    +0.139 C 
ATOM     31  C   UNL     1      38.776 -23.405 -15.855  0.00  0.00    +0.019 C 
ATOM     32  C   UNL     1      39.153 -24.433 -14.998  0.00  0.00    +0.022 C 
ATOM     33  C   UNL     1      38.334 -24.708 -13.914  0.00  0.00    +0.100 C 
ATOM     34  N   UNL     1      35.665 -22.326 -14.233  0.00  0.00    -0.342 N 
ATOM     35  H   UNL     1      35.113 -22.556 -13.451  0.00  0.00    +0.144 HD
ATOM     36  H   UNL     1      35.389 -21.596 -14.834  0.00  0.00    +0.144 HD
ENDBRANCH  26  29
ENDBRANCH  25  26
ENDBRANCH   2  25
TORSDOF 7
ENDMDL
MODEL 7
REMARK VINA RESULT:     -10.0      2.035      8.266
REMARK  Name = 11633167
REMARK  7 active torsions:
REMARK  status: ('A' for Active; 'I' for Inactive)
REMARK    1  A    between atoms: C_1  and  C_8
REMARK    2  A    between atoms: C_2  and  C_25
REMARK    3  A    between atoms: C_4  and  O_17
REMARK    4  A    between atoms: O_17  and  C_18
REMARK    5  A    between atoms: C_18  and  C_20
REMARK    6  A    between atoms: C_25  and  N_26
REMARK    7  A    between atoms: N_26  and  C_29
REMARK                            x       y       z     vdW  Elec       q    Type
REMARK                         _______ _______ _______ _____ _____    ______ ____
ROOT
ATOM      1  C   UNL     1      34.008 -23.067 -16.444  0.00  0.00    -0.000 C 
ATOM      2  C   UNL     1      36.280 -22.307 -16.749  0.00  0.00    +0.031 C 
ATOM      3  C   UNL     1      35.286 -22.847 -15.932  0.00  0.00    +0.000 C 
ATOM      4  C   UNL     1      35.995 -21.988 -18.076  0.00  0.00    +0.137 C 
ATOM      5  C   UNL     1      33.722 -22.749 -17.771  0.00  0.00    +0.003 C 
ATOM      6  C   UNL     1      34.716 -22.210 -18.588  0.00  0.00    +0.037 C 
ENDROOT
BRANCH   1   8
ATOM      7  N   UNL     1      29.356 -24.483 -15.433  0.00  0.00    -0.312 N 
ATOM      8  C   UNL     1      32.976 -23.626 -15.597  0.00  0.00    +0.001 C 
ATOM      9  C   UNL     1      30.701 -24.269 -15.230  0.00  0.00    +0.048 C 
ATOM     10  C   UNL     1      30.997 -24.713 -13.939  0.00  0.00    +0.015 C 
ATOM     11  C   UNL     1      31.668 -23.722 -16.081  0.00  0.00    +0.015 C 
ATOM     12  C   UNL     1      33.300 -24.061 -14.314  0.00  0.00    +0.000 C 
ATOM     13  C   UNL     1      32.323 -24.606 -13.473  0.00  0.00    +0.001 C 
ATOM     14  C   UNL     1      29.785 -25.202 -13.377  0.00  0.00    +0.017 C 
ATOM     15  C   UNL     1      28.794 -25.046 -14.318  0.00  0.00    +0.062 C 
ATOM     16  H   UNL     1      28.869 -24.263 -16.259  0.00  0.00    +0.152 HD
ENDBRANCH   1   8
BRANCH   4  17
ATOM     17  O   UNL     1      36.953 -21.461 -18.888  0.00  0.00    -0.469 OA
BRANCH  17  18
ATOM     18  C   UNL     1      37.064 -20.040 -18.922  0.00  0.00    +0.251 C 
BRANCH  18  20
ATOM     19  N   UNL     1      37.520 -18.892 -21.004  0.00  0.00    -0.244 NA
ATOM     20  C   UNL     1      36.603 -19.544 -20.261  0.00  0.00    +0.103 C 
ATOM     21  C   UNL     1      35.299 -19.778 -20.651  0.00  0.00    +0.018 C 
ATOM     22  C   UNL     1      34.904 -19.305 -21.897  0.00  0.00    +0.003 C 
ATOM     23  C   UNL     1      37.100 -18.448 -22.210  0.00  0.00    +0.099 C 
ATOM     24  C   UNL     1      35.816 -18.627 -22.699  0.00  0.00    +0.021 C 
ENDBRANCH  18  20
ENDBRANCH  17  18
ENDBRANCH   4  17
BRANCH   2  25
ATOM     25  C   UNL     1      37.643 -22.077 -16.185  0.00  0.00    +0.117 C 
BRANCH  25  26
ATOM     26  N   UNL     1      38.313 -23.327 -15.824  0.00  0.00    -0.327 N 
ATOM     27  H   UNL     1      38.857 -23.783 -16.506  0.00  0.00    +0.147 HD
BRANCH  26  29
ATOM     28  N   UNL     1      38.811 -25.668 -12.997  0.00  0.00    -0.228 NA
ATOM     29  C   UNL     1      38.217 -23.896 -14.575  0.00  0.00    +0.077 C 
ATOM     30  C   UNL     1      38.880 -25.078 -14.212  0.00  0.00    +0.139 C 
ATOM     31  C   UNL     1      37.430 -23.306 -13.571  0.00  0.00    +0.019 C 
ATOM     32  C   UNL     1      37.334 -23.882 -12.308  0.00  0.00    +0.022 C 
ATOM     33  C   UNL     1      38.038 -25.052 -12.075  0.00  0.00    +0.100 C 
ATOM     34  N   UNL     1      39.682 -25.701 -15.201  0.00  0.00    -0.342 N 
ATOM     35  H   UNL     1      40.166 -26.532 -14.991  0.00  0.00    +0.144 HD
ATOM     36  H   UNL     1      39.757 -25.301 -16.098  0.00  0.00    +0.144 HD
ENDBRANCH  26  29
ENDBRANCH  25  26
ENDBRANCH   2  25
TORSDOF 7
ENDMDL
MODEL 8
REMARK VINA RESULT:      -9.5      8.873     14.989
REMARK  Name = 11633167
REMARK  7 active torsions:
REMARK  status: ('A' for Active; 'I' for Inactive)
REMARK    1  A    between atoms: C_1  and  C_8
REMARK    2  A    between atoms: C_2  and  C_25
REMARK    3  A    between atoms: C_4  and  O_17
REMARK    4  A    between atoms: O_17  and  C_18
REMARK    5  A    between atoms: C_18  and  C_20
REMARK    6  A    between atoms: C_25  and  N_26
REMARK    7  A    between atoms: N_26  and  C_29
REMARK                            x       y       z     vdW  Elec       q    Type
REMARK                         _______ _______ _______ _____ _____    ______ ____
ROOT
ATOM      1  C   UNL     1      33.523 -13.584 -22.330  0.00  0.00    -0.000 C 
ATOM      2  C   UNL     1      33.274 -11.282 -23.013  0.00  0.00    +0.031 C 
ATOM      3  C   UNL     1      33.877 -12.530 -23.170  0.00  0.00    +0.000 C 
ATOM      4  C   UNL     1      32.318 -11.090 -22.016  0.00  0.00    +0.137 C 
ATOM      5  C   UNL     1      32.568 -13.394 -21.333  0.00  0.00    +0.003 C 
ATOM      6  C   UNL     1      31.964 -12.146 -21.177  0.00  0.00    +0.037 C 
ENDROOT
BRANCH   1   8
ATOM      7  N   UNL     1      35.778 -17.683 -20.662  0.00  0.00    -0.312 N 
ATOM      8  C   UNL     1      34.149 -14.880 -22.492  0.00  0.00    +0.001 C 
ATOM      9  C   UNL     1      35.227 -16.805 -21.567  0.00  0.00    +0.048 C 
ATOM     10  C   UNL     1      35.356 -17.385 -22.832  0.00  0.00    +0.015 C 
ATOM     11  C   UNL     1      34.629 -15.556 -21.366  0.00  0.00    +0.015 C 
ATOM     12  C   UNL     1      34.264 -15.433 -23.765  0.00  0.00    +0.000 C 
ATOM     13  C   UNL     1      34.865 -16.684 -23.952  0.00  0.00    +0.001 C 
ATOM     14  C   UNL     1      36.002 -18.639 -22.653  0.00  0.00    +0.017 C 
ATOM     15  C   UNL     1      36.251 -18.794 -21.308  0.00  0.00    +0.062 C 
ATOM     16  H   UNL     1      35.828 -17.533 -19.690  0.00  0.00    +0.152 HD
ENDBRANCH   1   8
BRANCH   4  17
ATOM     17  O   UNL     1      31.719  -9.878 -21.849  0.00  0.00    -0.469 OA
BRANCH  17  18
ATOM     18  C   UNL     1      31.610  -9.387 -20.515  0.00  0.00    +0.251 C 
BRANCH  18  20
ATOM     19  N   UNL     1      31.026  -7.164 -21.275  0.00  0.00    -0.244 NA
ATOM     20  C   UNL     1      31.856  -7.907 -20.515  0.00  0.00    +0.103 C 
ATOM     21  C   UNL     1      32.892  -7.398 -19.757  0.00  0.00    +0.018 C 
ATOM     22  C   UNL     1      33.093  -6.023 -19.780  0.00  0.00    +0.003 C 
ATOM     23  C   UNL     1      31.251  -5.832 -21.273  0.00  0.00    +0.099 C 
ATOM     24  C   UNL     1      32.261  -5.217 -20.550  0.00  0.00    +0.021 C 
ENDBRANCH  18  20
ENDBRANCH  17  18
ENDBRANCH   4  17
BRANCH   2  25
ATOM     25  C   UNL     1      33.664 -10.163 -23.921  0.00  0.00    +0.117 C 
BRANCH  25  26
ATOM     26  N   UNL     1      33.995  -8.941 -23.187  0.00  0.00    -0.327 N 
ATOM     27  H   UNL     1      34.354  -9.024 -22.274  0.00  0.00    +0.147 HD
BRANCH  26  29
ATOM     28  N   UNL     1      32.383  -5.949 -24.660  0.00  0.00    -0.228 NA
ATOM     29  C   UNL     1      33.827  -7.681 -23.712  0.00  0.00    +0.077 C 
ATOM     30  C   UNL     1      32.588  -7.180 -24.139  0.00  0.00    +0.139 C 
ATOM     31  C   UNL     1      34.919  -6.805 -23.851  0.00  0.00    +0.019 C 
ATOM     32  C   UNL     1      34.748  -5.530 -24.382  0.00  0.00    +0.022 C 
ATOM     33  C   UNL     1      33.471  -5.155 -24.768  0.00  0.00    +0.100 C 
ATOM     34  N   UNL     1      31.465  -8.037 -24.013  0.00  0.00    -0.342 N 
ATOM     35  H   UNL     1      30.576  -7.727 -24.300  0.00  0.00    +0.144 HD
ATOM     36  H   UNL     1      31.575  -8.941 -23.639  0.00  0.00    +0.144 HD
ENDBRANCH  26  29
ENDBRANCH  25  26
ENDBRANCH   2  25
TORSDOF 7
ENDMDL
MODEL 9
REMARK VINA RESULT:      -9.3      9.604     15.717
REMARK  Name = 11633167
REMARK  7 active torsions:
REMARK  status: ('A' for Active; 'I' for Inactive)
REMARK    1  A    between atoms: C_1  and  C_8
REMARK    2  A    between atoms: C_2  and  C_25
REMARK    3  A    between atoms: C_4  and  O_17
REMARK    4  A    between atoms: O_17  and  C_18
REMARK    5  A    between atoms: C_18  and  C_20
REMARK    6  A    between atoms: C_25  and  N_26
REMARK    7  A    between atoms: N_26  and  C_29
REMARK                            x       y       z     vdW  Elec       q    Type
REMARK                         _______ _______ _______ _____ _____    ______ ____
ROOT
ATOM      1  C   UNL     1      33.755 -12.467 -23.682  0.00  0.00    -0.000 C 
ATOM      2  C   UNL     1      32.578 -10.524 -22.863  0.00  0.00    +0.031 C 
ATOM      3  C   UNL     1      32.824 -11.897 -22.814  0.00  0.00    +0.000 C 
ATOM      4  C   UNL     1      33.260  -9.725 -23.779  0.00  0.00    +0.137 C 
ATOM      5  C   UNL     1      34.438 -11.669 -24.598  0.00  0.00    +0.003 C 
ATOM      6  C   UNL     1      34.191 -10.297 -24.646  0.00  0.00    +0.037 C 
ENDROOT
BRANCH   1   8
ATOM      7  N   UNL     1      35.371 -16.629 -21.507  0.00  0.00    -0.312 N 
ATOM      8  C   UNL     1      34.011 -13.892 -23.632  0.00  0.00    +0.001 C 
ATOM      9  C   UNL     1      34.823 -15.824 -22.480  0.00  0.00    +0.048 C 
ATOM     10  C   UNL     1      34.497 -16.649 -23.559  0.00  0.00    +0.015 C 
ATOM     11  C   UNL     1      34.592 -14.444 -22.487  0.00  0.00    +0.015 C 
ATOM     12  C   UNL     1      33.676 -14.689 -24.724  0.00  0.00    +0.000 C 
ATOM     13  C   UNL     1      33.913 -16.069 -24.703  0.00  0.00    +0.001 C 
ATOM     14  C   UNL     1      34.868 -17.974 -23.200  0.00  0.00    +0.017 C 
ATOM     15  C   UNL     1      35.403 -17.931 -21.933  0.00  0.00    +0.062 C 
ATOM     16  H   UNL     1      35.694 -16.315 -20.631  0.00  0.00    +0.152 HD
ENDBRANCH   1   8
BRANCH   4  17
ATOM     17  O   UNL     1      33.031  -8.384 -23.840  0.00  0.00    -0.469 OA
BRANCH  17  18
ATOM     18  C   UNL     1      34.164  -7.526 -23.722  0.00  0.00    +0.251 C 
BRANCH  18  20
ATOM     19  N   UNL     1      32.641  -5.942 -24.737  0.00  0.00    -0.244 NA
ATOM     20  C   UNL     1      33.929  -6.288 -24.535  0.00  0.00    +0.103 C 
ATOM     21  C   UNL     1      35.015  -5.586 -25.020  0.00  0.00    +0.018 C 
ATOM     22  C   UNL     1      34.762  -4.443 -25.770  0.00  0.00    +0.003 C 
ATOM     23  C   UNL     1      32.434  -4.825 -25.470  0.00  0.00    +0.099 C 
ATOM     24  C   UNL     1      33.449  -4.048 -26.004  0.00  0.00    +0.021 C 
ENDBRANCH  18  20
ENDBRANCH  17  18
ENDBRANCH   4  17
BRANCH   2  25
ATOM     25  C   UNL     1      31.579  -9.929 -21.927  0.00  0.00    +0.117 C 
BRANCH  25  26
ATOM     26  N   UNL     1      32.178  -8.940 -21.030  0.00  0.00    -0.327 N 
ATOM     27  H   UNL     1      32.851  -9.243 -20.379  0.00  0.00    +0.147 HD
BRANCH  26  29
ATOM     28  N   UNL     1      32.051  -5.348 -20.135  0.00  0.00    -0.228 NA
ATOM     29  C   UNL     1      31.846  -7.606 -21.053  0.00  0.00    +0.077 C 
ATOM     30  C   UNL     1      32.355  -6.666 -20.144  0.00  0.00    +0.139 C 
ATOM     31  C   UNL     1      30.953  -7.100 -22.016  0.00  0.00    +0.019 C 
ATOM     32  C   UNL     1      30.617  -5.751 -22.039  0.00  0.00    +0.022 C 
ATOM     33  C   UNL     1      31.189  -4.924 -21.085  0.00  0.00    +0.100 C 
ATOM     34  N   UNL     1      33.257  -7.141 -19.159  0.00  0.00    -0.342 N 
ATOM     35  H   UNL     1      33.639  -6.517 -18.501  0.00  0.00    +0.144 HD
ATOM     36  H   UNL     1      33.501  -8.095 -19.134  0.00  0.00    +0.144 HD
ENDBRANCH  26  29
ENDBRANCH  25  26
ENDBRANCH   2  25
TORSDOF 7
ENDMDL
