MODEL 1
REMARK VINA RESULT:     -11.3      0.000      0.000
REMARK  Name = 447656
REMARK  5 active torsions:
REMARK  status: ('A' for Active; 'I' for Inactive)
REMARK    1  A    between atoms: N_5  and  C_14
REMARK    2  A    between atoms: C_6  and  O_25
REMARK    3  A    between atoms: C_17  and  C_22
REMARK    4  A    between atoms: O_25  and  C_26
REMARK    5  A    between atoms: C_26  and  C_27
REMARK                            x       y       z     vdW  Elec       q    Type
REMARK                         _______ _______ _______ _____ _____    ______ ____
ROOT
ATOM      1  N   UNL     1      33.924 -23.648 -15.252  0.00  0.00    -0.293 NA
ATOM      2  N   UNL     1      37.582 -23.979 -15.079  0.00  0.00    -0.266 NA
ATOM      3  N   UNL     1      34.727 -24.807 -13.261  0.00  0.00    -0.316 NA
ATOM      4  N   UNL     1      37.146 -25.020 -13.157  0.00  0.00    -0.296 N 
ATOM      5  N   UNL     1      32.443 -24.457 -13.627  0.00  0.00    -0.238 N 
ATOM      6  C   UNL     1      35.181 -23.473 -15.710  0.00  0.00    +0.288 C 
ATOM      7  C   UNL     1      36.222 -23.963 -14.949  0.00  0.00    +0.215 C 
ATOM      8  C   UNL     1      35.977 -24.616 -13.748  0.00  0.00    +0.196 C 
ATOM      9  C   UNL     1      33.775 -24.295 -14.071  0.00  0.00    +0.207 C 
ATOM     10  C   UNL     1      38.091 -24.621 -13.983  0.00  0.00    +0.164 C 
ATOM     11  H   UNL     1      38.100 -23.598 -15.825  0.00  0.00    +0.126 HD
ATOM     12  H   UNL     1      37.256 -25.501 -12.305  0.00  0.00    +0.150 HD
ATOM     13  H   UNL     1      32.366 -24.929 -12.767  0.00  0.00    +0.166 HD
ENDROOT
BRANCH   5  14
ATOM     14  C   UNL     1      31.205 -24.074 -14.175  0.00  0.00    +0.058 C 
ATOM     15  C   UNL     1      30.796 -22.739 -14.118  0.00  0.00    +0.015 C 
ATOM     16  C   UNL     1      30.380 -25.026 -14.777  0.00  0.00    +0.015 C 
ATOM     17  C   UNL     1      28.747 -23.312 -15.262  0.00  0.00    +0.053 C 
ATOM     18  C   UNL     1      29.569 -22.358 -14.661  0.00  0.00    +0.006 C 
ATOM     19  C   UNL     1      29.152 -24.645 -15.321  0.00  0.00    +0.006 C 
BRANCH  17  22
ATOM     20  O   UNL     1      26.504 -22.609 -15.104  0.00  0.00    -0.270 OA
ATOM     21  N   UNL     1      27.360 -22.870 -17.215  0.00  0.00    -0.325 N 
ATOM     22  C   UNL     1      27.468 -22.916 -15.828  0.00  0.00    +0.243 C 
ATOM     23  H   UNL     1      26.509 -22.607 -17.635  0.00  0.00    +0.145 HD
ATOM     24  H   UNL     1      28.134 -23.103 -17.778  0.00  0.00    +0.145 HD
ENDBRANCH  17  22
ENDBRANCH   5  14
BRANCH   6  25
ATOM     25  O   UNL     1      35.367 -22.822 -16.905  0.00  0.00    -0.453 OA
BRANCH  25  26
ATOM     26  C   UNL     1      34.242 -22.708 -17.757  0.00  0.00    +0.208 C 
BRANCH  26  27
ATOM     27  C   UNL     1      34.675 -21.999 -19.039  0.00  0.00    +0.044 C 
ATOM     28  C   UNL     1      33.604 -20.998 -19.493  0.00  0.00    +0.004 C 
ATOM     29  C   UNL     1      36.026 -21.300 -18.842  0.00  0.00    +0.004 C 
ATOM     30  C   UNL     1      34.037 -20.237 -20.744  0.00  0.00    +0.000 C 
ATOM     31  C   UNL     1      36.455 -20.538 -20.094  0.00  0.00    +0.000 C 
ATOM     32  C   UNL     1      35.384 -19.551 -20.547  0.00  0.00    +0.000 C 
ENDBRANCH  26  27
ENDBRANCH  25  26
ENDBRANCH   6  25
TORSDOF 5
ENDMDL
MODEL 2
REMARK VINA RESULT:     -11.3      2.003      6.507
REMARK  Name = 447656
REMARK  5 active torsions:
REMARK  status: ('A' for Active; 'I' for Inactive)
REMARK    1  A    between atoms: N_5  and  C_14
REMARK    2  A    between atoms: C_6  and  O_25
REMARK    3  A    between atoms: C_17  and  C_22
REMARK    4  A    between atoms: O_25  and  C_26
REMARK    5  A    between atoms: C_26  and  C_27
REMARK                            x       y       z     vdW  Elec       q    Type
REMARK                         _______ _______ _______ _____ _____    ______ ____
ROOT
ATOM      1  N   UNL     1      33.463 -23.700 -15.688  0.00  0.00    -0.293 NA
ATOM      2  N   UNL     1      30.050 -22.655 -16.573  0.00  0.00    -0.266 NA
ATOM      3  N   UNL     1      31.823 -24.046 -13.915  0.00  0.00    -0.316 NA
ATOM      4  N   UNL     1      29.571 -23.351 -14.511  0.00  0.00    -0.296 N 
ATOM      5  N   UNL     1      34.072 -24.623 -13.623  0.00  0.00    -0.238 N 
ATOM      6  C   UNL     1      32.526 -23.189 -16.514  0.00  0.00    +0.288 C 
ATOM      7  C   UNL     1      31.230 -23.101 -16.049  0.00  0.00    +0.215 C 
ATOM      8  C   UNL     1      30.906 -23.528 -14.768  0.00  0.00    +0.196 C 
ATOM      9  C   UNL     1      33.060 -24.093 -14.456  0.00  0.00    +0.207 C 
ATOM     10  C   UNL     1      29.086 -22.825 -15.615  0.00  0.00    +0.164 C 
ATOM     11  H   UNL     1      29.918 -22.280 -17.474  0.00  0.00    +0.126 HD
ATOM     12  H   UNL     1      29.083 -23.570 -13.684  0.00  0.00    +0.150 HD
ATOM     13  H   UNL     1      33.750 -24.900 -12.735  0.00  0.00    +0.166 HD
ENDROOT
BRANCH   5  14
ATOM     14  C   UNL     1      35.449 -24.832 -13.816  0.00  0.00    +0.058 C 
ATOM     15  C   UNL     1      36.376 -23.922 -13.302  0.00  0.00    +0.015 C 
ATOM     16  C   UNL     1      35.896 -25.951 -14.522  0.00  0.00    +0.015 C 
ATOM     17  C   UNL     1      38.185 -25.248 -14.198  0.00  0.00    +0.053 C 
ATOM     18  C   UNL     1      37.742 -24.129 -13.492  0.00  0.00    +0.006 C 
ATOM     19  C   UNL     1      37.263 -26.159 -14.713  0.00  0.00    +0.006 C 
BRANCH  17  22
ATOM     20  O   UNL     1      40.454 -24.969 -13.628  0.00  0.00    -0.270 OA
ATOM     21  N   UNL     1      40.000 -26.264 -15.466  0.00  0.00    -0.325 N 
ATOM     22  C   UNL     1      39.609 -25.464 -14.396  0.00  0.00    +0.243 C 
ATOM     23  H   UNL     1      40.956 -26.433 -15.631  0.00  0.00    +0.145 HD
ATOM     24  H   UNL     1      39.321 -26.660 -16.059  0.00  0.00    +0.145 HD
ENDBRANCH  17  22
ENDBRANCH   5  14
BRANCH   6  25
ATOM     25  O   UNL     1      32.901 -22.780 -17.771  0.00  0.00    -0.453 OA
BRANCH  25  26
ATOM     26  C   UNL     1      34.283 -22.826 -18.076  0.00  0.00    +0.208 C 
BRANCH  26  27
ATOM     27  C   UNL     1      34.533 -21.973 -19.318  0.00  0.00    +0.044 C 
ATOM     28  C   UNL     1      33.364 -21.009 -19.558  0.00  0.00    +0.004 C 
ATOM     29  C   UNL     1      35.856 -21.206 -19.191  0.00  0.00    +0.004 C 
ATOM     30  C   UNL     1      33.615 -20.107 -20.765  0.00  0.00    +0.000 C 
ATOM     31  C   UNL     1      36.102 -20.303 -20.398  0.00  0.00    +0.000 C 
ATOM     32  C   UNL     1      34.934 -19.353 -20.639  0.00  0.00    +0.000 C 
ENDBRANCH  26  27
ENDBRANCH  25  26
ENDBRANCH   6  25
TORSDOF 5
ENDMDL
MODEL 3
REMARK VINA RESULT:     -11.3      1.316      1.668
REMARK  Name = 447656
REMARK  5 active torsions:
REMARK  status: ('A' for Active; 'I' for Inactive)
REMARK    1  A    between atoms: N_5  and  C_14
REMARK    2  A    between atoms: C_6  and  O_25
REMARK    3  A    between atoms: C_17  and  C_22
REMARK    4  A    between atoms: O_25  and  C_26
REMARK    5  A    between atoms: C_26  and  C_27
REMARK                            x       y       z     vdW  Elec       q    Type
REMARK                         _______ _______ _______ _____ _____    ______ ____
ROOT
ATOM      1  N   UNL     1      34.304 -24.080 -14.201  0.00  0.00    -0.293 NA
ATOM      2  N   UNL     1      37.822 -24.233 -13.140  0.00  0.00    -0.266 NA
ATOM      3  N   UNL     1      34.609 -24.398 -11.801  0.00  0.00    -0.316 NA
ATOM      4  N   UNL     1      36.938 -24.499 -11.111  0.00  0.00    -0.296 N 
ATOM      5  N   UNL     1      32.474 -24.265 -12.751  0.00  0.00    -0.238 N 
ATOM      6  C   UNL     1      35.638 -24.057 -14.411  0.00  0.00    +0.288 C 
ATOM      7  C   UNL     1      36.468 -24.204 -13.319  0.00  0.00    +0.215 C 
ATOM      8  C   UNL     1      35.942 -24.371 -12.045  0.00  0.00    +0.196 C 
ATOM      9  C   UNL     1      33.877 -24.247 -12.927  0.00  0.00    +0.207 C 
ATOM     10  C   UNL     1      38.054 -24.412 -11.802  0.00  0.00    +0.164 C 
ATOM     11  H   UNL     1      38.505 -24.143 -13.844  0.00  0.00    +0.126 HD
ATOM     12  H   UNL     1      36.840 -24.627 -10.140  0.00  0.00    +0.150 HD
ATOM     13  H   UNL     1      32.194 -24.387 -11.815  0.00  0.00    +0.166 HD
ENDROOT
BRANCH   5  14
ATOM     14  C   UNL     1      31.402 -24.142 -13.651  0.00  0.00    +0.058 C 
ATOM     15  C   UNL     1      31.191 -22.940 -14.332  0.00  0.00    +0.015 C 
ATOM     16  C   UNL     1      30.542 -25.221 -13.870  0.00  0.00    +0.015 C 
ATOM     17  C   UNL     1      29.270 -23.898 -15.442  0.00  0.00    +0.053 C 
ATOM     18  C   UNL     1      30.127 -22.818 -15.226  0.00  0.00    +0.006 C 
ATOM     19  C   UNL     1      29.478 -25.100 -14.764  0.00  0.00    +0.006 C 
BRANCH  17  22
ATOM     20  O   UNL     1      27.777 -24.736 -17.058  0.00  0.00    -0.270 OA
ATOM     21  N   UNL     1      27.529 -22.535 -16.463  0.00  0.00    -0.325 N 
ATOM     22  C   UNL     1      28.162 -23.771 -16.374  0.00  0.00    +0.243 C 
ATOM     23  H   UNL     1      26.775 -22.412 -17.085  0.00  0.00    +0.145 HD
ATOM     24  H   UNL     1      27.836 -21.783 -15.907  0.00  0.00    +0.145 HD
ENDBRANCH  17  22
ENDBRANCH   5  14
BRANCH   6  25
ATOM     25  O   UNL     1      36.105 -23.890 -15.692  0.00  0.00    -0.453 OA
BRANCH  25  26
ATOM     26  C   UNL     1      36.244 -22.560 -16.157  0.00  0.00    +0.208 C 
BRANCH  26  27
ATOM     27  C   UNL     1      35.660 -22.476 -17.566  0.00  0.00    +0.044 C 
ATOM     28  C   UNL     1      34.134 -22.317 -17.511  0.00  0.00    +0.004 C 
ATOM     29  C   UNL     1      36.301 -21.324 -18.351  0.00  0.00    +0.004 C 
ATOM     30  C   UNL     1      33.531 -22.177 -18.907  0.00  0.00    +0.000 C 
ATOM     31  C   UNL     1      35.694 -21.186 -19.745  0.00  0.00    +0.000 C 
ATOM     32  C   UNL     1      34.177 -21.037 -19.687  0.00  0.00    +0.000 C 
ENDBRANCH  26  27
ENDBRANCH  25  26
ENDBRANCH   6  25
TORSDOF 5
ENDMDL
MODEL 4
REMARK VINA RESULT:     -10.8      2.766      7.117
REMARK  Name = 447656
REMARK  5 active torsions:
REMARK  status: ('A' for Active; 'I' for Inactive)
REMARK    1  A    between atoms: N_5  and  C_14
REMARK    2  A    between atoms: C_6  and  O_25
REMARK    3  A    between atoms: C_17  and  C_22
REMARK    4  A    between atoms: O_25  and  C_26
REMARK    5  A    between atoms: C_26  and  C_27
REMARK                            x       y       z     vdW  Elec       q    Type
REMARK                         _______ _______ _______ _____ _____    ______ ____
ROOT
ATOM      1  N   UNL     1      33.638 -22.920 -15.912  0.00  0.00    -0.293 NA
ATOM      2  N   UNL     1      32.520 -24.790 -12.950  0.00  0.00    -0.266 NA
ATOM      3  N   UNL     1      31.367 -23.794 -16.084  0.00  0.00    -0.316 NA
ATOM      4  N   UNL     1      30.638 -25.029 -14.121  0.00  0.00    -0.296 N 
ATOM      5  N   UNL     1      32.333 -22.565 -17.825  0.00  0.00    -0.238 N 
ATOM      6  C   UNL     1      33.791 -23.440 -14.676  0.00  0.00    +0.288 C 
ATOM      7  C   UNL     1      32.734 -24.141 -14.133  0.00  0.00    +0.215 C 
ATOM      8  C   UNL     1      31.551 -24.303 -14.841  0.00  0.00    +0.196 C 
ATOM      9  C   UNL     1      32.452 -23.126 -16.532  0.00  0.00    +0.207 C 
ATOM     10  C   UNL     1      31.252 -25.305 -12.990  0.00  0.00    +0.164 C 
ATOM     11  H   UNL     1      33.160 -24.873 -12.206  0.00  0.00    +0.126 HD
ATOM     12  H   UNL     1      29.726 -25.285 -14.389  0.00  0.00    +0.150 HD
ATOM     13  H   UNL     1      31.461 -22.730 -18.250  0.00  0.00    +0.166 HD
ENDROOT
BRANCH   5  14
ATOM     14  C   UNL     1      33.218 -21.817 -18.621  0.00  0.00    +0.058 C 
ATOM     15  C   UNL     1      34.598 -22.000 -18.499  0.00  0.00    +0.015 C 
ATOM     16  C   UNL     1      32.723 -20.887 -19.538  0.00  0.00    +0.015 C 
ATOM     17  C   UNL     1      34.978 -20.331 -20.203  0.00  0.00    +0.053 C 
ATOM     18  C   UNL     1      35.477 -21.259 -19.289  0.00  0.00    +0.006 C 
ATOM     19  C   UNL     1      33.601 -20.145 -20.329  0.00  0.00    +0.006 C 
BRANCH  17  22
ATOM     20  O   UNL     1      35.632 -19.296 -22.215  0.00  0.00    -0.270 OA
ATOM     21  N   UNL     1      37.069 -19.103 -20.438  0.00  0.00    -0.325 N 
ATOM     22  C   UNL     1      35.893 -19.559 -21.027  0.00  0.00    +0.243 C 
ATOM     23  H   UNL     1      37.713 -18.578 -20.966  0.00  0.00    +0.145 HD
ATOM     24  H   UNL     1      37.258 -19.308 -19.493  0.00  0.00    +0.145 HD
ENDBRANCH  17  22
ENDBRANCH   5  14
BRANCH   6  25
ATOM     25  O   UNL     1      34.983 -23.250 -14.019  0.00  0.00    -0.453 OA
BRANCH  25  26
ATOM     26  C   UNL     1      36.157 -23.232 -14.810  0.00  0.00    +0.208 C 
BRANCH  26  27
ATOM     27  C   UNL     1      37.210 -24.106 -14.132  0.00  0.00    +0.044 C 
ATOM     28  C   UNL     1      37.331 -23.752 -12.643  0.00  0.00    +0.004 C 
ATOM     29  C   UNL     1      36.881 -25.593 -14.314  0.00  0.00    +0.004 C 
ATOM     30  C   UNL     1      38.342 -24.649 -11.931  0.00  0.00    +0.000 C 
ATOM     31  C   UNL     1      37.892 -26.486 -13.599  0.00  0.00    +0.000 C 
ATOM     32  C   UNL     1      38.016 -26.126 -12.122  0.00  0.00    +0.000 C 
ENDBRANCH  26  27
ENDBRANCH  25  26
ENDBRANCH   6  25
TORSDOF 5
ENDMDL
MODEL 5
REMARK VINA RESULT:     -10.7      2.670      6.099
REMARK  Name = 447656
REMARK  5 active torsions:
REMARK  status: ('A' for Active; 'I' for Inactive)
REMARK    1  A    between atoms: N_5  and  C_14
REMARK    2  A    between atoms: C_6  and  O_25
REMARK    3  A    between atoms: C_17  and  C_22
REMARK    4  A    between atoms: O_25  and  C_26
REMARK    5  A    between atoms: C_26  and  C_27
REMARK                            x       y       z     vdW  Elec       q    Type
REMARK                         _______ _______ _______ _____ _____    ______ ____
ROOT
ATOM      1  N   UNL     1      35.385 -23.821 -15.184  0.00  0.00    -0.293 NA
ATOM      2  N   UNL     1      36.236 -25.720 -12.152  0.00  0.00    -0.266 NA
ATOM      3  N   UNL     1      37.770 -23.864 -14.671  0.00  0.00    -0.316 NA
ATOM      4  N   UNL     1      38.321 -25.122 -12.665  0.00  0.00    -0.296 N 
ATOM      5  N   UNL     1      36.948 -22.728 -16.544  0.00  0.00    -0.238 N 
ATOM      6  C   UNL     1      35.095 -24.573 -14.101  0.00  0.00    +0.288 C 
ATOM      7  C   UNL     1      36.138 -24.977 -13.294  0.00  0.00    +0.215 C 
ATOM      8  C   UNL     1      37.446 -24.618 -13.592  0.00  0.00    +0.196 C 
ATOM      9  C   UNL     1      36.687 -23.517 -15.400  0.00  0.00    +0.207 C 
ATOM     10  C   UNL     1      37.561 -25.779 -11.814  0.00  0.00    +0.164 C 
ATOM     11  H   UNL     1      35.490 -26.136 -11.662  0.00  0.00    +0.126 HD
ATOM     12  H   UNL     1      39.300 -25.017 -12.641  0.00  0.00    +0.150 HD
ATOM     13  H   UNL     1      37.902 -22.523 -16.675  0.00  0.00    +0.166 HD
ENDROOT
BRANCH   5  14
ATOM     14  C   UNL     1      36.110 -22.178 -17.531  0.00  0.00    +0.058 C 
ATOM     15  C   UNL     1      36.647 -21.371 -18.537  0.00  0.00    +0.015 C 
ATOM     16  C   UNL     1      34.738 -22.436 -17.509  0.00  0.00    +0.015 C 
ATOM     17  C   UNL     1      34.447 -21.086 -19.492  0.00  0.00    +0.053 C 
ATOM     18  C   UNL     1      35.817 -20.826 -19.517  0.00  0.00    +0.006 C 
ATOM     19  C   UNL     1      33.907 -21.891 -18.489  0.00  0.00    +0.006 C 
BRANCH  17  22
ATOM     20  O   UNL     1      32.345 -20.640 -20.456  0.00  0.00    -0.270 OA
ATOM     21  N   UNL     1      34.182 -19.814 -21.553  0.00  0.00    -0.325 N 
ATOM     22  C   UNL     1      33.582 -20.519 -20.513  0.00  0.00    +0.243 C 
ATOM     23  H   UNL     1      33.627 -19.417 -22.263  0.00  0.00    +0.145 HD
ATOM     24  H   UNL     1      35.161 -19.715 -21.580  0.00  0.00    +0.145 HD
ENDBRANCH  17  22
ENDBRANCH   5  14
BRANCH   6  25
ATOM     25  O   UNL     1      33.784 -24.899 -13.853  0.00  0.00    -0.453 OA
BRANCH  25  26
ATOM     26  C   UNL     1      33.048 -24.017 -13.025  0.00  0.00    +0.208 C 
BRANCH  26  27
ATOM     27  C   UNL     1      31.627 -23.907 -13.577  0.00  0.00    +0.044 C 
ATOM     28  C   UNL     1      31.638 -23.289 -14.982  0.00  0.00    +0.004 C 
ATOM     29  C   UNL     1      30.943 -25.280 -13.590  0.00  0.00    +0.004 C 
ATOM     30  C   UNL     1      30.233 -23.218 -15.577  0.00  0.00    +0.000 C 
ATOM     31  C   UNL     1      29.540 -25.206 -14.188  0.00  0.00    +0.000 C 
ATOM     32  C   UNL     1      29.554 -24.582 -15.580  0.00  0.00    +0.000 C 
ENDBRANCH  26  27
ENDBRANCH  25  26
ENDBRANCH   6  25
TORSDOF 5
ENDMDL
MODEL 6
REMARK VINA RESULT:     -10.3      1.461      2.116
REMARK  Name = 447656
REMARK  5 active torsions:
REMARK  status: ('A' for Active; 'I' for Inactive)
REMARK    1  A    between atoms: N_5  and  C_14
REMARK    2  A    between atoms: C_6  and  O_25
REMARK    3  A    between atoms: C_17  and  C_22
REMARK    4  A    between atoms: O_25  and  C_26
REMARK    5  A    between atoms: C_26  and  C_27
REMARK                            x       y       z     vdW  Elec       q    Type
REMARK                         _______ _______ _______ _____ _____    ______ ____
ROOT
ATOM      1  N   UNL     1      35.637 -24.159 -14.660  0.00  0.00    -0.293 NA
ATOM      2  N   UNL     1      39.251 -24.693 -14.240  0.00  0.00    -0.266 NA
ATOM      3  N   UNL     1      36.228 -25.488 -12.701  0.00  0.00    -0.316 NA
ATOM      4  N   UNL     1      38.619 -25.836 -12.434  0.00  0.00    -0.296 N 
ATOM      5  N   UNL     1      33.998 -24.994 -13.210  0.00  0.00    -0.238 N 
ATOM      6  C   UNL     1      36.934 -24.020 -15.010  0.00  0.00    +0.288 C 
ATOM      7  C   UNL     1      37.888 -24.614 -14.210  0.00  0.00    +0.215 C 
ATOM      8  C   UNL     1      37.520 -25.331 -13.080  0.00  0.00    +0.196 C 
ATOM      9  C   UNL     1      35.367 -24.874 -13.542  0.00  0.00    +0.207 C 
ATOM     10  C   UNL     1      39.643 -25.433 -13.157  0.00  0.00    +0.164 C 
ATOM     11  H   UNL     1      39.843 -24.291 -14.916  0.00  0.00    +0.126 HD
ATOM     12  H   UNL     1      38.639 -26.377 -11.612  0.00  0.00    +0.150 HD
ATOM     13  H   UNL     1      33.833 -25.519 -12.394  0.00  0.00    +0.166 HD
ENDROOT
BRANCH   5  14
ATOM     14  C   UNL     1      32.827 -24.511 -13.819  0.00  0.00    +0.058 C 
ATOM     15  C   UNL     1      31.586 -25.063 -13.490  0.00  0.00    +0.015 C 
ATOM     16  C   UNL     1      32.898 -23.477 -14.755  0.00  0.00    +0.015 C 
ATOM     17  C   UNL     1      30.498 -23.551 -15.028  0.00  0.00    +0.053 C 
ATOM     18  C   UNL     1      30.423 -24.584 -14.094  0.00  0.00    +0.006 C 
ATOM     19  C   UNL     1      31.735 -22.997 -15.359  0.00  0.00    +0.006 C 
BRANCH  17  22
ATOM     20  O   UNL     1      29.329 -22.369 -16.697  0.00  0.00    -0.270 OA
ATOM     21  N   UNL     1      28.069 -23.376 -15.067  0.00  0.00    -0.325 N 
ATOM     22  C   UNL     1      29.287 -23.051 -15.657  0.00  0.00    +0.243 C 
ATOM     23  H   UNL     1      27.227 -23.054 -15.465  0.00  0.00    +0.145 HD
ATOM     24  H   UNL     1      28.048 -23.926 -14.251  0.00  0.00    +0.145 HD
ENDBRANCH  17  22
ENDBRANCH   5  14
BRANCH   6  25
ATOM     25  O   UNL     1      37.242 -23.301 -16.139  0.00  0.00    -0.453 OA
BRANCH  25  26
ATOM     26  C   UNL     1      36.519 -22.104 -16.356  0.00  0.00    +0.208 C 
BRANCH  26  27
ATOM     27  C   UNL     1      35.947 -22.133 -17.772  0.00  0.00    +0.044 C 
ATOM     28  C   UNL     1      34.413 -22.116 -17.738  0.00  0.00    +0.004 C 
ATOM     29  C   UNL     1      36.488 -20.960 -18.600  0.00  0.00    +0.004 C 
ATOM     30  C   UNL     1      33.818 -22.091 -19.144  0.00  0.00    +0.000 C 
ATOM     31  C   UNL     1      35.889 -20.937 -20.004  0.00  0.00    +0.000 C 
ATOM     32  C   UNL     1      34.364 -20.929 -19.966  0.00  0.00    +0.000 C 
ENDBRANCH  26  27
ENDBRANCH  25  26
ENDBRANCH   6  25
TORSDOF 5
ENDMDL
MODEL 7
REMARK VINA RESULT:     -10.2      8.589     12.474
REMARK  Name = 447656
REMARK  5 active torsions:
REMARK  status: ('A' for Active; 'I' for Inactive)
REMARK    1  A    between atoms: N_5  and  C_14
REMARK    2  A    between atoms: C_6  and  O_25
REMARK    3  A    between atoms: C_17  and  C_22
REMARK    4  A    between atoms: O_25  and  C_26
REMARK    5  A    between atoms: C_26  and  C_27
REMARK                            x       y       z     vdW  Elec       q    Type
REMARK                         _______ _______ _______ _____ _____    ______ ____
ROOT
ATOM      1  N   UNL     1      34.024 -14.959 -23.059  0.00  0.00    -0.293 NA
ATOM      2  N   UNL     1      33.129 -11.795 -24.705  0.00  0.00    -0.266 NA
ATOM      3  N   UNL     1      34.002 -15.074 -25.496  0.00  0.00    -0.316 NA
ATOM      4  N   UNL     1      33.408 -12.977 -26.573  0.00  0.00    -0.296 N 
ATOM      5  N   UNL     1      34.537 -16.943 -24.193  0.00  0.00    -0.238 N 
ATOM      6  C   UNL     1      33.670 -13.657 -23.074  0.00  0.00    +0.288 C 
ATOM      7  C   UNL     1      33.479 -13.051 -24.299  0.00  0.00    +0.215 C 
ATOM      8  C   UNL     1      33.647 -13.766 -25.477  0.00  0.00    +0.196 C 
ATOM      9  C   UNL     1      34.166 -15.580 -24.254  0.00  0.00    +0.207 C 
ATOM     10  C   UNL     1      33.100 -11.800 -26.073  0.00  0.00    +0.164 C 
ATOM     11  H   UNL     1      32.933 -11.027 -24.119  0.00  0.00    +0.126 HD
ATOM     12  H   UNL     1      33.458 -13.234 -27.522  0.00  0.00    +0.150 HD
ATOM     13  H   UNL     1      34.634 -17.367 -25.076  0.00  0.00    +0.166 HD
ENDROOT
BRANCH   5  14
ATOM     14  C   UNL     1      34.796 -17.811 -23.118  0.00  0.00    +0.058 C 
ATOM     15  C   UNL     1      34.203 -19.076 -23.078  0.00  0.00    +0.015 C 
ATOM     16  C   UNL     1      35.646 -17.413 -22.083  0.00  0.00    +0.015 C 
ATOM     17  C   UNL     1      35.309 -19.536 -20.981  0.00  0.00    +0.053 C 
ATOM     18  C   UNL     1      34.460 -19.937 -22.012  0.00  0.00    +0.006 C 
ATOM     19  C   UNL     1      35.903 -18.274 -21.016  0.00  0.00    +0.006 C 
BRANCH  17  22
ATOM     20  O   UNL     1      36.673 -20.427 -19.279  0.00  0.00    -0.270 OA
ATOM     21  N   UNL     1      34.557 -21.293 -19.469  0.00  0.00    -0.325 N 
ATOM     22  C   UNL     1      35.577 -20.434 -19.869  0.00  0.00    +0.243 C 
ATOM     23  H   UNL     1      34.703 -21.916 -18.721  0.00  0.00    +0.145 HD
ATOM     24  H   UNL     1      33.691 -21.279 -19.937  0.00  0.00    +0.145 HD
ENDBRANCH  17  22
ENDBRANCH   5  14
BRANCH   6  25
ATOM     25  O   UNL     1      33.516 -12.997 -21.879  0.00  0.00    -0.453 OA
BRANCH  25  26
ATOM     26  C   UNL     1      32.292 -13.186 -21.193  0.00  0.00    +0.208 C 
BRANCH  26  27
ATOM     27  C   UNL     1      31.717 -11.816 -20.841  0.00  0.00    +0.044 C 
ATOM     28  C   UNL     1      32.136 -11.400 -19.424  0.00  0.00    +0.004 C 
ATOM     29  C   UNL     1      32.154 -10.764 -21.870  0.00  0.00    +0.004 C 
ATOM     30  C   UNL     1      31.617 -10.008 -19.069  0.00  0.00    +0.000 C 
ATOM     31  C   UNL     1      31.636  -9.374 -21.510  0.00  0.00    +0.000 C 
ATOM     32  C   UNL     1      32.045  -8.968 -20.098  0.00  0.00    +0.000 C 
ENDBRANCH  26  27
ENDBRANCH  25  26
ENDBRANCH   6  25
TORSDOF 5
ENDMDL
MODEL 8
REMARK VINA RESULT:      -9.9      1.983      6.450
REMARK  Name = 447656
REMARK  5 active torsions:
REMARK  status: ('A' for Active; 'I' for Inactive)
REMARK    1  A    between atoms: N_5  and  C_14
REMARK    2  A    between atoms: C_6  and  O_25
REMARK    3  A    between atoms: C_17  and  C_22
REMARK    4  A    between atoms: O_25  and  C_26
REMARK    5  A    between atoms: C_26  and  C_27
REMARK                            x       y       z     vdW  Elec       q    Type
REMARK                         _______ _______ _______ _____ _____    ______ ____
ROOT
ATOM      1  N   UNL     1      32.099 -23.243 -15.231  0.00  0.00    -0.293 NA
ATOM      2  N   UNL     1      28.871 -22.694 -16.905  0.00  0.00    -0.266 NA
ATOM      3  N   UNL     1      30.157 -23.780 -13.854  0.00  0.00    -0.316 NA
ATOM      4  N   UNL     1      28.029 -23.413 -14.970  0.00  0.00    -0.296 N 
ATOM      5  N   UNL     1      32.336 -24.036 -13.040  0.00  0.00    -0.238 N 
ATOM      6  C   UNL     1      31.316 -22.880 -16.269  0.00  0.00    +0.288 C 
ATOM      7  C   UNL     1      29.948 -22.964 -16.110  0.00  0.00    +0.215 C 
ATOM      8  C   UNL     1      29.399 -23.409 -14.914  0.00  0.00    +0.196 C 
ATOM      9  C   UNL     1      31.480 -23.666 -14.103  0.00  0.00    +0.207 C 
ATOM     10  C   UNL     1      27.745 -22.978 -16.180  0.00  0.00    +0.164 C 
ATOM     11  H   UNL     1      28.900 -22.356 -17.830  0.00  0.00    +0.126 HD
ATOM     12  H   UNL     1      27.398 -23.682 -14.264  0.00  0.00    +0.150 HD
ATOM     13  H   UNL     1      31.859 -24.339 -12.234  0.00  0.00    +0.166 HD
ENDROOT
BRANCH   5  14
ATOM     14  C   UNL     1      33.736 -24.057 -12.910  0.00  0.00    +0.058 C 
ATOM     15  C   UNL     1      34.324 -24.499 -11.722  0.00  0.00    +0.015 C 
ATOM     16  C   UNL     1      34.545 -23.636 -13.967  0.00  0.00    +0.015 C 
ATOM     17  C   UNL     1      36.517 -24.100 -12.650  0.00  0.00    +0.053 C 
ATOM     18  C   UNL     1      35.712 -24.521 -11.592  0.00  0.00    +0.006 C 
ATOM     19  C   UNL     1      35.934 -23.658 -13.838  0.00  0.00    +0.006 C 
BRANCH  17  22
ATOM     20  O   UNL     1      38.702 -24.397 -13.480  0.00  0.00    -0.270 OA
ATOM     21  N   UNL     1      38.505 -23.806 -11.273  0.00  0.00    -0.325 N 
ATOM     22  C   UNL     1      37.965 -24.123 -12.516  0.00  0.00    +0.243 C 
ATOM     23  H   UNL     1      39.481 -23.812 -11.144  0.00  0.00    +0.145 HD
ATOM     24  H   UNL     1      37.911 -23.579 -10.521  0.00  0.00    +0.145 HD
ENDBRANCH  17  22
ENDBRANCH   5  14
BRANCH   6  25
ATOM     25  O   UNL     1      31.911 -22.446 -17.429  0.00  0.00    -0.453 OA
BRANCH  25  26
ATOM     26  C   UNL     1      33.142 -23.050 -17.784  0.00  0.00    +0.208 C 
BRANCH  26  27
ATOM     27  C   UNL     1      34.136 -21.947 -18.142  0.00  0.00    +0.044 C 
ATOM     28  C   UNL     1      35.572 -22.391 -17.834  0.00  0.00    +0.004 C 
ATOM     29  C   UNL     1      33.993 -21.546 -19.616  0.00  0.00    +0.004 C 
ATOM     30  C   UNL     1      36.590 -21.325 -18.233  0.00  0.00    +0.000 C 
ATOM     31  C   UNL     1      35.014 -20.483 -20.013  0.00  0.00    +0.000 C 
ATOM     32  C   UNL     1      36.439 -20.923 -19.696  0.00  0.00    +0.000 C 
ENDBRANCH  26  27
ENDBRANCH  25  26
ENDBRANCH   6  25
TORSDOF 5
ENDMDL
MODEL 9
REMARK VINA RESULT:      -9.5     13.811     17.502
REMARK  Name = 447656
REMARK  5 active torsions:
REMARK  status: ('A' for Active; 'I' for Inactive)
REMARK    1  A    between atoms: N_5  and  C_14
REMARK    2  A    between atoms: C_6  and  O_25
REMARK    3  A    between atoms: C_17  and  C_22
REMARK    4  A    between atoms: O_25  and  C_26
REMARK    5  A    between atoms: C_26  and  C_27
REMARK                            x       y       z     vdW  Elec       q    Type
REMARK                         _______ _______ _______ _____ _____    ______ ____
ROOT
ATOM      1  N   UNL     1      32.693  -8.274 -22.746  0.00  0.00    -0.293 NA
ATOM      2  N   UNL     1      31.742 -10.637 -20.093  0.00  0.00    -0.266 NA
ATOM      3  N   UNL     1      32.596  -7.286 -20.518  0.00  0.00    -0.316 NA
ATOM      4  N   UNL     1      31.966  -8.856 -18.772  0.00  0.00    -0.296 N 
ATOM      5  N   UNL     1      33.175  -6.010 -22.392  0.00  0.00    -0.238 N 
ATOM      6  C   UNL     1      32.337  -9.487 -22.270  0.00  0.00    +0.288 C 
ATOM      7  C   UNL     1      32.107  -9.609 -20.916  0.00  0.00    +0.215 C 
ATOM      8  C   UNL     1      32.240  -8.515 -20.072  0.00  0.00    +0.196 C 
ATOM      9  C   UNL     1      32.800  -7.262 -21.853  0.00  0.00    +0.207 C 
ATOM     10  C   UNL     1      31.671 -10.138 -18.820  0.00  0.00    +0.164 C 
ATOM     11  H   UNL     1      31.563 -11.566 -20.366  0.00  0.00    +0.126 HD
ATOM     12  H   UNL     1      31.987  -8.273 -17.979  0.00  0.00    +0.150 HD
ATOM     13  H   UNL     1      33.245  -5.294 -21.720  0.00  0.00    +0.166 HD
ENDROOT
BRANCH   5  14
ATOM     14  C   UNL     1      33.468  -5.588 -23.700  0.00  0.00    +0.058 C 
ATOM     15  C   UNL     1      34.756  -5.749 -24.218  0.00  0.00    +0.015 C 
ATOM     16  C   UNL     1      32.473  -5.005 -24.489  0.00  0.00    +0.015 C 
ATOM     17  C   UNL     1      34.051  -4.749 -26.301  0.00  0.00    +0.053 C 
ATOM     18  C   UNL     1      35.047  -5.330 -25.516  0.00  0.00    +0.006 C 
ATOM     19  C   UNL     1      32.764  -4.587 -25.788  0.00  0.00    +0.006 C 
BRANCH  17  22
ATOM     20  O   UNL     1      33.516  -4.409 -28.570  0.00  0.00    -0.270 OA
ATOM     21  N   UNL     1      35.611  -3.765 -27.893  0.00  0.00    -0.325 N 
ATOM     22  C   UNL     1      34.354  -4.314 -27.654  0.00  0.00    +0.243 C 
ATOM     23  H   UNL     1      35.852  -3.460 -28.798  0.00  0.00    +0.145 HD
ATOM     24  H   UNL     1      36.261  -3.684 -27.157  0.00  0.00    +0.145 HD
ENDBRANCH  17  22
ENDBRANCH   5  14
BRANCH   6  25
ATOM     25  O   UNL     1      32.218 -10.535 -23.150  0.00  0.00    -0.453 OA
BRANCH  25  26
ATOM     26  C   UNL     1      33.418 -11.152 -23.580  0.00  0.00    +0.208 C 
BRANCH  26  27
ATOM     27  C   UNL     1      33.315 -12.652 -23.310  0.00  0.00    +0.044 C 
ATOM     28  C   UNL     1      33.606 -13.453 -24.586  0.00  0.00    +0.004 C 
ATOM     29  C   UNL     1      34.262 -13.066 -22.177  0.00  0.00    +0.004 C 
ATOM     30  C   UNL     1      33.561 -14.958 -24.330  0.00  0.00    +0.000 C 
ATOM     31  C   UNL     1      34.217 -14.571 -21.925  0.00  0.00    +0.000 C 
ATOM     32  C   UNL     1      34.498 -15.364 -23.197  0.00  0.00    +0.000 C 
ENDBRANCH  26  27
ENDBRANCH  25  26
ENDBRANCH   6  25
TORSDOF 5
ENDMDL
